REMARK  Name = ZINC49739163
REMARK  4 active torsions:
REMARK  status: ('A' for Active; 'I' for Inactive)
REMARK    1  A    between atoms: C_10  and  C_13
REMARK    2  A    between atoms: C_13  and  N_14
REMARK    3  A    between atoms: N_14  and  S_15
REMARK    4  A    between atoms: S_15  and  C_18
REMARK                            x       y       z     vdW  Elec       q    Type
REMARK                         _______ _______ _______ _____ _____    ______ ____
ROOT
ATOM      1  N   UNL     1       4.891  -0.968  -2.562  0.00  0.00    -0.186 NA
ATOM      2  H   UNL     1       5.436  -0.545  -1.880  0.00  0.00    +0.148 HD
ENDROOT
BRANCH   1   3
ATOM      3  S   UNL     1       5.360  -0.914  -4.149  0.00  0.00    +0.059 S 
ATOM      4  O   UNL     1       6.569  -0.167  -4.190  0.00  0.00    -0.153 OA
ATOM      5  O   UNL     1       5.269  -2.243  -4.645  0.00  0.00    -0.153 OA
BRANCH   3   6
ATOM      6  C   UNL     1       4.154   0.032  -5.017  0.00  0.00    +0.109 A 
ATOM      7  C   UNL     1       3.053  -0.595  -5.571  0.00  0.00    +0.032 A 
ATOM      8  C   UNL     1       2.105   0.143  -6.254  0.00  0.00    +0.051 A 
ATOM      9  C   UNL     1       2.255   1.516  -6.385  0.00  0.00    +0.162 A 
ATOM     10  C   UNL     1       3.360   2.146  -5.826  0.00  0.00    +0.164 A 
ATOM     11  C   UNL     1       4.306   1.400  -5.139  0.00  0.00    +0.078 A 
ATOM     12  O   UNL     1       3.523   3.493  -5.935  0.00  0.00    -0.485 OA
ATOM     13  C   UNL     1       2.749   4.155  -6.941  0.00  0.00    +0.270 C 
ATOM     14  C   UNL     1       1.304   3.645  -6.850  0.00  0.00    +0.270 C 
ATOM     15  O   UNL     1       1.315   2.229  -7.063  0.00  0.00    -0.485 OA
ENDBRANCH   3   6
ENDBRANCH   1   3
BRANCH   1  16
ATOM     16  C   UNL     1       3.652  -1.654  -2.187  0.00  0.00    +0.160 C 
BRANCH  16  26
ATOM     17  C   UNL     1      -0.017   1.378   0.010  0.00  0.00    +0.002 A 
ATOM     18  C   UNL     1       1.169   2.090   0.002  0.00  0.00    +0.004 A 
ATOM     19  C   UNL     1       2.381   1.424  -0.007  0.00  0.00    +0.047 A 
ATOM     20  C   UNL     1       2.408   0.040  -0.011  0.00  0.00    +0.143 A 
ATOM     21  C   UNL     1       1.213  -0.677  -0.015  0.00  0.00    +0.076 A 
ATOM     22  C   UNL     1       0.002  -0.004   0.002  0.00  0.00    +0.027 A 
ATOM     23  N   UNL     1       1.249  -2.078  -0.054  0.00  0.00    -0.279 N 
ATOM     24  C   UNL     1       2.420  -2.700  -0.306  0.00  0.00    +0.259 C 
ATOM     25  O   UNL     1       2.494  -3.909  -0.237  0.00  0.00    -0.271 OA
ATOM     26  C   UNL     1       3.635  -1.887  -0.675  0.00  0.00    +0.274 C 
ATOM     27  O   UNL     1       3.593  -0.627  -0.002  0.00  0.00    -0.476 OA
ATOM     28  H   UNL     1       0.442  -2.594   0.098  0.00  0.00    +0.155 HD
ENDBRANCH  16  26
ENDBRANCH   1  16
TORSDOF 4
