REMARK  Name = ZINC10002710
REMARK  10 active torsions:
REMARK  status: ('A' for Active; 'I' for Inactive)
REMARK    1  A    between atoms: C_1  and  C_2
REMARK    2  A    between atoms: C_2  and  C_3
REMARK    3  A    between atoms: C_2  and  C_4
REMARK    4  A    between atoms: C_4  and  C_5
REMARK    5  A    between atoms: C_5  and  C_7
REMARK    6  A    between atoms: C_5  and  N_20
REMARK    7  A    between atoms: N_9  and  N_10
REMARK    8  A    between atoms: C_11  and  C_12
REMARK    9  A    between atoms: C_17  and  O_18
REMARK   10  A    between atoms: C_21  and  C_23
REMARK                            x       y       z     vdW  Elec       q    Type
REMARK                         _______ _______ _______ _____ _____    ______ ____
ROOT
ATOM      1  C   UNL     1      -2.482   0.853   0.018  0.00  0.00    +0.161 C 
ENDROOT
BRANCH   1   2
ATOM      2  C   UNL     1      -1.187   1.624   0.017  0.00  0.00    +0.253 C 
ATOM      3  O   UNL     1      -1.204   2.837   0.023  0.00  0.00    -0.272 OA
ATOM      4  N   UNL     1      -0.011   0.966   0.007  0.00  0.00    -0.205 N 
ATOM      5  H   UNL     1       0.002  -0.004   0.002  0.00  0.00    +0.177 HD
BRANCH   4   6
ATOM      6  N   UNL     1       1.193   1.683  -0.000  0.00  0.00    -0.188 NA
ATOM      7  C   UNL     1       2.325   1.049  -0.015  0.00  0.00    +0.142 C 
BRANCH   7   8
ATOM      8  C   UNL     1       3.591   1.803  -0.022  0.00  0.00    +0.037 A 
ATOM      9  C   UNL     1       4.813   1.125  -0.032  0.00  0.00    +0.033 A 
ATOM     10  C   UNL     1       5.994   1.838  -0.045  0.00  0.00    +0.042 A 
ATOM     11  C   UNL     1       5.974   3.223  -0.037  0.00  0.00    +0.023 A 
ATOM     12  C   UNL     1       4.772   3.905  -0.022  0.00  0.00    +0.047 A 
ATOM     13  C   UNL     1       3.577   3.205  -0.015  0.00  0.00    +0.126 A 
ATOM     14 CL   UNL     1       7.512   0.995  -0.064  0.00  0.00    -0.084 Cl
BRANCH  13  15
ATOM     15  O   UNL     1       2.395   3.874   0.000  0.00  0.00    -0.506 OA
ATOM     16  H   UNL     1       2.061   4.063   0.888  0.00  0.00    +0.292 HD
ENDBRANCH  13  15
ENDBRANCH   7   8
ENDBRANCH   4   6
ENDBRANCH   1   2
BRANCH   1  17
ATOM     17  N   UNL     1      -3.608   1.789   0.029  0.00  0.00    -0.300 N 
ATOM     18  C   UNL     1      -4.805   1.410  -0.461  0.00  0.00    +0.245 C 
ATOM     19  O   UNL     1      -4.950   0.290  -0.911  0.00  0.00    -0.270 OA
ATOM     20  H   UNL     1      -3.493   2.683   0.388  0.00  0.00    +0.150 HD
BRANCH  18  21
ATOM     21  C   UNL     1      -5.941   2.355  -0.450  0.00  0.00    +0.037 A 
ATOM     22  C   UNL     1      -5.779   3.639   0.071  0.00  0.00    +0.014 A 
ATOM     23  C   UNL     1      -6.842   4.519   0.072  0.00  0.00    +0.021 A 
ATOM     24  C   UNL     1      -8.071   4.126  -0.431  0.00  0.00    +0.041 A 
ATOM     25  C   UNL     1      -8.239   2.850  -0.944  0.00  0.00    +0.021 A 
ATOM     26  C   UNL     1      -7.182   1.964  -0.957  0.00  0.00    +0.014 A 
ATOM     27 CL   UNL     1      -9.405   5.236  -0.419  0.00  0.00    -0.084 Cl
ENDBRANCH  18  21
ENDBRANCH   1  17
BRANCH   1  28
ATOM     28  C   UNL     1      -2.545  -0.035   1.263  0.00  0.00    +0.034 C 
BRANCH  28  30
ATOM     29  C   UNL     1      -3.691  -1.876   0.022  0.00  0.00    +0.007 C 
ATOM     30  C   UNL     1      -3.799  -0.909   1.203  0.00  0.00    -0.015 C 
ATOM     31  C   UNL     1      -3.929  -1.705   2.503  0.00  0.00    +0.007 C 
ENDBRANCH  28  30
ENDBRANCH   1  28
TORSDOF 8
