REMARK  Name = ZINC16843189
REMARK  7 active torsions:
REMARK  status: ('A' for Active; 'I' for Inactive)
REMARK    1  A    between atoms: C_3  and  S_6
REMARK    2  A    between atoms: S_6  and  C_9
REMARK    3  A    between atoms: C_12  and  S_16
REMARK    4  A    between atoms: C_14  and  N_15
REMARK    5  A    between atoms: S_16  and  C_17
REMARK    6  A    between atoms: C_17  and  C_18
REMARK    7  A    between atoms: N_20  and  C_21
REMARK                            x       y       z     vdW  Elec       q    Type
REMARK                         _______ _______ _______ _____ _____    ______ ____
ROOT
ATOM      1  C   UNL     1       8.830  -5.998   0.490  0.00  0.00    +0.152 A 
ATOM      2  C   UNL     1       8.561  -4.647   0.388  0.00  0.00    +0.144 A 
ATOM      3  N   UNL     1       7.302  -4.240   0.320  0.00  0.00    -0.228 NA
ATOM      4  C   UNL     1       6.303  -5.111   0.348  0.00  0.00    +0.190 A 
ATOM      5  N   UNL     1       6.519  -6.414   0.451  0.00  0.00    -0.205 NA
ATOM      6  C   UNL     1       7.757  -6.891   0.518  0.00  0.00    +0.146 A 
ENDROOT
BRANCH   1   7
ATOM      7  S   UNL     1      10.491  -6.581   0.583  0.00  0.00    +0.036 S 
ATOM      8  O   UNL     1      10.607  -7.629  -0.369  0.00  0.00    -0.164 OA
ATOM      9  O   UNL     1      11.326  -5.432   0.557  0.00  0.00    -0.164 OA
BRANCH   7  12
ATOM     10  C   UNL     1      10.719  -8.959   3.864  0.00  0.00    +0.009 A 
ATOM     11  C   UNL     1      10.486  -8.602   2.549  0.00  0.00    +0.035 A 
ATOM     12  C   UNL     1      10.696  -7.317   2.171  0.00  0.00    +0.131 A 
ATOM     13  S   UNL     1      11.227  -6.564   3.699  0.00  0.00    -0.078 S 
ATOM     14  C   UNL     1      11.141  -8.013   4.738  0.00  0.00    +0.047 A 
ENDBRANCH   7  12
ENDBRANCH   1   7
BRANCH   6  15
ATOM     15  N   UNL     1       7.981  -8.255   0.620  0.00  0.00    -0.342 N 
ATOM     16  H   UNL     1       8.887  -8.595   0.673  0.00  0.00    +0.144 HD
ATOM     17  H   UNL     1       7.230  -8.869   0.638  0.00  0.00    +0.144 HD
ENDBRANCH   6  15
BRANCH   4  18
ATOM     18  S   UNL     1       4.645  -4.519   0.254  0.00  0.00    -0.077 S 
BRANCH  18  19
ATOM     19  C   UNL     1       4.953  -2.739   0.140  0.00  0.00    +0.173 C 
BRANCH  19  20
ATOM     20  C   UNL     1       3.639  -2.007   0.048  0.00  0.00    +0.227 C 
ATOM     21  O   UNL     1       2.597  -2.628   0.057  0.00  0.00    -0.275 OA
ATOM     22  N   UNL     1       3.621  -0.663  -0.046  0.00  0.00    -0.285 N 
ATOM     23  H   UNL     1       4.453  -0.172  -0.131  0.00  0.00    +0.155 HD
BRANCH  22  24
ATOM     24  C   UNL     1       2.401   0.025  -0.021  0.00  0.00    +0.037 A 
ATOM     25  C   UNL     1       1.346  -0.460   0.740  0.00  0.00    +0.027 A 
ATOM     26  C   UNL     1       0.142   0.217   0.764  0.00  0.00    +0.051 A 
ATOM     27  C   UNL     1      -0.016   1.384   0.030  0.00  0.00    +0.162 A 
ATOM     28  C   UNL     1       1.040   1.873  -0.730  0.00  0.00    +0.164 A 
ATOM     29  C   UNL     1       2.247   1.192  -0.756  0.00  0.00    +0.072 A 
ATOM     30  O   UNL     1       0.906   3.021  -1.451  0.00  0.00    -0.485 OA
ATOM     31  C   UNL     1      -0.429   3.473  -1.699  0.00  0.00    +0.270 C 
ATOM     32  C   UNL     1      -1.216   3.395  -0.384  0.00  0.00    +0.270 C 
ATOM     33  O   UNL     1      -1.213   2.033   0.059  0.00  0.00    -0.485 OA
ENDBRANCH  22  24
ENDBRANCH  19  20
ENDBRANCH  18  19
ENDBRANCH   4  18
TORSDOF 7
