REMARK  Name = ZINC16033990
REMARK  5 active torsions:
REMARK  status: ('A' for Active; 'I' for Inactive)
REMARK    1  A    between atoms: C_1  and  C_2
REMARK    2  A    between atoms: C_16  and  C_19
REMARK    3  A    between atoms: C_19  and  C_20
REMARK    4  A    between atoms: N_25  and  C_28
REMARK    5  A    between atoms: C_28  and  C_29
REMARK                            x       y       z     vdW  Elec       q    Type
REMARK                         _______ _______ _______ _____ _____    ______ ____
ROOT
ATOM      1  C   UNL     1      -0.018   1.503   0.010  0.00  0.00    +0.045 C 
ATOM      2  C   UNL     1       0.002  -0.004   0.002  0.00  0.00    -0.029 A 
ATOM      3  C   UNL     1       0.006  -0.685  -1.198  0.00  0.00    +0.005 A 
ATOM      4  C   UNL     1       0.024  -2.068  -1.216  0.00  0.00    +0.001 A 
ATOM      5  C   UNL     1       0.040  -2.772  -0.025  0.00  0.00    +0.008 A 
ATOM      6  C   UNL     1       0.037  -2.096   1.175  0.00  0.00    +0.004 A 
ATOM      7  C   UNL     1       0.023  -0.705   1.205  0.00  0.00    +0.042 A 
ATOM      8  N   UNL     1       0.029  -0.250   2.526  0.00  0.00    -0.283 N 
ATOM      9  C   UNL     1       0.050  -1.265   3.412  0.00  0.00    +0.243 C 
ATOM     10  O   UNL     1       0.059  -1.170   4.621  0.00  0.00    -0.273 OA
ATOM     11  C   UNL     1       0.049  -2.538   2.611  0.00  0.00    +0.136 C 
ATOM     12  C   UNL     1      -1.161  -3.420   2.939  0.00  0.00    +0.122 C 
ATOM     13  C   UNL     1      -0.620  -4.875   2.853  0.00  0.00    +0.107 C 
ATOM     14  C   UNL     1       0.863  -4.723   2.453  0.00  0.00    +0.076 C 
ATOM     15  N   UNL     1       1.239  -3.354   2.916  0.00  0.00    -0.295 NA
ATOM     16  C   UNL     1      -0.719  -5.369   4.278  0.00  0.00    +0.227 C 
ATOM     17  O   UNL     1      -0.386  -6.469   4.663  0.00  0.00    -0.275 OA
ATOM     18  N   UNL     1      -1.231  -4.402   5.049  0.00  0.00    -0.237 N 
ATOM     19  C   UNL     1      -1.529  -3.255   4.397  0.00  0.00    +0.229 C 
ATOM     20  O   UNL     1      -2.009  -2.257   4.889  0.00  0.00    -0.275 OA
ATOM     21  H   UNL     1       0.018   0.687   2.776  0.00  0.00    +0.155 HD
ATOM     22  H   UNL     1       2.047  -3.016   2.414  0.00  0.00    +0.124 HD
ENDROOT
BRANCH  14  23
ATOM     23  C   UNL     1       1.718  -5.768   3.171  0.00  0.00    +0.115 C 
BRANCH  23  24
ATOM     24  C   UNL     1       3.139  -5.682   2.675  0.00  0.00    +0.212 C 
ATOM     25  O   UNL     1       3.437  -4.866   1.829  0.00  0.00    -0.276 OA
ATOM     26  N   UNL     1       4.077  -6.513   3.170  0.00  0.00    -0.329 N 
ATOM     27  H   UNL     1       3.838  -7.166   3.847  0.00  0.00    +0.145 HD
ATOM     28  H   UNL     1       4.991  -6.458   2.851  0.00  0.00    +0.145 HD
ENDBRANCH  23  24
ENDBRANCH  14  23
BRANCH  18  29
ATOM     29  C   UNL     1      -1.459  -4.573   6.487  0.00  0.00    +0.151 C 
BRANCH  29  30
ATOM     30  C   UNL     1      -0.227  -4.147   7.244  0.00  0.00    -0.029 A 
ATOM     31  C   UNL     1       0.766  -5.068   7.521  0.00  0.00    +0.008 A 
ATOM     32  C   UNL     1       1.896  -4.679   8.215  0.00  0.00    +0.038 A 
ATOM     33  C   UNL     1       2.033  -3.366   8.633  0.00  0.00    +0.123 A 
ATOM     34  C   UNL     1       1.038  -2.445   8.355  0.00  0.00    +0.038 A 
ATOM     35  C   UNL     1      -0.089  -2.835   7.656  0.00  0.00    +0.008 A 
ATOM     36  F   UNL     1       3.137  -2.985   9.312  0.00  0.00    -0.205 F 
ENDBRANCH  29  30
ENDBRANCH  18  29
TORSDOF 4
