REMARK  Name = ZINC64482659
REMARK  7 active torsions:
REMARK  status: ('A' for Active; 'I' for Inactive)
REMARK    1  A    between atoms: C_3  and  C_6
REMARK    2  A    between atoms: C_6  and  N_7
REMARK    3  A    between atoms: N_7  and  C_8
REMARK    4  A    between atoms: N_7  and  C_14
REMARK    5  A    between atoms: C_8  and  C_9
REMARK    6  A    between atoms: C_14  and  C_15
REMARK    7  A    between atoms: N_20  and  C_21
REMARK                            x       y       z     vdW  Elec       q    Type
REMARK                         _______ _______ _______ _____ _____    ______ ____
ROOT
ATOM      1  C   UNL     1       5.461   0.526   1.406  0.00  0.00    +0.020 C 
ENDROOT
BRANCH   1   2
ATOM      2  C   UNL     1       5.942   0.393   2.828  0.00  0.00    +0.204 C 
ATOM      3  O   UNL     1       5.141   0.338   3.736  0.00  0.00    -0.277 OA
ATOM      4  N   UNL     1       7.263   0.334   3.090  0.00  0.00    -0.242 N 
ATOM      5  C   UNL     1       7.693   0.215   4.362  0.00  0.00    +0.306 C 
ATOM      6  O   UNL     1       6.890   0.160   5.272  0.00  0.00    -0.252 OA
ATOM      7  N   UNL     1       9.014   0.157   4.623  0.00  0.00    -0.296 N 
ATOM      8  H   UNL     1       7.904   0.378   2.363  0.00  0.00    +0.159 HD
ATOM      9  H   UNL     1       9.655   0.200   3.897  0.00  0.00    +0.151 HD
BRANCH   7  10
ATOM     10  C   UNL     1       9.481   0.027   6.006  0.00  0.00    +0.074 C 
ATOM     11  C   UNL     1       9.564   1.413   6.648  0.00  0.00    +0.022 C 
ATOM     12  C   UNL     1      10.053   1.278   8.092  0.00  0.00    +0.002 C 
ATOM     13  C   UNL     1      11.437   0.627   8.103  0.00  0.00    +0.000 C 
ATOM     14  C   UNL     1      11.354  -0.759   7.461  0.00  0.00    +0.002 C 
ATOM     15  C   UNL     1      10.866  -0.624   6.017  0.00  0.00    +0.022 C 
ENDBRANCH   7  10
ENDBRANCH   1   2
BRANCH   1  16
ATOM     16  N   UNL     1       3.993   0.568   1.388  0.00  0.00    +0.392 N 
ATOM     17  H   UNL     1       3.627  -0.245   1.862  0.00  0.00    -0.080 HD
BRANCH  16  18
ATOM     18  C   UNL     1       3.520   0.577  -0.003  0.00  0.00    -0.002 C 
BRANCH  18  21
ATOM     19  C   UNL     1       3.857  -2.833  -1.361  0.00  0.00    +0.041 A 
ATOM     20  C   UNL     1       3.158  -1.864  -0.605  0.00  0.00    +0.042 A 
ATOM     21  C   UNL     1       3.878  -0.730  -0.664  0.00  0.00    +0.089 A 
ATOM     22  O   UNL     1       4.970  -0.958  -1.412  0.00  0.00    -0.470 OA
ATOM     23  C   UNL     1       4.963  -2.232  -1.837  0.00  0.00    +0.195 A 
ENDBRANCH  18  21
ENDBRANCH  16  18
BRANCH  16  24
ATOM     24  C   UNL     1       3.529   1.783   2.070  0.00  0.00    -0.046 C 
BRANCH  24  25
ATOM     25  C   UNL     1       2.004   1.752   2.187  0.00  0.00    +0.102 C 
ATOM     26  C   UNL     1       1.508   3.020   2.915  0.00  0.00    +0.032 C 
ATOM     27  C   UNL     1       0.364   2.462   3.806  0.00  0.00    +0.030 C 
ATOM     28  C   UNL     1       0.919   1.058   4.152  0.00  0.00    +0.160 C 
ATOM     29  O   UNL     1       1.599   0.620   2.965  0.00  0.00    -0.378 OA
ENDBRANCH  24  25
ENDBRANCH  16  24
ENDBRANCH   1  16
TORSDOF 7
