REMARK  Name = ZINC00923331
REMARK  10 active torsions:
REMARK  status: ('A' for Active; 'I' for Inactive)
REMARK    1  A    between atoms: C_1  and  C_2
REMARK    2  A    between atoms: C_7  and  C_14
REMARK    3  A    between atoms: C_14  and  N_15
REMARK    4  A    between atoms: N_15  and  C_16
REMARK    5  A    between atoms: N_15  and  S_26
REMARK    6  A    between atoms: C_16  and  C_17
REMARK    7  A    between atoms: S_26  and  C_29
REMARK    8  A    between atoms: C_30  and  C_37
REMARK    9  A    between atoms: C_32  and  C_36
REMARK   10  A    between atoms: C_34  and  C_35
REMARK                            x       y       z     vdW  Elec       q    Type
REMARK                         _______ _______ _______ _____ _____    ______ ____
ROOT
ATOM      1  N   UNL     1       6.459  -0.362   0.172  0.00  0.00    -0.168 NA
ENDROOT
BRANCH   1   2
ATOM      2  S   UNL     1       6.165  -1.903   0.704  0.00  0.00    +0.062 S 
ATOM      3  O   UNL     1       5.899  -1.808   2.096  0.00  0.00    -0.153 OA
ATOM      4  O   UNL     1       5.242  -2.478  -0.211  0.00  0.00    -0.153 OA
BRANCH   2   5
ATOM      5  C   UNL     1       7.668  -2.806   0.538  0.00  0.00    +0.111 A 
ATOM      6  C   UNL     1       7.862  -3.631  -0.554  0.00  0.00    -0.024 A 
ATOM      7  C   UNL     1       9.044  -4.336  -0.687  0.00  0.00    +0.008 A 
ATOM      8  C   UNL     1      10.027  -4.225   0.279  0.00  0.00    -0.050 A 
ATOM      9  C   UNL     1       9.831  -3.404   1.374  0.00  0.00    +0.008 A 
ATOM     10  C   UNL     1       8.652  -2.695   1.503  0.00  0.00    -0.024 A 
ATOM     11  C   UNL     1       8.438  -1.800   2.697  0.00  0.00    +0.046 C 
ATOM     12  C   UNL     1      11.313  -4.998   0.138  0.00  0.00    +0.044 C 
ATOM     13  C   UNL     1       6.788  -3.757  -1.603  0.00  0.00    +0.046 C 
ENDBRANCH   2   5
ENDBRANCH   1   2
BRANCH   1  14
ATOM     14  C   UNL     1       6.621  -0.099  -1.260  0.00  0.00    +0.150 C 
BRANCH  14  21
ATOM     15  C   UNL     1      14.370   0.004  -3.147  0.00  0.00    +0.044 C 
ATOM     16  C   UNL     1      12.914  -0.242  -2.847  0.00  0.00    -0.048 A 
ATOM     17  C   UNL     1      12.381  -1.512  -3.023  0.00  0.00    +0.004 A 
ATOM     18  C   UNL     1      11.064  -1.756  -2.757  0.00  0.00    +0.010 A 
ATOM     19  C   UNL     1      10.244  -0.718  -2.303  0.00  0.00    -0.001 A 
ATOM     20  C   UNL     1       8.828  -0.944  -2.008  0.00  0.00    +0.020 A 
ATOM     21  C   UNL     1       8.082   0.100  -1.572  0.00  0.00    +0.033 A 
ATOM     22  C   UNL     1       8.667   1.375  -1.414  0.00  0.00    +0.254 A 
ATOM     23  O   UNL     1       7.977   2.301  -1.025  0.00  0.00    -0.268 OA
ATOM     24  N   UNL     1       9.967   1.592  -1.677  0.00  0.00    -0.322 N 
ATOM     25  H   UNL     1      10.351   2.506  -1.547  0.00  0.00    +0.169 HD
ATOM     26  C   UNL     1      10.780   0.571  -2.123  0.00  0.00    +0.049 A 
ATOM     27  C   UNL     1      12.124   0.796  -2.401  0.00  0.00    +0.029 A 
ENDBRANCH  14  21
ENDBRANCH   1  14
BRANCH   1  28
ATOM     28  C   UNL     1       6.557   0.738   1.135  0.00  0.00    +0.145 C 
BRANCH  28  29
ATOM     29  C   UNL     1       5.240   1.468   1.200  0.00  0.00    -0.028 A 
ATOM     30  C   UNL     1       4.237   1.009   2.034  0.00  0.00    +0.009 A 
ATOM     31  C   UNL     1       3.028   1.675   2.097  0.00  0.00    +0.050 A 
ATOM     32  C   UNL     1       2.817   2.805   1.323  0.00  0.00    +0.166 A 
ATOM     33  C   UNL     1       3.827   3.267   0.482  0.00  0.00    +0.167 A 
ATOM     34  C   UNL     1       5.037   2.595   0.425  0.00  0.00    +0.054 A 
ATOM     35  O   UNL     1       3.378   4.381  -0.166  0.00  0.00    -0.453 OA
ATOM     36  C   UNL     1       2.237   4.832   0.587  0.00  0.00    +0.466 C 
ATOM     37  O   UNL     1       1.736   3.629   1.200  0.00  0.00    -0.453 OA
ENDBRANCH  28  29
ENDBRANCH   1  28
TORSDOF 6
