REMARK  Name = ZINC13641991
REMARK  15 active torsions:
REMARK  status: ('A' for Active; 'I' for Inactive)
REMARK    1  A    between atoms: C_1  and  C_2
REMARK    2  A    between atoms: C_2  and  N_72
REMARK    3  A    between atoms: C_3  and  C_4
REMARK    4  A    between atoms: C_3  and  N_72
REMARK    5  A    between atoms: C_5  and  C_6
REMARK    6  A    between atoms: C_5  and  N_72
REMARK    7  A    between atoms: C_6  and  N_7
REMARK    8  A    between atoms: C_8  and  C_10
REMARK    9  A    between atoms: C_23  and  C_26
REMARK   10  A    between atoms: C_28  and  O_36
REMARK   11  A    between atoms: C_29  and  O_34
REMARK   12  A    between atoms: C_30  and  O_32
REMARK   13  A    between atoms: O_32  and  C_33
REMARK   14  A    between atoms: O_34  and  C_35
REMARK   15  A    between atoms: O_36  and  C_37
REMARK                            x       y       z     vdW  Elec       q    Type
REMARK                         _______ _______ _______ _____ _____    ______ ____
ROOT
ATOM      1  C   UNL     1      -1.208   3.594   0.027  0.00  0.00    +0.037 A 
ATOM      2  C   UNL     1      -0.006   4.308   0.000  0.00  0.00    +0.015 A 
ATOM      3  C   UNL     1      -0.033   5.683  -0.004  0.00  0.00    +0.024 A 
ATOM      4  C   UNL     1      -1.251   6.359   0.021  0.00  0.00    +0.031 A 
ATOM      5  C   UNL     1      -2.449   5.661   0.050  0.00  0.00    -0.019 A 
ATOM      6  C   UNL     1      -2.424   4.277   0.045  0.00  0.00    +0.019 A 
ATOM      7  C   UNL     1      -3.791   6.341   0.084  0.00  0.00    +0.049 C 
ATOM      8  C   UNL     1      -4.497   5.896   1.358  0.00  0.00    -0.023 C 
ATOM      9  C   UNL     1      -4.326   6.780   2.308  0.00  0.00    -0.030 C 
ATOM     10  C   UNL     1      -3.488   7.943   1.808  0.00  0.00    +0.033 C 
ATOM     11  C   UNL     1      -3.670   7.864   0.274  0.00  0.00    +0.029 C 
ATOM     12  C   UNL     1      -2.464   8.436  -0.448  0.00  0.00    +0.105 C 
ATOM     13  N   UNL     1      -1.249   7.753   0.011  0.00  0.00    -0.336 N 
ATOM     14  H   UNL     1      -0.471   8.255   0.299  0.00  0.00    +0.147 HD
ENDROOT
BRANCH  12  15
ATOM     15  C   UNL     1      -2.624   8.233  -1.932  0.00  0.00    -0.020 A 
ATOM     16  C   UNL     1      -2.329   7.006  -2.496  0.00  0.00    +0.055 A 
ATOM     17  C   UNL     1      -2.480   6.813  -3.861  0.00  0.00    +0.165 A 
ATOM     18  C   UNL     1      -2.917   7.860  -4.664  0.00  0.00    +0.204 A 
ATOM     19  C   UNL     1      -3.207   9.094  -4.094  0.00  0.00    +0.165 A 
ATOM     20  C   UNL     1      -3.059   9.276  -2.728  0.00  0.00    +0.055 A 
BRANCH  19  21
ATOM     21  O   UNL     1      -3.635  10.121  -4.876  0.00  0.00    -0.491 OA
ATOM     22  C   UNL     1      -3.914  11.361  -4.223  0.00  0.00    +0.277 C 
ENDBRANCH  19  21
BRANCH  18  23
ATOM     23  O   UNL     1      -3.062   7.676  -6.005  0.00  0.00    -0.488 OA
ATOM     24  C   UNL     1      -1.924   7.955  -6.824  0.00  0.00    +0.277 C 
ENDBRANCH  18  23
BRANCH  17  25
ATOM     25  O   UNL     1      -2.195   5.604  -4.413  0.00  0.00    -0.491 OA
ATOM     26  C   UNL     1      -1.751   4.574  -3.527  0.00  0.00    +0.277 C 
ENDBRANCH  17  25
ENDBRANCH  12  15
BRANCH   1  28
ATOM     27  N   UNL     1      -0.015   1.459   0.006  0.00  0.00    -0.313 N 
ATOM     28  C   UNL     1      -1.190   2.119   0.029  0.00  0.00    +0.244 C 
ATOM     29  O   UNL     1      -2.236   1.498   0.053  0.00  0.00    -0.270 OA
ATOM     30  H   UNL     1       0.819   1.954  -0.016  0.00  0.00    +0.149 HD
BRANCH  27  31
ATOM     31  C   UNL     1       0.002  -0.006   0.009  0.00  0.00    +0.086 C 
BRANCH  31  32
ATOM     32  C   UNL     1       1.450  -0.499  -0.028  0.00  0.00    -0.060 C 
BRANCH  32  33
ATOM     33  N   UNL     1       1.454  -1.970   0.119  0.00  0.00    +0.380 N 
ATOM     34  H   UNL     1       0.772  -2.234   0.841  0.00  0.00    -0.082 HD
BRANCH  33  36
ATOM     35  C   UNL     1       0.865  -4.103  -0.923  0.00  0.00    -0.017 C 
ATOM     36  C   UNL     1       1.071  -2.606  -1.159  0.00  0.00    -0.082 C 
ENDBRANCH  33  36
BRANCH  33  37
ATOM     37  C   UNL     1       2.795  -2.433   0.532  0.00  0.00    -0.082 C 
ATOM     38  C   UNL     1       2.973  -2.149   2.025  0.00  0.00    -0.017 C 
ENDBRANCH  33  37
ENDBRANCH  32  33
ENDBRANCH  31  32
ENDBRANCH  27  31
ENDBRANCH   1  28
TORSDOF 10
