REMARK  Name = ZINC08877668
REMARK  6 active torsions:
REMARK  status: ('A' for Active; 'I' for Inactive)
REMARK    1  A    between atoms: C_1  and  C_2
REMARK    2  A    between atoms: C_3  and  C_34
REMARK    3  A    between atoms: C_11  and  O_14
REMARK    4  A    between atoms: C_12  and  C_13
REMARK    5  A    between atoms: O_14  and  C_15
REMARK    6  A    between atoms: C_15  and  C_16
REMARK                            x       y       z     vdW  Elec       q    Type
REMARK                         _______ _______ _______ _____ _____    ______ ____
ROOT
ATOM      1  C   UNL     1       0.087  -2.206   5.972  0.00  0.00    +0.324 C 
ENDROOT
BRANCH   1   2
ATOM      2  C   UNL     1       0.111  -3.159   7.139  0.00  0.00    +0.253 C 
ATOM      3  O   UNL     1       0.126  -4.356   6.944  0.00  0.00    -0.272 OA
ATOM      4  N   UNL     1       0.116  -2.681   8.399  0.00  0.00    -0.298 N 
ATOM      5  C   UNL     1       0.146  -3.595   9.547  0.00  0.00    +0.113 C 
ATOM      6  C   UNL     1      -0.949  -3.229  10.540  0.00  0.00    +0.027 C 
ATOM      7  C   UNL     1      -0.913  -1.737  10.873  0.00  0.00    +0.018 C 
ATOM      8  C   UNL     1      -1.106  -0.948   9.575  0.00  0.00    +0.054 C 
ATOM      9  C   UNL     1       0.098  -1.232   8.654  0.00  0.00    +0.117 C 
ATOM     10  C   UNL     1      -2.364  -1.412   8.879  0.00  0.00    +0.027 A 
ATOM     11  C   UNL     1      -3.000  -0.520   8.074  0.00  0.00    +0.022 A 
ATOM     12  C   UNL     1      -4.133  -0.900   7.346  0.00  0.00    +0.007 A 
ATOM     13  C   UNL     1      -4.572  -2.188   7.435  0.00  0.00    +0.070 A 
ATOM     14  C   UNL     1      -3.891  -3.084   8.271  0.00  0.00    +0.251 A 
ATOM     15  O   UNL     1      -4.236  -4.255   8.310  0.00  0.00    -0.268 OA
ATOM     16  N   UNL     1      -2.854  -2.664   9.036  0.00  0.00    -0.312 N 
ATOM     17  C   UNL     1      -2.329  -3.596  10.027  0.00  0.00    +0.130 C 
ENDBRANCH   1   2
BRANCH   1  18
ATOM     18  O   UNL     1       0.086  -2.948   4.751  0.00  0.00    -0.482 OA
BRANCH  18  29
ATOM     19  C   UNL     1      -0.018   1.503   0.010  0.00  0.00    +0.045 C 
ATOM     20  C   UNL     1       0.002  -0.004   0.002  0.00  0.00    -0.030 A 
ATOM     21  C   UNL     1       0.006  -0.695  -1.167  0.00  0.00    +0.037 A 
ATOM     22  C   UNL     1       0.026  -2.105  -1.149  0.00  0.00    +0.340 A 
ATOM     23  O   UNL     1       0.030  -2.712  -2.204  0.00  0.00    -0.245 OA
ATOM     24  O   UNL     1       0.041  -2.795   0.003  0.00  0.00    -0.422 OA
ATOM     25  C   UNL     1       0.038  -2.169   1.199  0.00  0.00    +0.146 A 
ATOM     26  C   UNL     1       0.024  -0.763   1.254  0.00  0.00    +0.021 A 
ATOM     27  C   UNL     1       0.026  -0.111   2.492  0.00  0.00    +0.015 A 
ATOM     28  C   UNL     1       0.046  -0.842   3.644  0.00  0.00    +0.047 A 
ATOM     29  C   UNL     1       0.066  -2.234   3.596  0.00  0.00    +0.128 A 
ATOM     30  C   UNL     1       0.053  -2.897   2.379  0.00  0.00    +0.034 A 
ATOM     31  C   UNL     1       0.074  -4.403   2.338  0.00  0.00    +0.051 C 
ATOM     32  C   UNL     1      -0.011   0.043  -2.481  0.00  0.00    +0.051 C 
ENDBRANCH  18  29
ENDBRANCH   1  18
TORSDOF 3
