REMARK  Name = ZINC59148073
REMARK  8 active torsions:
REMARK  status: ('A' for Active; 'I' for Inactive)
REMARK    1  A    between atoms: C_3  and  O_9
REMARK    2  A    between atoms: O_9  and  C_10
REMARK    3  A    between atoms: C_10  and  C_11
REMARK    4  A    between atoms: N_13  and  N_14
REMARK    5  A    between atoms: C_15  and  C_16
REMARK    6  A    between atoms: C_17  and  O_24
REMARK    7  A    between atoms: C_19  and  O_23
REMARK    8  A    between atoms: C_21  and  O_22
REMARK                            x       y       z     vdW  Elec       q    Type
REMARK                         _______ _______ _______ _____ _____    ______ ____
ROOT
ATOM      1  C   UNL     1       4.839   4.127  -0.023  0.00  0.00    +0.270 C 
ATOM      2  O   UNL     1       5.811   3.401  -0.036  0.00  0.00    -0.270 OA
ATOM      3  N   UNL     1       4.998   5.466  -0.018  0.00  0.00    -0.204 N 
ATOM      4  H   UNL     1       4.221   6.046  -0.008  0.00  0.00    +0.177 HD
ENDROOT
BRANCH   3   5
ATOM      5  N   UNL     1       6.285   6.019  -0.028  0.00  0.00    -0.187 NA
ATOM      6  C   UNL     1       6.438   7.308  -0.023  0.00  0.00    +0.145 C 
BRANCH   6   7
ATOM      7  C   UNL     1       7.791   7.889  -0.033  0.00  0.00    +0.078 A 
ATOM      8  C   UNL     1       8.916   7.053  -0.054  0.00  0.00    +0.132 A 
ATOM      9  C   UNL     1      10.184   7.606  -0.064  0.00  0.00    +0.091 A 
ATOM     10  C   UNL     1      10.344   8.985  -0.053  0.00  0.00    +0.124 A 
ATOM     11  C   UNL     1       9.234   9.819  -0.032  0.00  0.00    +0.091 A 
ATOM     12  C   UNL     1       7.960   9.281  -0.028  0.00  0.00    +0.132 A 
BRANCH  12  13
ATOM     13  O   UNL     1       6.875  10.098  -0.013  0.00  0.00    -0.506 OA
ATOM     14  H   UNL     1       6.570  10.331   0.875  0.00  0.00    +0.292 HD
ENDBRANCH  12  13
BRANCH  10  15
ATOM     15  O   UNL     1      11.592   9.521  -0.062  0.00  0.00    -0.507 OA
ATOM     16  H   UNL     1      11.943   9.685  -0.948  0.00  0.00    +0.292 HD
ENDBRANCH  10  15
BRANCH   8  17
ATOM     17  O   UNL     1       8.762   5.704  -0.064  0.00  0.00    -0.506 OA
ATOM     18  H   UNL     1       8.707   5.321  -0.950  0.00  0.00    +0.292 HD
ENDBRANCH   8  17
ENDBRANCH   6   7
ENDBRANCH   3   5
BRANCH   1  19
ATOM     19  C   UNL     1       3.454   3.533  -0.013  0.00  0.00    +0.326 C 
BRANCH  19  20
ATOM     20  O   UNL     1       3.548   2.107  -0.021  0.00  0.00    -0.481 OA
BRANCH  20  23
ATOM     21  C   UNL     1      -0.017   1.379   0.010  0.00  0.00    +0.023 A 
ATOM     22  C   UNL     1       1.170   2.088   0.002  0.00  0.00    +0.048 A 
ATOM     23  C   UNL     1       2.380   1.411  -0.013  0.00  0.00    +0.140 A 
ATOM     24  C   UNL     1       2.398   0.023  -0.021  0.00  0.00    +0.084 A 
ATOM     25  C   UNL     1       1.209  -0.682  -0.013  0.00  0.00    +0.043 A 
ATOM     26  C   UNL     1       0.002  -0.004   0.002  0.00  0.00    +0.043 A 
ATOM     27 CL   UNL     1      -1.490  -0.891   0.012  0.00  0.00    -0.083 Cl
ATOM     28 CL   UNL     1       3.911  -0.827  -0.040  0.00  0.00    -0.080 Cl
ENDBRANCH  20  23
ENDBRANCH  19  20
ENDBRANCH   1  19
TORSDOF 8
