REMARK  Name = ZINC21977128
REMARK  8 active torsions:
REMARK  status: ('A' for Active; 'I' for Inactive)
REMARK    1  A    between atoms: C_1  and  C_2
REMARK    2  A    between atoms: C_2  and  C_4
REMARK    3  A    between atoms: C_2  and  O_13
REMARK    4  A    between atoms: N_9  and  C_10
REMARK    5  A    between atoms: O_13  and  C_14
REMARK    6  A    between atoms: C_14  and  C_16
REMARK    7  A    between atoms: C_20  and  N_21
REMARK    8  A    between atoms: C_22  and  C_24
REMARK                            x       y       z     vdW  Elec       q    Type
REMARK                         _______ _______ _______ _____ _____    ______ ____
ROOT
ATOM      1  C   UNL     1       3.796  -5.832   1.297  0.00  0.00    +0.343 C 
ATOM      2  O   UNL     1       2.790  -6.460   1.568  0.00  0.00    -0.245 OA
ENDROOT
BRANCH   1   3
ATOM      3  C   UNL     1       5.112  -6.367   1.656  0.00  0.00    +0.091 A 
ATOM      4  C   UNL     1       5.726  -6.058   2.937  0.00  0.00    -0.021 A 
ATOM      5  C   UNL     1       6.938  -6.619   3.143  0.00  0.00    -0.004 A 
ATOM      6  S   UNL     1       7.272  -7.532   1.664  0.00  0.00    -0.077 S 
ATOM      7  C   UNL     1       5.821  -7.182   0.784  0.00  0.00    +0.086 A 
ATOM      8  C   UNL     1       7.800  -6.483   4.359  0.00  0.00    +0.043 C 
ATOM      9  C   UNL     1       7.271  -5.312   5.200  0.00  0.00    +0.005 C 
ATOM     10  C   UNL     1       5.753  -5.457   5.346  0.00  0.00    +0.005 C 
ATOM     11  C   UNL     1       5.073  -5.187   4.002  0.00  0.00    +0.037 C 
BRANCH   7  12
ATOM     12  N   UNL     1       5.457  -7.611  -0.482  0.00  0.00    -0.280 N 
ATOM     13  C   UNL     1       6.284  -8.408  -1.188  0.00  0.00    +0.214 C 
ATOM     14  O   UNL     1       7.347  -8.750  -0.714  0.00  0.00    -0.276 OA
ATOM     15  C   UNL     1       5.888  -8.875  -2.565  0.00  0.00    +0.109 C 
ATOM     16  H   UNL     1       4.492  -7.302  -0.912  0.00  0.00    +0.155 HD
ENDBRANCH   7  12
ENDBRANCH   1   3
BRANCH   1  17
ATOM     17  O   UNL     1       3.701  -4.645   0.665  0.00  0.00    -0.449 OA
BRANCH  17  19
ATOM     18  C   UNL     1       1.972  -4.685  -1.050  0.00  0.00    +0.062 C 
ATOM     19  C   UNL     1       2.365  -4.177   0.339  0.00  0.00    +0.259 C 
BRANCH  19  20
ATOM     20  C   UNL     1       2.345  -2.670   0.347  0.00  0.00    +0.261 C 
ATOM     21  O   UNL     1       3.374  -2.051   0.513  0.00  0.00    -0.271 OA
ATOM     22  N   UNL     1       1.183  -2.011   0.171  0.00  0.00    -0.237 N 
ATOM     23  C   UNL     1       1.164  -0.663   0.178  0.00  0.00    +0.306 C 
ATOM     24  O   UNL     1       2.196  -0.042   0.344  0.00  0.00    -0.252 OA
ATOM     25  N   UNL     1       0.002  -0.004   0.002  0.00  0.00    -0.296 N 
ATOM     26  H   UNL     1       0.249  -2.573   0.021  0.00  0.00    +0.159 HD
ATOM     27  H   UNL     1      -0.932  -0.566  -0.148  0.00  0.00    +0.151 HD
BRANCH  25  28
ATOM     28  C   UNL     1      -0.018   1.461   0.010  0.00  0.00    +0.075 C 
ATOM     29  C   UNL     1      -1.141   2.148   0.790  0.00  0.00    +0.024 C 
ATOM     30  C   UNL     1      -1.155   2.156  -0.741  0.00  0.00    +0.024 C 
ENDBRANCH  25  28
ENDBRANCH  19  20
ENDBRANCH  17  19
ENDBRANCH   1  17
TORSDOF 6
