REMARK  Name = ZINC27803126
REMARK  5 active torsions:
REMARK  status: ('A' for Active; 'I' for Inactive)
REMARK    1  A    between atoms: C_1  and  C_2
REMARK    2  A    between atoms: C_4  and  C_14
REMARK    3  A    between atoms: N_16  and  N_17
REMARK    4  A    between atoms: C_18  and  C_20
REMARK    5  A    between atoms: C_20  and  C_21
REMARK                            x       y       z     vdW  Elec       q    Type
REMARK                         _______ _______ _______ _____ _____    ______ ____
ROOT
ATOM      1  C   UNL     1       1.581  -1.193   1.725  0.00  0.00    +0.274 C 
ATOM      2  O   UNL     1       0.940  -0.686   2.620  0.00  0.00    -0.270 OA
ATOM      3  N   UNL     1       2.591  -2.037   2.014  0.00  0.00    -0.231 N 
ATOM      4  H   UNL     1       3.224  -2.435   1.206  0.00  0.00    +0.173 HD
ENDROOT
BRANCH   1   7
ATOM      5  C   UNL     1       3.690  -0.675  -0.240  0.00  0.00    +0.056 C 
ATOM      6  C   UNL     1       2.334   0.029  -0.307  0.00  0.00    +0.220 C 
ATOM      7  C   UNL     1       1.249  -0.878   0.289  0.00  0.00    +0.300 C 
ATOM      8  O   UNL     1      -0.002  -0.185   0.223  0.00  0.00    -0.472 OA
ATOM      9  C   UNL     1      -0.004   1.113   0.630  0.00  0.00    +0.163 A 
ATOM     10  C   UNL     1      -1.210   1.731   0.927  0.00  0.00    +0.049 A 
ATOM     11  C   UNL     1      -1.228   3.049   1.344  0.00  0.00    +0.004 A 
ATOM     12  C   UNL     1      -0.046   3.757   1.457  0.00  0.00    +0.004 A 
ATOM     13  C   UNL     1       1.158   3.148   1.160  0.00  0.00    +0.049 A 
ATOM     14  C   UNL     1       1.184   1.824   0.747  0.00  0.00    +0.163 A 
ATOM     15  O   UNL     1       2.378   1.237   0.460  0.00  0.00    -0.481 OA
ENDBRANCH   1   7
BRANCH   3  16
ATOM     16  N   UNL     1       2.835  -2.408   3.342  0.00  0.00    -0.234 N 
ATOM     17  C   UNL     1       3.845  -3.253   3.631  0.00  0.00    +0.230 C 
ATOM     18  O   UNL     1       4.542  -3.691   2.741  0.00  0.00    -0.274 OA
ATOM     19  H   UNL     1       2.203  -2.010   4.150  0.00  0.00    +0.173 HD
BRANCH  17  20
ATOM     20  C   UNL     1       4.108  -3.652   5.061  0.00  0.00    +0.104 C 
BRANCH  20  21
ATOM     21  C   UNL     1       5.300  -4.610   5.112  0.00  0.00    -0.020 C 
ATOM     22  C   UNL     1       4.987  -5.858   4.283  0.00  0.00    +0.011 C 
ATOM     23  C   UNL     1       6.179  -6.816   4.334  0.00  0.00    -0.010 C 
ATOM     24  C   UNL     1       6.445  -7.221   5.785  0.00  0.00    +0.007 C 
ATOM     25  C   UNL     1       6.758  -5.974   6.614  0.00  0.00    -0.010 C 
ATOM     26  C   UNL     1       5.566  -5.016   6.563  0.00  0.00    +0.011 C 
ATOM     27  C   UNL     1       7.996  -5.279   6.043  0.00  0.00    +0.007 C 
ATOM     28  C   UNL     1       7.729  -4.874   4.591  0.00  0.00    -0.010 C 
ATOM     29  C   UNL     1       7.416  -6.121   3.763  0.00  0.00    +0.007 C 
ATOM     30  C   UNL     1       6.537  -3.916   4.540  0.00  0.00    +0.011 C 
ENDBRANCH  20  21
ENDBRANCH  17  20
ENDBRANCH   3  16
TORSDOF 4
