REMARK  Name = ZINC12704506
REMARK  10 active torsions:
REMARK  status: ('A' for Active; 'I' for Inactive)
REMARK    1  A    between atoms: C_1  and  C_2
REMARK    2  A    between atoms: C_2  and  N_67
REMARK    3  A    between atoms: C_6  and  C_8
REMARK    4  A    between atoms: C_8  and  N_9
REMARK    5  A    between atoms: N_9  and  C_10
REMARK    6  A    between atoms: C_10  and  C_11
REMARK    7  A    between atoms: C_16  and  C_24
REMARK    8  A    between atoms: C_17  and  C_23
REMARK    9  A    between atoms: N_27  and  C_28
REMARK   10  A    between atoms: C_28  and  C_29
REMARK                            x       y       z     vdW  Elec       q    Type
REMARK                         _______ _______ _______ _____ _____    ______ ____
ROOT
ATOM      1  N   UNL     1      -2.448  -0.175  -0.183  0.00  0.00    -0.283 N 
ATOM      2  C   UNL     1      -3.017  -0.741  -1.266  0.00  0.00    +0.303 C 
ATOM      3  O   UNL     1      -3.848  -0.127  -1.907  0.00  0.00    -0.253 OA
ATOM      4  N   UNL     1      -2.663  -1.987  -1.639  0.00  0.00    -0.295 N 
ATOM      5  H   UNL     1      -2.000  -2.476  -1.128  0.00  0.00    +0.151 HD
ENDROOT
BRANCH   1   6
ATOM      6  C   UNL     1      -1.446  -0.914   0.589  0.00  0.00    +0.094 C 
BRANCH   6  10
ATOM      7  C   UNL     1      -3.465  -3.393   2.442  0.00  0.00    -0.078 C 
ATOM      8  C   UNL     1      -2.038  -3.772   2.892  0.00  0.00    -0.020 C 
ATOM      9  C   UNL     1      -1.153  -2.584   2.461  0.00  0.00    -0.016 C 
ATOM     10  C   UNL     1      -2.120  -1.588   1.786  0.00  0.00    -0.051 C 
ATOM     11  N   UNL     1      -3.237  -2.428   1.361  0.00  0.00    +0.382 N 
ATOM     12  H   UNL     1      -2.994  -2.921   0.494  0.00  0.00    -0.081 HD
BRANCH  11  14
ATOM     13  C   UNL     1      -5.504  -2.410   0.348  0.00  0.00    -0.017 C 
ATOM     14  C   UNL     1      -4.464  -1.603   1.128  0.00  0.00    -0.082 C 
ENDBRANCH  11  14
ENDBRANCH   6  10
ENDBRANCH   1   6
BRANCH   1  15
ATOM     15  C   UNL     1      -2.832   1.180   0.222  0.00  0.00    +0.149 C 
BRANCH  15  16
ATOM     16  C   UNL     1      -1.892   2.177  -0.404  0.00  0.00    +0.035 A 
ATOM     17  C   UNL     1      -2.222   2.772  -1.577  0.00  0.00    +0.020 A 
ATOM     18  C   UNL     1      -1.286   3.737  -2.159  0.00  0.00    -0.001 A 
ATOM     19  C   UNL     1      -1.572   4.383  -3.366  0.00  0.00    +0.010 A 
ATOM     20  C   UNL     1      -0.678   5.277  -3.883  0.00  0.00    +0.004 A 
ATOM     21  C   UNL     1       0.511   5.551  -3.220  0.00  0.00    -0.046 A 
ATOM     22  C   UNL     1       0.813   4.926  -2.030  0.00  0.00    -0.024 A 
ATOM     23  C   UNL     1      -0.082   4.011  -1.484  0.00  0.00    +0.052 A 
ATOM     24  N   UNL     1       0.194   3.372  -0.294  0.00  0.00    -0.322 N 
ATOM     25  H   UNL     1       1.025   3.563   0.169  0.00  0.00    +0.169 HD
ATOM     26  C   UNL     1      -0.673   2.492   0.235  0.00  0.00    +0.254 A 
ATOM     27  O   UNL     1      -0.399   1.949   1.291  0.00  0.00    -0.268 OA
ATOM     28  C   UNL     1       2.107   5.233  -1.321  0.00  0.00    +0.046 C 
ATOM     29  C   UNL     1       1.482   6.542  -3.810  0.00  0.00    +0.044 C 
ENDBRANCH  15  16
ENDBRANCH   1  15
BRANCH   4  30
ATOM     30  C   UNL     1      -3.281  -2.602  -2.816  0.00  0.00    +0.141 C 
BRANCH  30  31
ATOM     31  C   UNL     1      -2.717  -3.985  -3.014  0.00  0.00    -0.030 A 
ATOM     32  C   UNL     1      -1.595  -4.168  -3.801  0.00  0.00    +0.005 A 
ATOM     33  C   UNL     1      -1.076  -5.436  -3.980  0.00  0.00    +0.000 A 
ATOM     34  C   UNL     1      -1.683  -6.523  -3.379  0.00  0.00    +0.000 A 
ATOM     35  C   UNL     1      -2.808  -6.341  -2.596  0.00  0.00    +0.000 A 
ATOM     36  C   UNL     1      -3.325  -5.072  -2.414  0.00  0.00    +0.005 A 
ENDBRANCH  30  31
ENDBRANCH   4  30
TORSDOF 7
