REMARK  Name = ZINC36141315
REMARK  7 active torsions:
REMARK  status: ('A' for Active; 'I' for Inactive)
REMARK    1  A    between atoms: C_1  and  C_2
REMARK    2  A    between atoms: C_5  and  C_27
REMARK    3  A    between atoms: C_6  and  N_8
REMARK    4  A    between atoms: C_9  and  C_11
REMARK    5  A    between atoms: C_13  and  C_19
REMARK    6  A    between atoms: C_22  and  O_25
REMARK    7  A    between atoms: O_25  and  C_26
REMARK                            x       y       z     vdW  Elec       q    Type
REMARK                         _______ _______ _______ _____ _____    ______ ____
ROOT
ATOM      1  C   UNL     1       0.278  -2.890   4.835  0.00  0.00    +0.133 A 
ATOM      2  C   UNL     1       0.374  -2.205   6.050  0.00  0.00    +0.059 A 
ATOM      3  C   UNL     1       0.493  -2.940   7.223  0.00  0.00    +0.053 A 
ATOM      4  N   UNL     1       0.512  -4.306   7.146  0.00  0.00    -0.306 N 
ATOM      5  H   UNL     1       0.594  -4.835   7.955  0.00  0.00    +0.170 HD
ATOM      6  C   UNL     1       0.415  -4.916   5.951  0.00  0.00    +0.347 A 
ATOM      7  O   UNL     1       0.433  -6.134   5.899  0.00  0.00    -0.245 OA
ATOM      8  N   UNL     1       0.296  -4.217   4.823  0.00  0.00    -0.188 NA
ENDROOT
BRANCH   3   9
ATOM      9  C   UNL     1       0.598  -2.260   8.527  0.00  0.00    -0.001 A 
ATOM     10  C   UNL     1       0.573  -0.863   8.594  0.00  0.00    +0.013 A 
ATOM     11  C   UNL     1       0.671  -0.233   9.814  0.00  0.00    +0.046 A 
ATOM     12  C   UNL     1       0.795  -0.983  10.978  0.00  0.00    +0.120 A 
ATOM     13  C   UNL     1       0.821  -2.371  10.916  0.00  0.00    +0.046 A 
ATOM     14  C   UNL     1       0.718  -3.010   9.701  0.00  0.00    +0.013 A 
BRANCH  12  15
ATOM     15  O   UNL     1       0.892  -0.357  12.179  0.00  0.00    -0.495 OA
ATOM     16  C   UNL     1       1.018  -1.187  13.335  0.00  0.00    +0.277 C 
ENDBRANCH  12  15
ENDBRANCH   3   9
BRANCH   1  18
ATOM     17  N   UNL     1       0.051  -2.797   2.391  0.00  0.00    -0.280 N 
ATOM     18  C   UNL     1       0.150  -2.134   3.561  0.00  0.00    +0.267 C 
ATOM     19  O   UNL     1       0.133  -0.920   3.574  0.00  0.00    -0.268 OA
ATOM     20  H   UNL     1      -0.016  -3.765   2.386  0.00  0.00    +0.155 HD
BRANCH  17  26
ATOM     21  C   UNL     1       1.263   1.227  -0.158  0.00  0.00    +0.044 C 
ATOM     22  C   UNL     1       0.627  -0.137  -0.079  0.00  0.00    -0.049 A 
ATOM     23  C   UNL     1       0.038  -0.691  -1.202  0.00  0.00    +0.004 A 
ATOM     24  C   UNL     1      -0.546  -1.942  -1.134  0.00  0.00    +0.005 A 
ATOM     25  C   UNL     1      -0.543  -2.643   0.056  0.00  0.00    -0.029 A 
ATOM     26  C   UNL     1       0.047  -2.090   1.185  0.00  0.00    +0.037 A 
ATOM     27  C   UNL     1       0.638  -0.835   1.112  0.00  0.00    +0.027 A 
ATOM     28  C   UNL     1      -1.181  -4.007   0.130  0.00  0.00    +0.045 C 
ENDBRANCH  17  26
ENDBRANCH   1  18
TORSDOF 4
