REMARK  Name = ZINC43773292
REMARK  7 active torsions:
REMARK  status: ('A' for Active; 'I' for Inactive)
REMARK    1  A    between atoms: C_1  and  O_2
REMARK    2  A    between atoms: O_2  and  C_3
REMARK    3  A    between atoms: C_5  and  C_11
REMARK    4  A    between atoms: C_7  and  O_9
REMARK    5  A    between atoms: O_9  and  C_10
REMARK    6  A    between atoms: C_12  and  C_13
REMARK    7  A    between atoms: N_15  and  C_16
REMARK                            x       y       z     vdW  Elec       q    Type
REMARK                         _______ _______ _______ _____ _____    ______ ____
ROOT
ATOM      1  C   UNL     1      -3.808  -6.229   0.019  0.00  0.00    +0.241 C 
ATOM      2  O   UNL     1      -2.780  -6.881   0.017  0.00  0.00    -0.270 OA
ATOM      3  N   UNL     1      -5.002  -6.854   0.030  0.00  0.00    -0.281 N 
ATOM      4  H   UNL     1      -5.819  -6.337   0.112  0.00  0.00    +0.155 HD
ENDROOT
BRANCH   3   5
ATOM      5  C   UNL     1      -5.063  -8.248  -0.077  0.00  0.00    +0.056 A 
ATOM      6  C   UNL     1      -4.030  -8.943  -0.693  0.00  0.00    +0.072 A 
ATOM      7  C   UNL     1      -4.093 -10.320  -0.797  0.00  0.00    +0.144 A 
ATOM      8  C   UNL     1      -5.193 -11.008  -0.286  0.00  0.00    +0.077 A 
ATOM      9  C   UNL     1      -6.222 -10.313   0.328  0.00  0.00    +0.048 A 
ATOM     10  C   UNL     1      -6.156  -8.936   0.437  0.00  0.00    +0.064 A 
ATOM     11 CL   UNL     1      -7.442  -8.065   1.212  0.00  0.00    -0.082 Cl
ATOM     12  N   UNL     1      -5.242 -12.406  -0.402  0.00  0.00    -0.280 N 
ATOM     13  C   UNL     1      -4.111 -13.078  -0.710  0.00  0.00    +0.255 C 
ATOM     14  O   UNL     1      -4.136 -14.283  -0.845  0.00  0.00    -0.272 OA
ATOM     15  C   UNL     1      -2.818 -12.323  -0.884  0.00  0.00    +0.325 C 
ATOM     16  O   UNL     1      -3.089 -11.016  -1.396  0.00  0.00    -0.481 OA
ATOM     17  H   UNL     1      -6.075 -12.883  -0.263  0.00  0.00    +0.155 HD
ENDBRANCH   3   5
BRANCH   1  19
ATOM     18  C   UNL     1      -2.552  -4.141  -0.002  0.00  0.00    +0.013 C 
ATOM     19  C   UNL     1      -3.747  -4.766   0.009  0.00  0.00    +0.068 C 
BRANCH  18  22
ATOM     20  C   UNL     1      -1.202  -0.637  -0.033  0.00  0.00    +0.124 A 
ATOM     21  C   UNL     1      -1.254  -2.020  -0.023  0.00  0.00    +0.053 A 
ATOM     22  C   UNL     1      -2.491  -2.671  -0.012  0.00  0.00    -0.018 A 
ATOM     23  C   UNL     1      -3.670  -1.919  -0.011  0.00  0.00    +0.053 A 
ATOM     24  C   UNL     1      -3.606  -0.537  -0.020  0.00  0.00    +0.124 A 
ATOM     25  C   UNL     1      -2.375   0.104  -0.026  0.00  0.00    +0.091 A 
BRANCH  20  27
ATOM     26  C   UNL     1      -0.019   1.426  -0.048  0.00  0.00    +0.277 C 
ATOM     27  O   UNL     1       0.000  -0.003  -0.044  0.00  0.00    -0.495 OA
ENDBRANCH  20  27
BRANCH  24  28
ATOM     28  O   UNL     1      -4.752   0.195  -0.019  0.00  0.00    -0.495 OA
ATOM     29  C   UNL     1      -4.613   1.617  -0.029  0.00  0.00    +0.277 C 
ENDBRANCH  24  28
ENDBRANCH  18  22
ENDBRANCH   1  19
TORSDOF 5
