REMARK  Name = ZINC39683640
REMARK  9 active torsions:
REMARK  status: ('A' for Active; 'I' for Inactive)
REMARK    1  A    between atoms: C_1  and  C_2
REMARK    2  A    between atoms: C_2  and  C_3
REMARK    3  A    between atoms: C_3  and  C_4
REMARK    4  A    between atoms: C_4  and  C_6
REMARK    5  A    between atoms: C_4  and  C_7
REMARK    6  A    between atoms: C_11  and  C_20
REMARK    7  A    between atoms: N_22  and  C_23
REMARK    8  A    between atoms: C_23  and  C_24
REMARK    9  A    between atoms: C_24  and  C_25
REMARK                            x       y       z     vdW  Elec       q    Type
REMARK                         _______ _______ _______ _____ _____    ______ ____
ROOT
ATOM      1  C   UNL     1      -2.539  -2.615  -0.001  0.00  0.00    +0.218 C 
ATOM      2  O   UNL     1      -3.404  -1.767   0.051  0.00  0.00    -0.275 OA
ATOM      3  N   UNL     1      -2.869  -3.920   0.065  0.00  0.00    -0.300 N 
ATOM      4  C   UNL     1      -1.961  -5.090   0.025  0.00  0.00    +0.121 C 
ATOM      5  C   UNL     1      -2.552  -6.079   1.054  0.00  0.00    +0.100 C 
ATOM      6  C   UNL     1      -4.037  -5.694   1.161  0.00  0.00    -0.004 C 
ATOM      7  C   UNL     1      -4.223  -4.509   0.202  0.00  0.00    +0.115 C 
ATOM      8  C   UNL     1      -4.372  -5.268   2.587  0.00  0.00    -0.010 C 
ATOM      9  C   UNL     1      -5.865  -4.945   2.681  0.00  0.00    -0.082 C 
ATOM     10  N   UNL     1      -6.649  -6.128   2.305  0.00  0.00    +0.379 N 
ATOM     11  C   UNL     1      -6.390  -6.476   0.903  0.00  0.00    -0.082 C 
ATOM     12  C   UNL     1      -4.918  -6.864   0.734  0.00  0.00    -0.010 C 
ATOM     13  H   UNL     1      -6.388  -6.904   2.896  0.00  0.00    -0.086 HD
ATOM     14  H   UNL     1      -7.631  -5.932   2.426  0.00  0.00    -0.086 HD
ENDROOT
BRANCH   5  15
ATOM     15  C   UNL     1      -1.869  -5.919   2.388  0.00  0.00    +0.218 C 
ATOM     16  O   UNL     1      -1.428  -4.838   2.717  0.00  0.00    -0.275 OA
ATOM     17  N   UNL     1      -1.748  -6.976   3.215  0.00  0.00    -0.315 N 
ATOM     18  H   UNL     1      -2.101  -7.840   2.952  0.00  0.00    +0.149 HD
BRANCH  17  19
ATOM     19  C   UNL     1      -1.085  -6.820   4.511  0.00  0.00    +0.109 C 
BRANCH  19  20
ATOM     20  C   UNL     1      -1.082  -8.161   5.248  0.00  0.00    +0.055 C 
BRANCH  20  21
ATOM     21  C   UNL     1      -0.399  -8.001   6.582  0.00  0.00    -0.032 A 
ATOM     22  C   UNL     1       0.945  -8.296   6.710  0.00  0.00    +0.005 A 
ATOM     23  C   UNL     1       1.572  -8.149   7.933  0.00  0.00    +0.000 A 
ATOM     24  C   UNL     1       0.855  -7.705   9.029  0.00  0.00    +0.001 A 
ATOM     25  C   UNL     1      -0.489  -7.409   8.901  0.00  0.00    +0.015 A 
ATOM     26  C   UNL     1      -1.116  -7.552   7.676  0.00  0.00    +0.021 A 
ATOM     27 BR   UNL     1      -2.953  -7.141   7.499  0.00  0.00    -0.050 Br
ENDBRANCH  20  21
ENDBRANCH  19  20
ENDBRANCH  17  19
ENDBRANCH   5  15
BRANCH   1  28
ATOM     28  C   UNL     1      -1.094  -2.210  -0.141  0.00  0.00    +0.072 C 
ATOM     29  C   UNL     1      -0.520  -2.802  -1.429  0.00  0.00    +0.017 C 
BRANCH  28  30
ATOM     30  C   UNL     1      -0.995  -0.684  -0.193  0.00  0.00    +0.012 C 
BRANCH  30  32
ATOM     31  C   UNL     1       0.576   1.258  -0.262  0.00  0.00    +0.004 C 
ATOM     32  C   UNL     1       0.477  -0.268  -0.209  0.00  0.00    -0.003 C 
ENDBRANCH  30  32
ENDBRANCH  28  30
ENDBRANCH   1  28
TORSDOF 7
