REMARK  Name = ZINC43667370
REMARK  4 active torsions:
REMARK  status: ('A' for Active; 'I' for Inactive)
REMARK    1  A    between atoms: C_1  and  C_2
REMARK    2  A    between atoms: C_4  and  N_16
REMARK    3  A    between atoms: N_5  and  C_7
REMARK    4  A    between atoms: C_12  and  C_15
REMARK                            x       y       z     vdW  Elec       q    Type
REMARK                         _______ _______ _______ _____ _____    ______ ____
ROOT
ATOM      1  C   UNL     1      -0.018   1.503   0.010  0.00  0.00    +0.069 C 
ATOM      2  C   UNL     1       0.002  -0.004   0.002  0.00  0.00    +0.080 A 
ATOM      3  C   UNL     1       0.008  -0.815  -1.136  0.00  0.00    +0.103 A 
ATOM      4  C   UNL     1       0.027  -2.113  -0.724  0.00  0.00    +0.133 A 
ATOM      5  N   UNL     1       0.034  -2.109   0.634  0.00  0.00    -0.246 N 
ATOM      6  N   UNL     1       0.023  -0.775   1.059  0.00  0.00    -0.173 NA
ATOM      7 CL   UNL     1      -0.008  -0.266  -2.783  0.00  0.00    -0.078 Cl
ENDROOT
BRANCH   5   8
ATOM      8  C   UNL     1       0.053  -3.291   1.500  0.00  0.00    +0.109 C 
ATOM      9  C   UNL     1       1.306  -3.259   2.378  0.00  0.00    +0.027 C 
ATOM     10  C   UNL     1       1.293  -1.995   3.240  0.00  0.00    +0.002 C 
ATOM     11  C   UNL     1       0.048  -1.996   4.129  0.00  0.00    +0.003 C 
ATOM     12  C   UNL     1      -1.205  -2.029   3.251  0.00  0.00    -0.012 C 
ATOM     13  C   UNL     1      -1.192  -3.293   2.389  0.00  0.00    +0.030 C 
ATOM     14  C   UNL     1      -2.450  -2.030   4.140  0.00  0.00    +0.007 C 
ENDBRANCH   5   8
BRANCH   4  15
ATOM     15  N   UNL     1       0.039  -3.238  -1.545  0.00  0.00    -0.342 N 
ATOM     16  H   UNL     1       0.033  -3.135  -2.510  0.00  0.00    +0.144 HD
ATOM     17  H   UNL     1       0.052  -4.125  -1.153  0.00  0.00    +0.144 HD
ENDBRANCH   4  15
TORSDOF 2
