REMARK  Name = ZINC16998558
REMARK  3 active torsions:
REMARK  status: ('A' for Active; 'I' for Inactive)
REMARK    1  A    between atoms: C_1  and  C_2
REMARK    2  A    between atoms: C_2  and  C_15
REMARK    3  A    between atoms: N_4  and  O_5
REMARK                            x       y       z     vdW  Elec       q    Type
REMARK                         _______ _______ _______ _____ _____    ______ ____
ROOT
ATOM      1  C   UNL     1      -1.597   2.275  -3.659  0.00  0.00    +0.022 C 
ATOM      2  C   UNL     1      -2.158   3.080  -2.486  0.00  0.00    +0.028 C 
ATOM      3  C   UNL     1      -1.899   4.556  -2.705  0.00  0.00    +0.067 C 
ATOM      4  N   UNL     1      -1.530   4.997  -3.848  0.00  0.00    -0.096 NA
ATOM      5  C   UNL     1      -2.088   5.494  -1.533  0.00  0.00    +0.055 C 
ATOM      6  C   UNL     1      -1.228   5.005  -0.365  0.00  0.00    +0.014 C 
ATOM      7  C   UNL     1      -1.619   3.569  -0.002  0.00  0.00    +0.016 C 
ATOM      8  C   UNL     1      -1.453   2.679  -1.199  0.00  0.00    -0.059 C 
ATOM      9  C   UNL     1      -0.746   1.587  -1.204  0.00  0.00    -0.026 C 
ATOM     10  C   UNL     1      -0.013   1.086   0.008  0.00  0.00    +0.027 C 
ATOM     11  C   UNL     1      -0.737   1.584   1.264  0.00  0.00    +0.005 C 
ATOM     12  C   UNL     1      -0.813   3.108   1.201  0.00  0.00    +0.008 C 
ATOM     13  C   UNL     1      -3.662   2.831  -2.354  0.00  0.00    +0.022 C 
ENDROOT
BRANCH   4  14
ATOM     14  O   UNL     1      -1.293   6.381  -4.029  0.00  0.00    -0.409 OA
ATOM     15  H   UNL     1      -0.976   6.761  -5.012  0.00  0.00    +0.328 HD
ENDBRANCH   4  14
TORSDOF 1
