REMARK  Name = ZINC13464711
REMARK  4 active torsions:
REMARK  status: ('A' for Active; 'I' for Inactive)
REMARK    1  A    between atoms: C_3  and  N_10
REMARK    2  A    between atoms: C_4  and  C_8
REMARK    3  A    between atoms: N_10  and  S_11
REMARK    4  A    between atoms: S_11  and  C_14
REMARK                            x       y       z     vdW  Elec       q    Type
REMARK                         _______ _______ _______ _____ _____    ______ ____
ROOT
ATOM      1  N   UNL     1      -2.420   1.045   0.019  0.00  0.00    -0.215 N 
ATOM      2  H   UNL     1      -3.163   1.367  -0.515  0.00  0.00    +0.174 HD
ENDROOT
BRANCH   1   5
ATOM      3  C   UNL     1       1.086   2.046   0.417  0.00  0.00    +0.016 A 
ATOM      4  C   UNL     1      -0.033   1.256   0.254  0.00  0.00    +0.026 A 
ATOM      5  C   UNL     1      -1.293   1.838   0.189  0.00  0.00    +0.062 A 
ATOM      6  C   UNL     1      -1.420   3.232   0.302  0.00  0.00    +0.086 A 
ATOM      7  C   UNL     1      -0.277   4.018   0.467  0.00  0.00    +0.031 A 
ATOM      8  C   UNL     1       0.965   3.423   0.523  0.00  0.00    +0.014 A 
ATOM      9  I   UNL     1       2.677   4.604   0.771  0.00  0.00    -0.044 I 
BRANCH   6  10
ATOM     10  C   UNL     1      -2.750   3.862   0.240  0.00  0.00    +0.388 C 
ATOM     11  O   UNL     1      -3.742   3.175   0.097  0.00  0.00    -0.241 OA
ATOM     12  O   UNL     1      -2.867   5.200   0.343  0.00  0.00    -0.241 OA
ENDBRANCH   6  10
ENDBRANCH   1   5
BRANCH   1  13
ATOM     13  S   UNL     1      -2.496  -0.449   0.728  0.00  0.00    +0.079 S 
ATOM     14  O   UNL     1      -3.805  -0.946   0.487  0.00  0.00    -0.149 OA
ATOM     15  O   UNL     1      -1.329  -1.151   0.322  0.00  0.00    -0.149 OA
BRANCH  13  16
ATOM     16  C   UNL     1      -2.360  -0.208   2.468  0.00  0.00    +0.147 A 
ATOM     17  C   UNL     1      -3.341  -0.005   3.380  0.00  0.00    +0.038 A 
ATOM     18  C   UNL     1      -2.998   0.161   4.709  0.00  0.00    +0.030 A 
ATOM     19  C   UNL     1      -1.688   0.116   5.059  0.00  0.00    +0.080 A 
ATOM     20  S   UNL     1      -0.895  -0.176   3.487  0.00  0.00    -0.057 S 
ATOM     21 CL   UNL     1      -0.970   0.289   6.631  0.00  0.00    -0.076 Cl
ENDBRANCH  13  16
ENDBRANCH   1  13
TORSDOF 4
