REMARK  Name = ZINC16145642
REMARK  10 active torsions:
REMARK  status: ('A' for Active; 'I' for Inactive)
REMARK    1  A    between atoms: C_1  and  C_2
REMARK    2  A    between atoms: C_4  and  S_24
REMARK    3  A    between atoms: C_6  and  N_9
REMARK    4  A    between atoms: C_7  and  C_8
REMARK    5  A    between atoms: C_10  and  C_12
REMARK    6  A    between atoms: C_18  and  C_23
REMARK    7  A    between atoms: C_19  and  C_22
REMARK    8  A    between atoms: S_24  and  N_27
REMARK    9  A    between atoms: N_27  and  C_28
REMARK   10  A    between atoms: N_27  and  C_29
REMARK                            x       y       z     vdW  Elec       q    Type
REMARK                         _______ _______ _______ _____ _____    ______ ____
ROOT
ATOM      1  N   UNL     1       0.052  -2.797   2.392  0.00  0.00    -0.281 N 
ATOM      2  C   UNL     1       0.562  -4.044   2.435  0.00  0.00    +0.248 C 
ATOM      3  O   UNL     1       1.092  -4.519   1.449  0.00  0.00    -0.270 OA
ATOM      4  H   UNL     1      -0.298  -2.388   3.199  0.00  0.00    +0.155 HD
ENDROOT
BRANCH   2   5
ATOM      5  C   UNL     1       0.479  -4.833   3.680  0.00  0.00    +0.038 A 
ATOM      6  C   UNL     1      -0.137  -4.287   4.815  0.00  0.00    +0.015 A 
ATOM      7  C   UNL     1      -0.222  -5.003   5.972  0.00  0.00    +0.027 A 
ATOM      8  C   UNL     1       0.304  -6.292   6.040  0.00  0.00    +0.047 A 
ATOM      9  C   UNL     1       0.925  -6.852   4.906  0.00  0.00    +0.004 A 
ATOM     10  C   UNL     1       1.006  -6.120   3.724  0.00  0.00    +0.023 A 
ATOM     11  C   UNL     1       1.362  -8.193   5.304  0.00  0.00    -0.022 A 
ATOM     12  C   UNL     1       1.000  -8.357   6.586  0.00  0.00    +0.017 A 
ATOM     13  N   UNL     1       0.367  -7.232   7.040  0.00  0.00    -0.358 N 
ATOM     14  H   UNL     1       0.015  -7.115   7.936  0.00  0.00    +0.166 HD
ATOM     15  C   UNL     1       1.252  -9.598   7.404  0.00  0.00    +0.063 C 
ATOM     16  C   UNL     1       2.081  -9.196   4.439  0.00  0.00    +0.046 C 
ENDBRANCH   2   5
BRANCH   1  22
ATOM     17  C   UNL     1      -0.044   1.494  -0.004  0.00  0.00    +0.044 C 
ATOM     18  C   UNL     1      -0.021  -0.013  -0.007  0.00  0.00    -0.044 A 
ATOM     19  C   UNL     1      -0.024  -0.701  -1.207  0.00  0.00    +0.032 A 
ATOM     20  C   UNL     1      -0.003  -2.083  -1.214  0.00  0.00    +0.107 A 
ATOM     21  C   UNL     1       0.023  -2.781  -0.023  0.00  0.00    +0.052 A 
ATOM     22  C   UNL     1       0.027  -2.093   1.184  0.00  0.00    +0.039 A 
ATOM     23  C   UNL     1       0.010  -0.704   1.188  0.00  0.00    -0.026 A 
ATOM     24  C   UNL     1       0.020   0.047   2.494  0.00  0.00    +0.046 C 
BRANCH  20  25
ATOM     25  S   UNL     1      -0.008  -2.955  -2.745  0.00  0.00    +0.060 S 
ATOM     26  O   UNL     1      -0.535  -4.247  -2.475  0.00  0.00    -0.153 OA
ATOM     27  O   UNL     1      -0.585  -2.083  -3.707  0.00  0.00    -0.153 OA
BRANCH  25  28
ATOM     28  N   UNL     1       1.572  -3.173  -3.190  0.00  0.00    -0.183 NA
ATOM     29  C   UNL     1       2.296  -4.371  -2.760  0.00  0.00    +0.131 C 
ATOM     30  C   UNL     1       2.246  -2.167  -4.015  0.00  0.00    +0.131 C 
ENDBRANCH  25  28
ENDBRANCH  20  25
ENDBRANCH   1  22
TORSDOF 4
