REMARK  Name = ZINC11363795
REMARK  5 active torsions:
REMARK  status: ('A' for Active; 'I' for Inactive)
REMARK    1  A    between atoms: N_9  and  C_25
REMARK    2  A    between atoms: C_10  and  S_12
REMARK    3  A    between atoms: S_12  and  C_13
REMARK    4  A    between atoms: C_13  and  C_14
REMARK    5  A    between atoms: C_25  and  C_26
REMARK                            x       y       z     vdW  Elec       q    Type
REMARK                         _______ _______ _______ _____ _____    ______ ____
ROOT
ATOM      1  C   UNL     1      -1.572   4.771  -4.653  0.00  0.00    +0.001 A 
ATOM      2  C   UNL     1      -2.574   3.945  -5.146  0.00  0.00    +0.002 A 
ATOM      3  C   UNL     1      -2.864   2.753  -4.543  0.00  0.00    +0.028 A 
ATOM      4  C   UNL     1      -2.143   2.357  -3.413  0.00  0.00    +0.079 A 
ATOM      5  C   UNL     1      -1.124   3.200  -2.914  0.00  0.00    +0.065 A 
ATOM      6  C   UNL     1      -0.851   4.411  -3.549  0.00  0.00    +0.015 A 
ATOM      7  C   UNL     1      -0.381   2.762  -1.724  0.00  0.00    +0.262 A 
ATOM      8  O   UNL     1       0.507   3.445  -1.248  0.00  0.00    -0.267 OA
ATOM      9  N   UNL     1      -0.721   1.571  -1.179  0.00  0.00    -0.285 N 
ATOM     10  C   UNL     1      -1.717   0.816  -1.730  0.00  0.00    +0.173 A 
ATOM     11  N   UNL     1      -2.396   1.190  -2.787  0.00  0.00    -0.223 NA
ENDROOT
BRANCH  10  12
ATOM     12  S   UNL     1      -2.111  -0.730  -0.982  0.00  0.00    -0.080 S 
BRANCH  12  13
ATOM     13  C   UNL     1      -3.443  -1.278  -2.078  0.00  0.00    +0.151 C 
BRANCH  13  14
ATOM     14  C   UNL     1      -3.951  -2.620  -1.618  0.00  0.00    +0.121 A 
ATOM     15  N   UNL     1      -4.960  -3.204  -2.317  0.00  0.00    -0.309 N 
ATOM     16  H   UNL     1      -5.338  -2.761  -3.093  0.00  0.00    +0.170 HD
ATOM     17  C   UNL     1      -5.431  -4.411  -1.921  0.00  0.00    +0.266 A 
ATOM     18  O   UNL     1      -6.336  -4.960  -2.527  0.00  0.00    -0.267 OA
ATOM     19  C   UNL     1      -4.854  -5.006  -0.799  0.00  0.00    +0.102 A 
ATOM     20  C   UNL     1      -3.811  -4.381  -0.093  0.00  0.00    +0.085 A 
ATOM     21  N   UNL     1      -3.402  -3.163  -0.579  0.00  0.00    -0.232 NA
ATOM     22  C   UNL     1      -3.323  -5.089   1.014  0.00  0.00    +0.036 A 
ATOM     23  C   UNL     1      -3.851  -6.288   1.340  0.00  0.00    +0.048 A 
ATOM     24  S   UNL     1      -5.104  -6.520   0.090  0.00  0.00    -0.090 S 
ENDBRANCH  13  14
ENDBRANCH  12  13
ENDBRANCH  10  12
BRANCH   9  25
ATOM     25  C   UNL     1      -0.013   1.086   0.008  0.00  0.00    +0.159 C 
BRANCH  25  26
ATOM     26  C   UNL     1      -0.729   1.579   1.267  0.00  0.00    +0.138 C 
ATOM     27  C   UNL     1       0.045   1.137   2.534  0.00  0.00    +0.035 C 
ATOM     28  C   UNL     1      -0.418   2.213   3.553  0.00  0.00    +0.031 C 
ATOM     29  C   UNL     1      -0.572   3.464   2.661  0.00  0.00    +0.160 C 
ATOM     30  O   UNL     1      -0.729   3.015   1.310  0.00  0.00    -0.375 OA
ENDBRANCH  25  26
ENDBRANCH   9  25
TORSDOF 5
