REMARK  Name = ZINC03212554
REMARK  3 active torsions:
REMARK  status: ('A' for Active; 'I' for Inactive)
REMARK    1  A    between atoms: C_1  and  N_2
REMARK    2  A    between atoms: C_4  and  C_19
REMARK    3  A    between atoms: C_5  and  C_13
REMARK                            x       y       z     vdW  Elec       q    Type
REMARK                         _______ _______ _______ _____ _____    ______ ____
ROOT
ATOM      1  C   UNL     1       2.422   1.091   0.373  0.00  0.00    +0.135 C 
ATOM      2  N   UNL     1       1.177   1.767   0.000  0.00  0.00    -0.309 N 
ATOM      3  C   UNL     1      -0.013   1.076   0.008  0.00  0.00    +0.081 C 
ATOM      4  C   UNL     1      -1.184   1.714   0.017  0.00  0.00    +0.004 C 
ATOM      5  C   UNL     1      -1.285   3.210   0.038  0.00  0.00    +0.084 C 
ATOM      6  C   UNL     1       0.016   3.849  -0.364  0.00  0.00    -0.014 A 
ATOM      7  C   UNL     1       1.195   3.115  -0.364  0.00  0.00    +0.037 A 
ATOM      8  C   UNL     1       2.391   3.721  -0.726  0.00  0.00    +0.024 A 
ATOM      9  C   UNL     1       2.406   5.053  -1.090  0.00  0.00    +0.002 A 
ATOM     10  C   UNL     1       1.231   5.781  -1.095  0.00  0.00    +0.000 A 
ATOM     11  C   UNL     1       0.039   5.181  -0.733  0.00  0.00    +0.006 A 
ENDROOT
BRANCH   4  12
ATOM     12  C   UNL     1      -2.422   0.921   0.012  0.00  0.00    +0.070 A 
ATOM     13  C   UNL     1      -2.340  -0.485  -0.003  0.00  0.00    +0.029 A 
ATOM     14  C   UNL     1      -3.479  -1.229  -0.007  0.00  0.00    +0.012 A 
ATOM     15  C   UNL     1      -4.720  -0.556   0.003  0.00  0.00    +0.000 A 
ATOM     16  C   UNL     1      -5.931  -1.265  -0.001  0.00  0.00    +0.010 A 
ATOM     17  C   UNL     1      -7.111  -0.584   0.008  0.00  0.00    +0.001 A 
ATOM     18  C   UNL     1      -7.132   0.809   0.022  0.00  0.00    +0.002 A 
ATOM     19  C   UNL     1      -5.976   1.528   0.027  0.00  0.00    +0.028 A 
ATOM     20  C   UNL     1      -4.738   0.861   0.017  0.00  0.00    +0.072 A 
ATOM     21  N   UNL     1      -3.590   1.544   0.026  0.00  0.00    -0.247 NA
ENDBRANCH   4  12
BRANCH   5  22
ATOM     22  C   UNL     1      -1.650   3.666   1.427  0.00  0.00    -0.035 A 
ATOM     23  C   UNL     1      -0.804   3.398   2.487  0.00  0.00    +0.004 A 
ATOM     24  C   UNL     1      -1.136   3.820   3.761  0.00  0.00    +0.000 A 
ATOM     25  C   UNL     1      -2.319   4.502   3.976  0.00  0.00    +0.000 A 
ATOM     26  C   UNL     1      -3.167   4.766   2.917  0.00  0.00    +0.000 A 
ATOM     27  C   UNL     1      -2.833   4.348   1.643  0.00  0.00    +0.004 A 
ENDBRANCH   5  22
TORSDOF 2
