REMARK  Name = ZINC02412668
REMARK  8 active torsions:
REMARK  status: ('A' for Active; 'I' for Inactive)
REMARK    1  A    between atoms: C_1  and  C_2
REMARK    2  A    between atoms: C_2  and  C_3
REMARK    3  A    between atoms: C_2  and  C_4
REMARK    4  A    between atoms: C_7  and  O_29
REMARK    5  A    between atoms: C_8  and  N_10
REMARK    6  A    between atoms: C_14  and  C_15
REMARK    7  A    between atoms: N_23  and  C_28
REMARK    8  A    between atoms: N_26  and  C_27
REMARK                            x       y       z     vdW  Elec       q    Type
REMARK                         _______ _______ _______ _____ _____    ______ ____
ROOT
ATOM      1  N   UNL     1      -1.192  -0.738  -0.000  0.00  0.00    -0.310 N 
ATOM      2  C   UNL     1      -1.568  -1.628   0.973  0.00  0.00    +0.118 A 
ATOM      3  C   UNL     1      -2.789  -2.112   0.684  0.00  0.00    +0.077 A 
ATOM      4  C   UNL     1      -3.203  -1.480  -0.579  0.00  0.00    +0.089 A 
ATOM      5  C   UNL     1      -2.168  -0.638  -0.949  0.00  0.00    +0.068 A 
ATOM      6  C   UNL     1      -4.511  -1.845  -1.126  0.00  0.00    +0.266 A 
ATOM      7  O   UNL     1      -4.910  -1.357  -2.167  0.00  0.00    -0.267 OA
ATOM      8  N   UNL     1      -5.263  -2.738  -0.448  0.00  0.00    -0.263 N 
ATOM      9  C   UNL     1      -4.853  -3.294   0.700  0.00  0.00    +0.332 A 
ATOM     10  O   UNL     1      -5.590  -4.090   1.248  0.00  0.00    -0.246 OA
ATOM     11  N   UNL     1      -3.670  -3.022   1.278  0.00  0.00    -0.295 N 
ATOM     12  C   UNL     1      -3.303  -3.678   2.536  0.00  0.00    +0.154 C 
ATOM     13  C   UNL     1      -6.574  -3.112  -0.985  0.00  0.00    +0.157 C 
ENDROOT
BRANCH   1  18
ATOM     14  C   UNL     1       2.412  -0.027  -0.205  0.00  0.00    -0.043 A 
ATOM     15  C   UNL     1       2.420   1.349  -0.060  0.00  0.00    +0.007 A 
ATOM     16  C   UNL     1       1.232   2.037   0.106  0.00  0.00    +0.048 A 
ATOM     17  C   UNL     1       0.029   1.349   0.126  0.00  0.00    +0.141 A 
ATOM     18  C   UNL     1       0.021  -0.037  -0.020  0.00  0.00    +0.089 A 
ATOM     19  C   UNL     1       1.217  -0.720  -0.186  0.00  0.00    +0.033 A 
BRANCH  14  21
ATOM     20  C   UNL     1       4.415  -0.269  -1.646  0.00  0.00    +0.012 C 
ATOM     21  C   UNL     1       3.710  -0.771  -0.385  0.00  0.00    +0.013 C 
ATOM     22  C   UNL     1       4.607  -0.531   0.831  0.00  0.00    +0.012 C 
ENDBRANCH  14  21
BRANCH  17  23
ATOM     23  O   UNL     1      -1.140   2.025   0.283  0.00  0.00    -0.505 OA
ATOM     24  H   UNL     1      -1.414   2.127   1.205  0.00  0.00    +0.292 HD
ENDBRANCH  17  23
ENDBRANCH   1  18
BRANCH   5  25
ATOM     25  C   UNL     1      -2.127   0.213  -2.154  0.00  0.00    -0.000 A 
ATOM     26  C   UNL     1      -1.048   0.129  -3.037  0.00  0.00    +0.010 A 
ATOM     27  C   UNL     1      -1.019   0.923  -4.164  0.00  0.00    +0.001 A 
ATOM     28  C   UNL     1      -2.050   1.812  -4.415  0.00  0.00    +0.000 A 
ATOM     29  C   UNL     1      -3.120   1.905  -3.541  0.00  0.00    +0.001 A 
ATOM     30  C   UNL     1      -3.165   1.112  -2.413  0.00  0.00    +0.010 A 
ENDBRANCH   5  25
TORSDOF 4
