REMARK  Name = ZINC13095395
REMARK  5 active torsions:
REMARK  status: ('A' for Active; 'I' for Inactive)
REMARK    1  A    between atoms: C_1  and  C_2
REMARK    2  A    between atoms: C_2  and  C_4
REMARK    3  A    between atoms: C_2  and  N_9
REMARK    4  A    between atoms: N_20  and  S_21
REMARK    5  A    between atoms: S_21  and  C_24
REMARK                            x       y       z     vdW  Elec       q    Type
REMARK                         _______ _______ _______ _____ _____    ______ ____
ROOT
ATOM      1  N   UNL     1       5.039  -1.460  -4.307  0.00  0.00    -0.319 N 
ATOM      2  C   UNL     1       4.975  -0.172  -3.796  0.00  0.00    +0.161 A 
ATOM      3  C   UNL     1       4.624   0.030  -2.439  0.00  0.00    +0.179 A 
ATOM      4  N   UNL     1       4.555   1.247  -1.942  0.00  0.00    -0.226 NA
ATOM      5  C   UNL     1       4.829   2.302  -2.724  0.00  0.00    +0.091 A 
ATOM      6  C   UNL     1       4.768   3.610  -2.216  0.00  0.00    +0.030 A 
ATOM      7  C   UNL     1       5.045   4.665  -3.031  0.00  0.00    +0.002 A 
ATOM      8  C   UNL     1       5.390   4.467  -4.365  0.00  0.00    +0.002 A 
ATOM      9  C   UNL     1       5.460   3.212  -4.891  0.00  0.00    +0.030 A 
ATOM     10  C   UNL     1       5.180   2.101  -4.080  0.00  0.00    +0.091 A 
ATOM     11  N   UNL     1       5.242   0.855  -4.575  0.00  0.00    -0.227 NA
ATOM     12  N   UNL     1       4.345  -1.062  -1.630  0.00  0.00    -0.197 N 
ATOM     13  H   UNL     1       4.843  -2.219  -3.736  0.00  0.00    +0.148 HD
ATOM     14  H   UNL     1       4.391  -1.960  -1.994  0.00  0.00    +0.175 HD
ENDROOT
BRANCH  12  15
ATOM     15  S   UNL     1       3.934  -0.832  -0.042  0.00  0.00    +0.074 S 
ATOM     16  O   UNL     1       4.902   0.054   0.504  0.00  0.00    -0.150 OA
ATOM     17  O   UNL     1       3.686  -2.120   0.504  0.00  0.00    -0.150 OA
BRANCH  15  18
ATOM     18  C   UNL     1       2.396   0.029  -0.022  0.00  0.00    +0.109 A 
ATOM     19  C   UNL     1       1.208  -0.679  -0.014  0.00  0.00    +0.029 A 
ATOM     20  C   UNL     1       0.002  -0.004   0.002  0.00  0.00    +0.002 A 
ATOM     21  C   UNL     1      -0.017   1.378   0.010  0.00  0.00    +0.000 A 
ATOM     22  C   UNL     1       1.171   2.086   0.002  0.00  0.00    +0.002 A 
ATOM     23  C   UNL     1       2.377   1.411  -0.014  0.00  0.00    +0.029 A 
ENDBRANCH  15  18
ENDBRANCH  12  15
BRANCH   1  25
ATOM     24  C   UNL     1       4.153  -1.545  -6.585  0.00  0.00    +0.033 C 
ATOM     25  C   UNL     1       5.402  -1.673  -5.710  0.00  0.00    +0.106 C 
BRANCH  25  26
ATOM     26  C   UNL     1       5.990  -3.051  -5.873  0.00  0.00    +0.010 A 
ATOM     27  C   UNL     1       7.037  -3.447  -6.636  0.00  0.00    +0.013 A 
ATOM     28  C   UNL     1       7.408  -4.779  -6.627  0.00  0.00    +0.008 A 
ATOM     29  C   UNL     1       6.705  -5.651  -5.863  0.00  0.00    +0.045 A 
ATOM     30  S   UNL     1       5.482  -4.587  -5.116  0.00  0.00    -0.100 S 
ENDBRANCH  25  26
ENDBRANCH   1  25
TORSDOF 4
