REMARK  Name = ZINC09373066
REMARK  7 active torsions:
REMARK  status: ('A' for Active; 'I' for Inactive)
REMARK    1  A    between atoms: C_3  and  S_15
REMARK    2  A    between atoms: C_4  and  N_12
REMARK    3  A    between atoms: C_6  and  S_7
REMARK    4  A    between atoms: S_7  and  C_8
REMARK    5  A    between atoms: S_15  and  C_18
REMARK    6  A    between atoms: C_18  and  C_19
REMARK    7  A    between atoms: N_21  and  C_22
REMARK                            x       y       z     vdW  Elec       q    Type
REMARK                         _______ _______ _______ _____ _____    ______ ____
ROOT
ATOM      1  S   UNL     1       0.192   4.218   0.037  0.00  0.00    +0.008 S 
ATOM      2  O   UNL     1       0.942   3.670  -1.038  0.00  0.00    -0.169 OA
ATOM      3  O   UNL     1      -0.197   5.585   0.026  0.00  0.00    -0.169 OA
ENDROOT
BRANCH   1   6
ATOM      4  C   UNL     1      -3.718   3.298   0.038  0.00  0.00    +0.017 A 
ATOM      5  C   UNL     1      -2.528   3.999   0.036  0.00  0.00    +0.030 A 
ATOM      6  C   UNL     1      -1.324   3.319   0.032  0.00  0.00    +0.119 A 
ATOM      7  C   UNL     1      -1.306   1.936   0.019  0.00  0.00    +0.152 A 
ATOM      8  C   UNL     1      -2.492   1.229   0.021  0.00  0.00    +0.049 A 
ATOM      9  C   UNL     1      -3.704   1.908   0.030  0.00  0.00    +0.018 A 
BRANCH   7  10
ATOM     10  N   UNL     1      -0.014   1.214   0.009  0.00  0.00    +0.058 N 
ATOM     11  O   UNL     1       0.002  -0.004   0.002  0.00  0.00    -0.126 OA
ATOM     12  O   UNL     1       1.032   1.837   0.002  0.00  0.00    -0.126 OA
ENDBRANCH   7  10
BRANCH   9  13
ATOM     13  S   UNL     1      -5.220   1.010   0.033  0.00  0.00    -0.016 S 
BRANCH  13  14
ATOM     14  C   UNL     1      -6.495   2.300   0.046  0.00  0.00    +0.448 C 
ATOM     15  F   UNL     1      -6.359   3.101  -1.093  0.00  0.00    -0.160 F 
ATOM     16  F   UNL     1      -7.761   1.705   0.049  0.00  0.00    -0.160 F 
ATOM     17  F   UNL     1      -6.348   3.090   1.191  0.00  0.00    -0.160 F 
ENDBRANCH  13  14
ENDBRANCH   9  13
ENDBRANCH   1   6
BRANCH   1  18
ATOM     18  C   UNL     1       0.975   3.803   1.620  0.00  0.00    +0.267 C 
BRANCH  18  19
ATOM     19  C   UNL     1       2.293   4.524   1.733  0.00  0.00    +0.235 C 
ATOM     20  O   UNL     1       2.668   5.247   0.834  0.00  0.00    -0.274 OA
ATOM     21  N   UNL     1       3.056   4.366   2.833  0.00  0.00    -0.310 N 
ATOM     22  H   UNL     1       2.756   3.788   3.552  0.00  0.00    +0.149 HD
BRANCH  21  23
ATOM     23  C   UNL     1       4.337   5.067   2.942  0.00  0.00    +0.095 C 
ATOM     24  C   UNL     1       5.444   4.233   2.276  0.00  0.00    +0.046 C 
ATOM     25  C   UNL     1       6.833   4.797   2.660  0.00  0.00    +0.168 C 
ATOM     26  S   UNL     1       6.520   5.555   4.306  0.00  0.00    -0.029 S 
ATOM     27  O   UNL     1       6.751   6.955   4.221  0.00  0.00    -0.174 OA
ATOM     28  O   UNL     1       7.192   4.795   5.301  0.00  0.00    -0.174 OA
ATOM     29  C   UNL     1       4.708   5.253   4.442  0.00  0.00    +0.188 C 
ENDBRANCH  21  23
ENDBRANCH  18  19
ENDBRANCH   1  18
TORSDOF 7
