REMARK  Name = ZINC38597168
REMARK  11 active torsions:
REMARK  status: ('A' for Active; 'I' for Inactive)
REMARK    1  A    between atoms: C_1  and  C_2
REMARK    2  A    between atoms: C_2  and  C_4
REMARK    3  A    between atoms: C_2  and  N_24
REMARK    4  A    between atoms: C_4  and  C_6
REMARK    5  A    between atoms: C_4  and  N_11
REMARK    6  A    between atoms: N_14  and  C_17
REMARK    7  A    between atoms: C_17  and  C_18
REMARK    8  A    between atoms: C_25  and  C_27
REMARK    9  A    between atoms: N_29  and  C_30
REMARK   10  A    between atoms: C_35  and  O_36
REMARK   11  A    between atoms: O_36  and  C_37
REMARK                            x       y       z     vdW  Elec       q    Type
REMARK                         _______ _______ _______ _____ _____    ______ ____
ROOT
ATOM      1  C   UNL     1       0.727  -0.540  -1.255  0.00  0.00    +0.113 C 
ENDROOT
BRANCH   1   2
ATOM      2  N   UNL     1       2.069   0.054  -1.326  0.00  0.00    -0.297 NA
ATOM      3  C   UNL     1       2.841  -0.242  -0.111  0.00  0.00    +0.066 C 
ATOM      4  C   UNL     1       4.207   0.442  -0.199  0.00  0.00    -0.063 C 
ATOM      5  N   UNL     1       4.923  -0.045  -1.385  0.00  0.00    +0.384 N 
ATOM      6  C   UNL     1       4.151   0.280  -2.592  0.00  0.00    -0.063 C 
ATOM      7  C   UNL     1       2.785  -0.406  -2.524  0.00  0.00    +0.066 C 
ATOM      8  H   UNL     1       5.040  -1.045  -1.321  0.00  0.00    -0.081 HD
BRANCH   5   9
ATOM      9  C   UNL     1       6.241   0.599  -1.459  0.00  0.00    -0.043 C 
BRANCH   9  10
ATOM     10  C   UNL     1       7.024   0.010  -2.605  0.00  0.00    -0.064 A 
ATOM     11  C   UNL     1       7.826  -1.096  -2.398  0.00  0.00    +0.002 A 
ATOM     12  C   UNL     1       8.544  -1.636  -3.449  0.00  0.00    +0.000 A 
ATOM     13  C   UNL     1       8.459  -1.069  -4.707  0.00  0.00    +0.000 A 
ATOM     14  C   UNL     1       7.656   0.037  -4.914  0.00  0.00    +0.000 A 
ATOM     15  C   UNL     1       6.935   0.574  -3.864  0.00  0.00    +0.002 A 
ENDBRANCH   9  10
ENDBRANCH   5   9
ENDBRANCH   1   2
BRANCH   1  16
ATOM     16  C   UNL     1      -0.065  -0.140  -2.473  0.00  0.00    +0.009 A 
ATOM     17  C   UNL     1      -0.923  -0.882  -3.214  0.00  0.00    +0.013 A 
ATOM     18  C   UNL     1      -1.545  -0.300  -4.303  0.00  0.00    +0.008 A 
ATOM     19  C   UNL     1      -1.277   0.996  -4.597  0.00  0.00    +0.045 A 
ATOM     20  S   UNL     1      -0.120   1.436  -3.311  0.00  0.00    -0.100 S 
ENDBRANCH   1  16
BRANCH   1  22
ATOM     21  C   UNL     1       0.005   1.491   0.010  0.00  0.00    +0.030 C 
ATOM     22  C   UNL     1       0.014  -0.039   0.003  0.00  0.00    +0.092 C 
BRANCH  22  23
ATOM     23  N   UNL     1      -1.365  -0.535   0.013  0.00  0.00    -0.303 N 
ATOM     24  C   UNL     1      -2.023  -0.673   1.181  0.00  0.00    +0.300 C 
ATOM     25  O   UNL     1      -1.474  -0.386   2.225  0.00  0.00    -0.265 OA
ATOM     26  H   UNL     1      -1.804  -0.765  -0.821  0.00  0.00    +0.149 HD
BRANCH  24  27
ATOM     27  C   UNL     1      -3.428  -1.179   1.192  0.00  0.00    +0.303 C 
ATOM     28  O   UNL     1      -3.977  -1.466   0.148  0.00  0.00    -0.265 OA
ATOM     29  N   UNL     1      -4.086  -1.316   2.360  0.00  0.00    -0.275 N 
ATOM     30  H   UNL     1      -3.627  -1.149   3.198  0.00  0.00    +0.155 HD
BRANCH  29  31
ATOM     31  C   UNL     1      -5.431  -1.700   2.364  0.00  0.00    +0.077 A 
ATOM     32  C   UNL     1      -5.904  -2.587   1.407  0.00  0.00    +0.047 A 
ATOM     33  C   UNL     1      -7.234  -2.965   1.413  0.00  0.00    +0.043 A 
ATOM     34  C   UNL     1      -8.096  -2.460   2.371  0.00  0.00    +0.024 A 
ATOM     35  C   UNL     1      -7.631  -1.576   3.327  0.00  0.00    +0.049 A 
ATOM     36  C   UNL     1      -6.298  -1.197   3.331  0.00  0.00    +0.141 A 
ATOM     37 CL   UNL     1      -7.825  -4.075   0.216  0.00  0.00    -0.083 Cl
BRANCH  36  38
ATOM     38  O   UNL     1      -5.839  -0.332   4.274  0.00  0.00    -0.493 OA
ATOM     39  C   UNL     1      -6.785   0.143   5.235  0.00  0.00    +0.277 C 
ENDBRANCH  36  38
ENDBRANCH  29  31
ENDBRANCH  24  27
ENDBRANCH  22  23
ENDBRANCH   1  22
TORSDOF 9
