REMARK  Name = ZINC02968092
REMARK  12 active torsions:
REMARK  status: ('A' for Active; 'I' for Inactive)
REMARK    1  A    between atoms: C_1  and  C_2
REMARK    2  A    between atoms: C_2  and  C_3
REMARK    3  A    between atoms: C_3  and  C_4
REMARK    4  A    between atoms: C_4  and  N_5
REMARK    5  A    between atoms: C_6  and  C_8
REMARK    6  A    between atoms: C_8  and  C_9
REMARK    7  A    between atoms: C_23  and  S_24
REMARK    8  A    between atoms: S_24  and  C_25
REMARK    9  A    between atoms: C_25  and  C_27
REMARK   10  A    between atoms: C_25  and  C_29
REMARK   11  A    between atoms: C_27  and  C_28
REMARK   12  A    between atoms: N_31  and  C_32
REMARK                            x       y       z     vdW  Elec       q    Type
REMARK                         _______ _______ _______ _____ _____    ______ ____
ROOT
ATOM      1  C   UNL     1       0.611   0.314   5.340  0.00  0.00    +0.202 C 
ATOM      2  C   UNL     1      -0.282   0.996   6.355  0.00  0.00    +0.252 C 
ATOM      3  O   UNL     1      -0.612   2.162   6.375  0.00  0.00    -0.272 OA
ATOM      4  N   UNL     1      -0.633   0.029   7.234  0.00  0.00    -0.200 N 
ATOM      5  C   UNL     1      -0.057  -1.178   6.876  0.00  0.00    +0.139 C 
ATOM      6  N   UNL     1       0.669  -1.081   5.798  0.00  0.00    -0.255 NA
ATOM      7  C   UNL     1      -0.342  -2.346   7.737  0.00  0.00    +0.041 A 
ATOM      8  C   UNL     1       0.191  -3.600   7.460  0.00  0.00    +0.013 A 
ATOM      9  C   UNL     1      -0.100  -4.662   8.291  0.00  0.00    +0.001 A 
ATOM     10  C   UNL     1      -0.920  -4.486   9.396  0.00  0.00    +0.002 A 
ATOM     11  C   UNL     1      -1.458  -3.251   9.687  0.00  0.00    +0.028 A 
ATOM     12  C   UNL     1      -1.175  -2.162   8.860  0.00  0.00    +0.077 A 
ATOM     13  N   UNL     1      -1.687  -0.931   9.115  0.00  0.00    -0.225 NA
ATOM     14  C   UNL     1      -1.435   0.099   8.354  0.00  0.00    +0.170 C 
ENDROOT
BRANCH   1  15
ATOM     15  C   UNL     1      -0.007   0.395   3.942  0.00  0.00    +0.132 C 
BRANCH  15  17
ATOM     16  N   UNL     1       0.571  -0.318   1.645  0.00  0.00    -0.315 N 
ATOM     17  C   UNL     1       0.912  -0.268   2.948  0.00  0.00    +0.216 C 
ATOM     18  O   UNL     1       1.958  -0.756   3.321  0.00  0.00    -0.276 OA
ATOM     19  H   UNL     1      -0.377   0.125   1.307  0.00  0.00    +0.149 HD
BRANCH  16  20
ATOM     20  C   UNL     1       1.464  -0.962   0.679  0.00  0.00    +0.104 C 
BRANCH  20  21
ATOM     21  C   UNL     1       0.846  -0.881  -0.719  0.00  0.00    +0.018 C 
BRANCH  21  23
ATOM     22  C   UNL     1       1.161  -1.473  -3.126  0.00  0.00    +0.004 C 
ATOM     23  C   UNL     1       1.779  -1.554  -1.728  0.00  0.00    -0.002 C 
ENDBRANCH  21  23
ENDBRANCH  20  21
ENDBRANCH  16  20
ENDBRANCH  15  17
ENDBRANCH   1  15
BRANCH  14  24
ATOM     24  S   UNL     1      -2.152   1.651   8.778  0.00  0.00    -0.077 S 
BRANCH  24  25
ATOM     25  C   UNL     1      -3.192   1.147  10.171  0.00  0.00    +0.140 C 
BRANCH  25  26
ATOM     26  C   UNL     1      -4.284   0.234   9.677  0.00  0.00    +0.231 C 
ATOM     27  O   UNL     1      -4.587   0.230   8.503  0.00  0.00    -0.274 OA
ATOM     28  N   UNL     1      -4.924  -0.580  10.541  0.00  0.00    -0.285 N 
ATOM     29  H   UNL     1      -4.598  -0.633  11.590  0.00  0.00    +0.155 HD
BRANCH  28  30
ATOM     30  C   UNL     1      -6.002  -1.357  10.102  0.00  0.00    +0.034 A 
ATOM     31  C   UNL     1      -6.852  -0.874   9.116  0.00  0.00    +0.025 A 
ATOM     32  C   UNL     1      -7.913  -1.644   8.682  0.00  0.00    +0.022 A 
ATOM     33  C   UNL     1      -8.135  -2.892   9.236  0.00  0.00    +0.041 A 
ATOM     34  C   UNL     1      -7.293  -3.374  10.223  0.00  0.00    +0.022 A 
ATOM     35  C   UNL     1      -6.228  -2.609  10.657  0.00  0.00    +0.025 A 
ATOM     36 CL   UNL     1      -9.474  -3.855   8.693  0.00  0.00    -0.084 Cl
ENDBRANCH  28  30
ENDBRANCH  25  26
BRANCH  25  37
ATOM     37  C   UNL     1      -3.817   2.386  10.816  0.00  0.00    +0.020 C 
ATOM     38  C   UNL     1      -2.714   3.257  11.421  0.00  0.00    +0.005 C 
ENDBRANCH  25  37
ENDBRANCH  24  25
ENDBRANCH  14  24
TORSDOF 10
