REMARK  Name = ZINC59815999
REMARK  9 active torsions:
REMARK  status: ('A' for Active; 'I' for Inactive)
REMARK    1  A    between atoms: C_1  and  C_2
REMARK    2  A    between atoms: C_2  and  C_4
REMARK    3  A    between atoms: C_2  and  S_9
REMARK    4  A    between atoms: N_6  and  C_7
REMARK    5  A    between atoms: N_6  and  C_8
REMARK    6  A    between atoms: S_9  and  C_10
REMARK    7  A    between atoms: N_15  and  N_16
REMARK    8  A    between atoms: C_17  and  C_18
REMARK    9  A    between atoms: C_23  and  O_24
REMARK                            x       y       z     vdW  Elec       q    Type
REMARK                         _______ _______ _______ _____ _____    ______ ____
ROOT
ATOM      1  C   UNL     1       2.509  -0.029  -1.285  0.00  0.00    +0.211 A 
ATOM      2  N   UNL     1       3.508  -0.225  -2.152  0.00  0.00    -0.186 NA
ATOM      3  C   UNL     1       4.611   0.325  -1.688  0.00  0.00    +0.232 A 
ATOM      4  N   UNL     1       4.325   0.891  -0.496  0.00  0.00    -0.245 N 
ATOM      5  N   UNL     1       2.961   0.654  -0.260  0.00  0.00    -0.144 NA
ATOM      6  N   UNL     1       5.845   0.323  -2.312  0.00  0.00    -0.205 N 
ATOM      7  H   UNL     1       6.603   0.757  -1.889  0.00  0.00    +0.177 HD
ATOM      8  H   UNL     1       4.940   1.369   0.082  0.00  0.00    +0.192 HD
ENDROOT
BRANCH   6   9
ATOM      9  N   UNL     1       6.001  -0.305  -3.554  0.00  0.00    -0.187 NA
ATOM     10  C   UNL     1       7.160  -0.307  -4.140  0.00  0.00    +0.142 C 
BRANCH  10  11
ATOM     11  C   UNL     1       7.324  -0.968  -5.447  0.00  0.00    +0.037 A 
ATOM     12  C   UNL     1       8.570  -0.978  -6.077  0.00  0.00    +0.028 A 
ATOM     13  C   UNL     1       8.716  -1.599  -7.301  0.00  0.00    +0.019 A 
ATOM     14  C   UNL     1       7.633  -2.213  -7.906  0.00  0.00    +0.019 A 
ATOM     15  C   UNL     1       6.394  -2.210  -7.291  0.00  0.00    +0.047 A 
ATOM     16  C   UNL     1       6.231  -1.596  -6.061  0.00  0.00    +0.126 A 
ATOM     17 BR   UNL     1      10.404  -1.611  -8.155  0.00  0.00    -0.050 Br
BRANCH  16  18
ATOM     18  O   UNL     1       5.016  -1.597  -5.454  0.00  0.00    -0.506 OA
ATOM     19  H   UNL     1       4.459  -0.842  -5.686  0.00  0.00    +0.292 HD
ENDBRANCH  16  18
ENDBRANCH  10  11
ENDBRANCH   6   9
BRANCH   1  20
ATOM     20  S   UNL     1       0.851  -0.589  -1.490  0.00  0.00    -0.072 S 
BRANCH  20  22
ATOM     21  C   UNL     1      -0.019   1.526   0.010  0.00  0.00    +0.029 C 
ATOM     22  C   UNL     1       0.002  -0.004   0.002  0.00  0.00    +0.137 C 
BRANCH  22  23
ATOM     23  C   UNL     1      -1.412  -0.526   0.013  0.00  0.00    +0.228 C 
ATOM     24  O   UNL     1      -1.927  -0.901  -1.019  0.00  0.00    -0.274 OA
ATOM     25  N   UNL     1      -2.103  -0.575   1.169  0.00  0.00    -0.307 N 
ATOM     26  C   UNL     1      -3.478  -1.082   1.179  0.00  0.00    +0.131 C 
ATOM     27  C   UNL     1      -1.480  -0.121   2.415  0.00  0.00    +0.131 C 
ENDBRANCH  22  23
ENDBRANCH  20  22
ENDBRANCH   1  20
TORSDOF 6
