REMARK  Name = ZINC40404630
REMARK  15 active torsions:
REMARK  status: ('A' for Active; 'I' for Inactive)
REMARK    1  A    between atoms: C_1  and  C_2
REMARK    2  A    between atoms: C_2  and  C_3
REMARK    3  A    between atoms: C_2  and  N_4
REMARK    4  A    between atoms: N_4  and  C_5
REMARK    5  A    between atoms: N_4  and  C_27
REMARK    6  A    between atoms: C_5  and  C_6
REMARK    7  A    between atoms: C_12  and  C_17
REMARK    8  A    between atoms: C_20  and  O_25
REMARK    9  A    between atoms: C_21  and  O_23
REMARK   10  A    between atoms: O_23  and  C_24
REMARK   11  A    between atoms: O_25  and  C_26
REMARK   12  A    between atoms: C_27  and  C_28
REMARK   13  A    between atoms: C_28  and  C_30
REMARK   14  A    between atoms: C_28  and  O_37
REMARK   15  A    between atoms: C_30  and  C_31
REMARK                            x       y       z     vdW  Elec       q    Type
REMARK                         _______ _______ _______ _____ _____    ______ ____
ROOT
ATOM      1  C   UNL     1      -2.546   1.390  -0.209  0.00  0.00    +0.094 A 
ATOM      2  N   UNL     1      -3.277   2.187  -1.030  0.00  0.00    -0.312 N 
ATOM      3  H   UNL     1      -3.597   1.833  -1.875  0.00  0.00    +0.170 HD
ATOM      4  C   UNL     1      -3.567   3.458  -0.696  0.00  0.00    +0.260 A 
ATOM      5  O   UNL     1      -4.224   4.160  -1.444  0.00  0.00    -0.267 OA
ATOM      6  C   UNL     1      -3.091   3.972   0.552  0.00  0.00    +0.080 A 
ATOM      7  C   UNL     1      -3.270   5.298   1.132  0.00  0.00    +0.004 A 
ATOM      8  C   UNL     1      -2.721   5.559   2.343  0.00  0.00    +0.056 A 
ATOM      9  S   UNL     1      -1.925   4.023   2.775  0.00  0.00    -0.076 S 
ATOM     10  C   UNL     1      -2.344   3.076   1.335  0.00  0.00    +0.116 A 
ATOM     11  N   UNL     1      -2.103   1.829   0.938  0.00  0.00    -0.229 NA
ENDROOT
BRANCH   7  12
ATOM     12  C   UNL     1      -4.037   6.341   0.411  0.00  0.00    -0.013 A 
ATOM     13  C   UNL     1      -3.754   6.617  -0.926  0.00  0.00    +0.012 A 
ATOM     14  C   UNL     1      -4.469   7.588  -1.597  0.00  0.00    +0.050 A 
ATOM     15  C   UNL     1      -5.471   8.291  -0.945  0.00  0.00    +0.162 A 
ATOM     16  C   UNL     1      -5.758   8.019   0.390  0.00  0.00    +0.162 A 
ATOM     17  C   UNL     1      -5.048   7.043   1.066  0.00  0.00    +0.058 A 
BRANCH  16  18
ATOM     18  O   UNL     1      -6.741   8.709   1.028  0.00  0.00    -0.491 OA
ATOM     19  C   UNL     1      -6.983   8.378   2.397  0.00  0.00    +0.277 C 
ENDBRANCH  16  18
BRANCH  15  20
ATOM     20  O   UNL     1      -6.172   9.247  -1.609  0.00  0.00    -0.491 OA
ATOM     21  C   UNL     1      -5.824   9.475  -2.977  0.00  0.00    +0.277 C 
ENDBRANCH  15  20
ENDBRANCH   7  12
BRANCH   1  22
ATOM     22  C   UNL     1      -2.248  -0.027  -0.625  0.00  0.00    -0.003 C 
BRANCH  22  23
ATOM     23  N   UNL     1      -1.303  -0.628   0.326  0.00  0.00    +0.388 N 
ATOM     24  H   UNL     1      -1.513  -0.304   1.258  0.00  0.00    -0.081 HD
BRANCH  23  26
ATOM     25  C   UNL     1       0.428  -0.834  -1.393  0.00  0.00    -0.014 C 
ATOM     26  C   UNL     1       0.067  -0.238  -0.032  0.00  0.00    -0.074 C 
ATOM     27  C   UNL     1       0.161   1.288  -0.102  0.00  0.00    -0.014 C 
ENDBRANCH  23  26
BRANCH  23  28
ATOM     28  C   UNL     1      -1.424  -2.091   0.277  0.00  0.00    -0.046 C 
BRANCH  28  29
ATOM     29  C   UNL     1      -0.591  -2.709   1.402  0.00  0.00    +0.102 C 
BRANCH  29  30
ATOM     30  O   UNL     1       0.798  -2.530   1.120  0.00  0.00    -0.393 OA
ATOM     31  H   UNL     1       1.075  -2.887   0.265  0.00  0.00    +0.210 HD
ENDBRANCH  29  30
BRANCH  29  32
ATOM     32  C   UNL     1      -0.902  -4.204   1.505  0.00  0.00    +0.064 C 
BRANCH  32  33
ATOM     33  C   UNL     1      -0.176  -4.788   2.690  0.00  0.00    -0.045 A 
ATOM     34  C   UNL     1       1.101  -5.294   2.537  0.00  0.00    +0.004 A 
ATOM     35  C   UNL     1       1.767  -5.830   3.623  0.00  0.00    +0.000 A 
ATOM     36  C   UNL     1       1.156  -5.858   4.863  0.00  0.00    +0.000 A 
ATOM     37  C   UNL     1      -0.121  -5.351   5.016  0.00  0.00    +0.000 A 
ATOM     38  C   UNL     1      -0.785  -4.811   3.931  0.00  0.00    +0.004 A 
ENDBRANCH  32  33
ENDBRANCH  29  32
ENDBRANCH  28  29
ENDBRANCH  23  28
ENDBRANCH  22  23
ENDBRANCH   1  22
TORSDOF 11
