REMARK  Name = ZINC11934913
REMARK  9 active torsions:
REMARK  status: ('A' for Active; 'I' for Inactive)
REMARK    1  A    between atoms: C_1  and  C_2
REMARK    2  A    between atoms: C_2  and  C_3
REMARK    3  A    between atoms: C_2  and  C_4
REMARK    4  A    between atoms: C_2  and  C_5
REMARK    5  A    between atoms: C_5  and  N_53
REMARK    6  A    between atoms: C_11  and  C_13
REMARK    7  A    between atoms: C_13  and  C_14
REMARK    8  A    between atoms: N_16  and  C_17
REMARK    9  A    between atoms: C_17  and  C_18
REMARK                            x       y       z     vdW  Elec       q    Type
REMARK                         _______ _______ _______ _____ _____    ______ ____
ROOT
ATOM      1  C   UNL     1       1.750  -0.346   4.347  0.00  0.00    +0.089 C 
ENDROOT
BRANCH   1   7
ATOM      2  C   UNL     1       1.735   2.638   2.067  0.00  0.00    -0.059 C 
ATOM      3  C   UNL     1       3.241   2.903   2.106  0.00  0.00    +0.085 C 
ATOM      4  N   UNL     1       3.785   2.514   3.404  0.00  0.00    -0.318 N 
ATOM      5  C   UNL     1       3.143   1.697   4.245  0.00  0.00    +0.200 C 
ATOM      6  O   UNL     1       3.681   1.401   5.291  0.00  0.00    -0.278 OA
ATOM      7  C   UNL     1       1.783   1.131   3.950  0.00  0.00    +0.028 C 
ATOM      8  H   UNL     1       4.651   2.864   3.667  0.00  0.00    +0.149 HD
ATOM      9  N   UNL     1       1.504   1.247   2.506  0.00  0.00    +0.389 N 
ATOM     10  H   UNL     1       2.137   0.623   1.992  0.00  0.00    -0.081 HD
BRANCH   9  11
ATOM     11  C   UNL     1       0.105   0.851   2.227  0.00  0.00    -0.072 C 
BRANCH  11  13
ATOM     12  C   UNL     1      -0.588   3.143   1.515  0.00  0.00    +0.009 C 
ATOM     13  C   UNL     1      -0.842   2.016   2.518  0.00  0.00    -0.052 C 
ATOM     14  C   UNL     1      -0.595   2.532   3.937  0.00  0.00    +0.009 C 
ATOM     15  C   UNL     1      -2.291   1.540   2.393  0.00  0.00    +0.009 C 
ENDBRANCH  11  13
ENDBRANCH   9  11
ENDBRANCH   1   7
BRANCH   1  16
ATOM     16  C   UNL     1       2.749  -1.111   3.518  0.00  0.00    +0.212 C 
ATOM     17  O   UNL     1       3.473  -0.521   2.744  0.00  0.00    -0.276 OA
ATOM     18  N   UNL     1       2.838  -2.450   3.636  0.00  0.00    -0.311 N 
ATOM     19  H   UNL     1       2.259  -2.922   4.255  0.00  0.00    +0.149 HD
BRANCH  18  20
ATOM     20  C   UNL     1       3.809  -3.194   2.830  0.00  0.00    +0.139 C 
BRANCH  20  21
ATOM     21  C   UNL     1       3.707  -4.663   3.149  0.00  0.00    -0.027 A 
ATOM     22  C   UNL     1       4.483  -5.206   4.157  0.00  0.00    +0.009 A 
ATOM     23  C   UNL     1       4.388  -6.552   4.457  0.00  0.00    +0.050 A 
ATOM     24  C   UNL     1       3.524  -7.363   3.740  0.00  0.00    +0.166 A 
ATOM     25  C   UNL     1       2.747  -6.818   2.721  0.00  0.00    +0.167 A 
ATOM     26  C   UNL     1       2.842  -5.467   2.430  0.00  0.00    +0.054 A 
ATOM     27  O   UNL     1       1.986  -7.811   2.173  0.00  0.00    -0.453 OA
ATOM     28  C   UNL     1       2.604  -9.042   2.591  0.00  0.00    +0.466 C 
ATOM     29  O   UNL     1       3.251  -8.698   3.830  0.00  0.00    -0.453 OA
ENDBRANCH  20  21
ENDBRANCH  18  20
ENDBRANCH   1  16
TORSDOF 6
