REMARK  Name = ZINC02859241
REMARK  6 active torsions:
REMARK  status: ('A' for Active; 'I' for Inactive)
REMARK    1  A    between atoms: C_1  and  O_2
REMARK    2  A    between atoms: O_2  and  C_3
REMARK    3  A    between atoms: C_8  and  N_9
REMARK    4  A    between atoms: N_9  and  C_10
REMARK    5  A    between atoms: C_10  and  N_12
REMARK    6  A    between atoms: C_13  and  C_15
REMARK                            x       y       z     vdW  Elec       q    Type
REMARK                         _______ _______ _______ _____ _____    ______ ____
ROOT
ATOM      1  C   UNL     1       0.061  -4.119  -0.232  0.00  0.00    +0.141 C 
ATOM      2  S   UNL     1       0.820  -4.880  -1.564  0.00  0.00    -0.018 S 
ENDROOT
BRANCH   1   3
ATOM      3  N   UNL     1      -0.572  -4.862   0.698  0.00  0.00    -0.264 N 
ATOM      4  C   UNL     1      -0.607  -6.204   0.578  0.00  0.00    +0.250 C 
ATOM      5  O   UNL     1      -0.068  -6.744  -0.368  0.00  0.00    -0.270 OA
ATOM      6  H   UNL     1      -1.003  -4.431   1.453  0.00  0.00    +0.157 HD
BRANCH   4   7
ATOM      7  C   UNL     1      -1.300  -7.018   1.595  0.00  0.00    +0.041 A 
ATOM      8  C   UNL     1      -1.926  -6.398   2.680  0.00  0.00    +0.017 A 
ATOM      9  C   UNL     1      -2.572  -7.159   3.629  0.00  0.00    +0.050 A 
ATOM     10  C   UNL     1      -2.605  -8.543   3.512  0.00  0.00    +0.166 A 
ATOM     11  C   UNL     1      -1.983  -9.168   2.430  0.00  0.00    +0.167 A 
ATOM     12  C   UNL     1      -1.338  -8.409   1.473  0.00  0.00    +0.062 A 
ATOM     13  O   UNL     1      -2.158 -10.517   2.547  0.00  0.00    -0.453 OA
ATOM     14  C   UNL     1      -2.538 -10.737   3.918  0.00  0.00    +0.466 C 
ATOM     15  O   UNL     1      -3.168  -9.501   4.302  0.00  0.00    -0.453 OA
ENDBRANCH   4   7
ENDBRANCH   1   3
BRANCH   1  16
ATOM     16  N   UNL     1       0.096  -2.777  -0.112  0.00  0.00    -0.294 N 
ATOM     17  H   UNL     1      -0.264  -2.351   0.682  0.00  0.00    +0.154 HD
BRANCH  16  23
ATOM     18  C   UNL     1       1.507  -0.942  -0.820  0.00  0.00    +0.141 A 
ATOM     19  C   UNL     1       2.060  -0.177  -1.834  0.00  0.00    +0.049 A 
ATOM     20  C   UNL     1       1.760  -0.458  -3.154  0.00  0.00    +0.024 A 
ATOM     21  C   UNL     1       0.907  -1.502  -3.467  0.00  0.00    +0.043 A 
ATOM     22  C   UNL     1       0.351  -2.269  -2.460  0.00  0.00    +0.047 A 
ATOM     23  C   UNL     1       0.653  -1.997  -1.133  0.00  0.00    +0.076 A 
ATOM     24 CL   UNL     1       0.534  -1.848  -5.126  0.00  0.00    -0.083 Cl
BRANCH  18  26
ATOM     25  C   UNL     1       2.684   0.430   0.726  0.00  0.00    +0.277 C 
ATOM     26  O   UNL     1       1.801  -0.666   0.479  0.00  0.00    -0.493 OA
ENDBRANCH  18  26
ENDBRANCH  16  23
ENDBRANCH   1  16
TORSDOF 5
