REMARK  Name = ZINC05739245
REMARK  6 active torsions:
REMARK  status: ('A' for Active; 'I' for Inactive)
REMARK    1  A    between atoms: C_1  and  C_2
REMARK    2  A    between atoms: C_2  and  C_4
REMARK    3  A    between atoms: C_2  and  N_16
REMARK    4  A    between atoms: N_6  and  N_7
REMARK    5  A    between atoms: C_8  and  C_9
REMARK    6  A    between atoms: N_16  and  C_17
REMARK                            x       y       z     vdW  Elec       q    Type
REMARK                         _______ _______ _______ _____ _____    ______ ____
ROOT
ATOM      1  C   UNL     1      -0.013   1.086   0.008  0.00  0.00    +0.038 C 
ATOM      2  C   UNL     1      -0.729   1.579   1.267  0.00  0.00    +0.155 C 
ENDROOT
BRANCH   2   3
ATOM      3  C   UNL     1       0.000   1.080   2.488  0.00  0.00    +0.252 C 
ATOM      4  O   UNL     1      -0.572   0.370   3.288  0.00  0.00    -0.272 OA
ATOM      5  N   UNL     1       1.288   1.422   2.691  0.00  0.00    -0.205 N 
ATOM      6  H   UNL     1       1.746   1.990   2.051  0.00  0.00    +0.177 HD
BRANCH   5   7
ATOM      7  N   UNL     1       1.965   0.958   3.826  0.00  0.00    -0.188 NA
ATOM      8  C   UNL     1       3.205   1.287   4.021  0.00  0.00    +0.138 C 
BRANCH   8   9
ATOM      9  C   UNL     1       3.918   0.799   5.216  0.00  0.00    -0.005 A 
ATOM     10  C   UNL     1       3.261  -0.014   6.142  0.00  0.00    +0.010 A 
ATOM     11  C   UNL     1       3.935  -0.472   7.254  0.00  0.00    +0.016 A 
ATOM     12  C   UNL     1       5.258  -0.119   7.460  0.00  0.00    +0.018 A 
ATOM     13  C   UNL     1       5.915   0.691   6.548  0.00  0.00    +0.016 A 
ATOM     14  C   UNL     1       5.253   1.151   5.429  0.00  0.00    +0.010 A 
ATOM     15 BR   UNL     1       6.172  -0.744   8.992  0.00  0.00    -0.050 Br
ENDBRANCH   8   9
ENDBRANCH   5   7
ENDBRANCH   2   3
BRANCH   2  16
ATOM     16  N   UNL     1      -2.103   1.072   1.277  0.00  0.00    -0.333 N 
ATOM     17  H   UNL     1      -2.316   0.256   1.757  0.00  0.00    +0.147 HD
BRANCH  16  18
ATOM     18  C   UNL     1      -3.107   1.764   0.597  0.00  0.00    +0.028 A 
ATOM     19  C   UNL     1      -2.793   2.941  -0.093  0.00  0.00    +0.023 A 
ATOM     20  C   UNL     1      -3.751   3.634  -0.764  0.00  0.00    +0.010 A 
ATOM     21  C   UNL     1      -5.078   3.169  -0.771  0.00  0.00    -0.018 A 
ATOM     22  C   UNL     1      -6.088   3.865  -1.456  0.00  0.00    +0.008 A 
ATOM     23  C   UNL     1      -7.363   3.388  -1.444  0.00  0.00    +0.001 A 
ATOM     24  C   UNL     1      -7.684   2.217  -0.760  0.00  0.00    +0.001 A 
ATOM     25  C   UNL     1      -6.733   1.516  -0.085  0.00  0.00    +0.008 A 
ATOM     26  C   UNL     1      -5.405   1.978  -0.075  0.00  0.00    -0.016 A 
ATOM     27  C   UNL     1      -4.396   1.277   0.607  0.00  0.00    +0.031 A 
ENDBRANCH  16  18
ENDBRANCH   2  16
TORSDOF 5
