REMARK  Name = ZINC41036473
REMARK  3 active torsions:
REMARK  status: ('A' for Active; 'I' for Inactive)
REMARK    1  A    between atoms: C_1  and  C_2
REMARK    2  A    between atoms: C_6  and  N_8
REMARK    3  A    between atoms: C_15  and  C_18
REMARK                            x       y       z     vdW  Elec       q    Type
REMARK                         _______ _______ _______ _____ _____    ______ ____
ROOT
ATOM      1  N   UNL     1       0.051  -2.798   2.395  0.00  0.00    -0.192 N 
ATOM      2  C   UNL     1      -0.023  -4.142   2.486  0.00  0.00    +0.251 C 
ATOM      3  O   UNL     1      -0.112  -4.936   1.575  0.00  0.00    -0.272 OA
ATOM      4  C   UNL     1       0.028  -4.450   3.966  0.00  0.00    +0.113 C 
ATOM      5  C   UNL     1      -1.250  -5.154   4.406  0.00  0.00    +0.035 C 
ATOM      6  C   UNL     1      -1.358  -6.508   3.700  0.00  0.00    +0.003 C 
ATOM      7  C   UNL     1      -0.138  -7.362   4.050  0.00  0.00    +0.003 C 
ATOM      8  C   UNL     1       1.135  -6.654   3.583  0.00  0.00    -0.012 C 
ATOM      9  C   UNL     1       1.252  -5.300   4.289  0.00  0.00    +0.038 C 
ATOM     10  C   UNL     1       2.353  -7.514   3.925  0.00  0.00    +0.007 C 
ATOM     11  N   UNL     1       0.135  -3.130   4.601  0.00  0.00    -0.285 N 
ATOM     12  C   UNL     1       0.146  -2.227   3.602  0.00  0.00    +0.314 C 
ATOM     13  O   UNL     1       0.230  -1.027   3.777  0.00  0.00    -0.252 OA
ATOM     14  H   UNL     1       0.190  -2.946   5.551  0.00  0.00    +0.151 HD
ENDROOT
BRANCH   1  20
ATOM     15  C   UNL     1       0.076  -2.812  -2.523  0.00  0.00    +0.044 C 
ATOM     16  C   UNL     1       0.049  -2.071  -1.211  0.00  0.00    -0.049 A 
ATOM     17  C   UNL     1       0.009  -0.688  -1.200  0.00  0.00    +0.003 A 
ATOM     18  C   UNL     1      -0.017  -0.005   0.002  0.00  0.00    +0.002 A 
ATOM     19  C   UNL     1      -0.003  -0.701   1.195  0.00  0.00    +0.024 A 
ATOM     20  C   UNL     1       0.036  -2.089   1.186  0.00  0.00    +0.046 A 
ATOM     21  C   UNL     1       0.057  -2.772  -0.022  0.00  0.00    +0.027 A 
ENDBRANCH   1  20
TORSDOF 1
