REMARK  Name = ZINC13444385
REMARK  9 active torsions:
REMARK  status: ('A' for Active; 'I' for Inactive)
REMARK    1  A    between atoms: C_1  and  O_2
REMARK    2  A    between atoms: O_2  and  C_3
REMARK    3  A    between atoms: C_5  and  C_23
REMARK    4  A    between atoms: C_6  and  N_13
REMARK    5  A    between atoms: C_7  and  O_11
REMARK    6  A    between atoms: C_8  and  O_9
REMARK    7  A    between atoms: O_9  and  C_10
REMARK    8  A    between atoms: O_11  and  C_12
REMARK    9  A    between atoms: C_14  and  C_16
REMARK                            x       y       z     vdW  Elec       q    Type
REMARK                         _______ _______ _______ _____ _____    ______ ____
ROOT
ATOM      1  C   UNL     1       2.494  -6.978  -0.391  0.00  0.00    +0.166 A 
ATOM      2  C   UNL     1       1.336  -6.288  -0.684  0.00  0.00    +0.066 A 
ATOM      3  C   UNL     1       1.300  -4.895  -0.558  0.00  0.00    +0.092 A 
ATOM      4  C   UNL     1       2.446  -4.204  -0.132  0.00  0.00    +0.094 A 
ATOM      5  C   UNL     1       3.609  -4.909   0.155  0.00  0.00    +0.187 A 
ATOM      6  C   UNL     1       3.632  -6.292   0.032  0.00  0.00    +0.205 A 
ENDROOT
BRANCH   4   7
ATOM      7  N   UNL     1       2.419  -2.815  -0.004  0.00  0.00    -0.278 N 
ATOM      8  C   UNL     1       3.390  -2.068  -0.564  0.00  0.00    +0.248 C 
ATOM      9  O   UNL     1       4.344  -2.606  -1.091  0.00  0.00    -0.270 OA
ATOM     10  H   UNL     1       1.701  -2.388   0.489  0.00  0.00    +0.155 HD
BRANCH   8  11
ATOM     11  C   UNL     1       3.296  -0.593  -0.537  0.00  0.00    +0.037 A 
ATOM     12  C   UNL     1       4.301   0.184  -1.116  0.00  0.00    +0.014 A 
ATOM     13  C   UNL     1       4.207   1.560  -1.088  0.00  0.00    +0.016 A 
ATOM     14  C   UNL     1       3.119   2.170  -0.487  0.00  0.00    +0.018 A 
ATOM     15  C   UNL     1       2.119   1.405   0.089  0.00  0.00    +0.016 A 
ATOM     16  C   UNL     1       2.201   0.028   0.067  0.00  0.00    +0.014 A 
ATOM     17 BR   UNL     1       2.998   4.057  -0.454  0.00  0.00    -0.050 Br
ENDBRANCH   8  11
ENDBRANCH   4   7
BRANCH   3  18
ATOM     18  C   UNL     1       0.067  -4.156  -0.870  0.00  0.00    +0.389 C 
ATOM     19  O   UNL     1       0.067  -2.941  -0.863  0.00  0.00    -0.241 OA
ATOM     20  O   UNL     1      -1.065  -4.828  -1.165  0.00  0.00    -0.241 OA
ENDBRANCH   3  18
BRANCH   1  22
ATOM     21  C   UNL     1       1.326  -8.973  -0.952  0.00  0.00    +0.277 C 
ATOM     22  O   UNL     1       2.526  -8.333  -0.514  0.00  0.00    -0.491 OA
ENDBRANCH   1  22
BRANCH   6  23
ATOM     23  O   UNL     1       4.769  -6.978   0.318  0.00  0.00    -0.488 OA
ATOM     24  C   UNL     1       5.689  -7.186  -0.756  0.00  0.00    +0.277 C 
ENDBRANCH   6  23
BRANCH   5  25
ATOM     25  O   UNL     1       4.724  -4.243   0.563  0.00  0.00    -0.490 OA
ATOM     26  C   UNL     1       4.884  -4.046   1.969  0.00  0.00    +0.277 C 
ENDBRANCH   5  25
TORSDOF 6
