REMARK  Name = ZINC65022815
REMARK  10 active torsions:
REMARK  status: ('A' for Active; 'I' for Inactive)
REMARK    1  A    between atoms: C_1  and  C_2
REMARK    2  A    between atoms: C_7  and  S_8
REMARK    3  A    between atoms: S_8  and  N_11
REMARK    4  A    between atoms: N_11  and  C_12
REMARK    5  A    between atoms: C_15  and  C_18
REMARK    6  A    between atoms: C_18  and  C_19
REMARK    7  A    between atoms: C_18  and  C_20
REMARK    8  A    between atoms: N_25  and  C_26
REMARK    9  A    between atoms: C_26  and  C_27
REMARK   10  A    between atoms: C_29  and  C_32
REMARK                            x       y       z     vdW  Elec       q    Type
REMARK                         _______ _______ _______ _____ _____    ______ ____
ROOT
ATOM      1  C   UNL     1      -0.427   1.501  -0.007  0.00  0.00    +0.046 C 
ATOM      2  C   UNL     1      -0.292   0.000  -0.047  0.00  0.00    -0.022 A 
ATOM      3  C   UNL     1      -0.467  -0.677  -1.241  0.00  0.00    +0.032 A 
ATOM      4  C   UNL     1      -0.342  -2.055  -1.275  0.00  0.00    +0.079 A 
ATOM      5  C   UNL     1      -0.042  -2.757  -0.108  0.00  0.00    +0.144 A 
ATOM      6  C   UNL     1       0.132  -2.073   1.082  0.00  0.00    +0.076 A 
ATOM      7  C   UNL     1       0.012  -0.695   1.109  0.00  0.00    +0.115 A 
ATOM      8  O   UNL     1       0.075  -4.111  -0.153  0.00  0.00    -0.481 OA
ATOM      9  C   UNL     1      -0.757  -4.797  -1.091  0.00  0.00    +0.325 C 
ATOM     10  C   UNL     1      -0.700  -4.098  -2.426  0.00  0.00    +0.258 C 
ATOM     11  O   UNL     1      -0.821  -4.734  -3.452  0.00  0.00    -0.271 OA
ATOM     12  N   UNL     1      -0.514  -2.761  -2.474  0.00  0.00    -0.258 N 
ENDROOT
BRANCH   7  13
ATOM     13  S   UNL     1       0.240   0.177   2.623  0.00  0.00    +0.073 S 
ATOM     14  O   UNL     1       0.491  -0.802   3.621  0.00  0.00    -0.150 OA
ATOM     15  O   UNL     1       1.147   1.236   2.349  0.00  0.00    -0.150 OA
BRANCH  13  16
ATOM     16  N   UNL     1      -1.209   0.882   3.005  0.00  0.00    -0.216 N 
ATOM     17  H   UNL     1      -1.297   1.847   2.993  0.00  0.00    +0.174 HD
BRANCH  16  18
ATOM     18  C   UNL     1      -2.305   0.085   3.346  0.00  0.00    +0.048 A 
ATOM     19  C   UNL     1      -2.621  -1.028   2.578  0.00  0.00    +0.025 A 
ATOM     20  C   UNL     1      -3.705  -1.814   2.918  0.00  0.00    +0.006 A 
ATOM     21  C   UNL     1      -4.475  -1.493   4.021  0.00  0.00    -0.045 A 
ATOM     22  C   UNL     1      -4.163  -0.385   4.787  0.00  0.00    +0.006 A 
ATOM     23  C   UNL     1      -3.077   0.401   4.456  0.00  0.00    +0.025 A 
BRANCH  21  24
ATOM     24  C   UNL     1      -5.658  -2.352   4.388  0.00  0.00    +0.013 C 
ATOM     25  C   UNL     1      -5.459  -2.920   5.795  0.00  0.00    +0.012 C 
ATOM     26  C   UNL     1      -6.932  -1.507   4.354  0.00  0.00    +0.012 C 
ENDBRANCH  21  24
ENDBRANCH  16  18
ENDBRANCH  13  16
ENDBRANCH   7  13
BRANCH  12  27
ATOM     27  C   UNL     1      -0.493  -2.059  -3.760  0.00  0.00    +0.193 C 
BRANCH  27  28
ATOM     28  C   UNL     1       0.919  -2.016  -4.286  0.00  0.00    +0.189 A 
ATOM     29  N   UNL     1       1.813  -1.054  -4.035  0.00  0.00    -0.194 NA
ATOM     30  C   UNL     1       2.938  -1.319  -4.640  0.00  0.00    +0.231 A 
ATOM     31  O   UNL     1       2.794  -2.473  -5.304  0.00  0.00    -0.338 OA
ATOM     32  N   UNL     1       1.468  -2.913  -5.053  0.00  0.00    -0.060 NA
BRANCH  30  33
ATOM     33  C   UNL     1       4.184  -0.472  -4.599  0.00  0.00    +0.078 C 
ATOM     34  C   UNL     1       5.329  -0.855  -5.539  0.00  0.00    +0.014 C 
ATOM     35  C   UNL     1       5.454  -1.112  -4.036  0.00  0.00    +0.014 C 
ENDBRANCH  30  33
ENDBRANCH  27  28
ENDBRANCH  12  27
TORSDOF 7
