REMARK  Name = ZINC06681792
REMARK  5 active torsions:
REMARK  status: ('A' for Active; 'I' for Inactive)
REMARK    1  A    between atoms: C_1  and  C_2
REMARK    2  A    between atoms: C_8  and  C_10
REMARK    3  A    between atoms: C_12  and  S_15
REMARK    4  A    between atoms: S_15  and  N_18
REMARK    5  A    between atoms: N_18  and  C_19
REMARK                            x       y       z     vdW  Elec       q    Type
REMARK                         _______ _______ _______ _____ _____    ______ ____
ROOT
ATOM      1  C   UNL     1       3.082   0.435  -3.407  0.00  0.00    +0.076 A 
ATOM      2  C   UNL     1       2.670   0.581  -2.092  0.00  0.00    +0.049 A 
ATOM      3  C   UNL     1       2.067   1.766  -1.753  0.00  0.00    +0.116 A 
ATOM      4  C   UNL     1       1.915   2.728  -2.701  0.00  0.00    +0.074 A 
ATOM      5  S   UNL     1       2.607   2.002  -4.115  0.00  0.00    -0.090 S 
ENDROOT
BRANCH   1  13
ATOM      6  C   UNL     1       6.195  -5.065  -6.262  0.00  0.00    +0.089 C 
ATOM      7  C   UNL     1       5.628  -3.671  -6.353  0.00  0.00    +0.136 A 
ATOM      8  C   UNL     1       5.056  -2.965  -5.352  0.00  0.00    +0.091 A 
ATOM      9  C   UNL     1       4.698  -1.733  -5.963  0.00  0.00    +0.168 A 
ATOM     10  N   UNL     1       5.070  -1.825  -7.213  0.00  0.00    -0.063 NA
ATOM     11  O   UNL     1       5.591  -2.891  -7.443  0.00  0.00    -0.358 OA
ATOM     12  N   UNL     1       4.071  -0.648  -5.354  0.00  0.00    -0.263 N 
ATOM     13  C   UNL     1       3.741  -0.706  -4.048  0.00  0.00    +0.256 C 
ATOM     14  O   UNL     1       3.991  -1.706  -3.401  0.00  0.00    -0.269 OA
ATOM     15  H   UNL     1       3.872   0.149  -5.869  0.00  0.00    +0.157 HD
ENDBRANCH   1  13
BRANCH   3  16
ATOM     16  S   UNL     1       1.505   2.042  -0.106  0.00  0.00    +0.073 S 
ATOM     17  O   UNL     1       1.388   3.449   0.054  0.00  0.00    -0.150 OA
ATOM     18  O   UNL     1       2.321   1.244   0.741  0.00  0.00    -0.150 OA
BRANCH  16  19
ATOM     19  N   UNL     1      -0.029   1.425  -0.003  0.00  0.00    -0.216 N 
ATOM     20  H   UNL     1      -0.779   2.016   0.169  0.00  0.00    +0.174 HD
BRANCH  19  21
ATOM     21  C   UNL     1      -0.244   0.054  -0.170  0.00  0.00    +0.048 A 
ATOM     22  C   UNL     1      -0.805  -0.424  -1.347  0.00  0.00    +0.026 A 
ATOM     23  C   UNL     1      -1.011  -1.779  -1.511  0.00  0.00    +0.022 A 
ATOM     24  C   UNL     1      -0.669  -2.660  -0.500  0.00  0.00    +0.041 A 
ATOM     25  C   UNL     1      -0.114  -2.186   0.675  0.00  0.00    +0.022 A 
ATOM     26  C   UNL     1       0.099  -0.832   0.843  0.00  0.00    +0.026 A 
ATOM     27 CL   UNL     1      -0.936  -4.363  -0.708  0.00  0.00    -0.084 Cl
ENDBRANCH  19  21
ENDBRANCH  16  19
ENDBRANCH   3  16
TORSDOF 4
