REMARK  Name = ZINC03307332
REMARK  5 active torsions:
REMARK  status: ('A' for Active; 'I' for Inactive)
REMARK    1  A    between atoms: C_4  and  S_7
REMARK    2  A    between atoms: S_7  and  C_8
REMARK    3  A    between atoms: C_13  and  N_14
REMARK    4  A    between atoms: C_15  and  C_17
REMARK    5  A    between atoms: C_17  and  N_18
REMARK                            x       y       z     vdW  Elec       q    Type
REMARK                         _______ _______ _______ _____ _____    ______ ____
ROOT
ATOM      1  N   UNL     1      -1.466   8.258  -0.064  0.00  0.00    -0.283 N 
ATOM      2  C   UNL     1      -1.959   9.511  -0.014  0.00  0.00    +0.235 C 
ATOM      3  O   UNL     1      -3.158   9.690   0.024  0.00  0.00    -0.274 OA
ATOM      4  H   UNL     1      -0.509   8.116  -0.126  0.00  0.00    +0.155 HD
ENDROOT
BRANCH   1  10
ATOM      5  C   UNL     1      -1.860   5.902   0.340  0.00  0.00    +0.034 A 
ATOM      6  C   UNL     1      -2.727   4.818   0.369  0.00  0.00    +0.017 A 
ATOM      7  C   UNL     1      -4.059   4.991   0.046  0.00  0.00    +0.001 A 
ATOM      8  C   UNL     1      -4.531   6.239  -0.317  0.00  0.00    +0.002 A 
ATOM      9  C   UNL     1      -3.674   7.323  -0.354  0.00  0.00    +0.024 A 
ATOM     10  C   UNL     1      -2.337   7.161  -0.027  0.00  0.00    +0.047 A 
BRANCH   5  11
ATOM     11  S   UNL     1      -0.162   5.686   0.757  0.00  0.00    -0.088 S 
BRANCH  11  15
ATOM     12  C   UNL     1       0.151   7.338   4.963  0.00  0.00    +0.000 A 
ATOM     13  C   UNL     1      -1.055   7.392   4.288  0.00  0.00    +0.001 A 
ATOM     14  C   UNL     1      -1.153   6.895   3.004  0.00  0.00    +0.015 A 
ATOM     15  C   UNL     1      -0.040   6.329   2.393  0.00  0.00    +0.013 A 
ATOM     16  C   UNL     1       1.169   6.272   3.076  0.00  0.00    +0.015 A 
ATOM     17  C   UNL     1       1.261   6.776   4.358  0.00  0.00    +0.001 A 
ENDBRANCH  11  15
ENDBRANCH   5  11
ENDBRANCH   1  10
BRANCH   2  18
ATOM     18  C   UNL     1      -1.020  10.690  -0.004  0.00  0.00    +0.214 C 
BRANCH  18  19
ATOM     19  N   UNL     1      -1.796  11.932   0.053  0.00  0.00    -0.215 N 
ATOM     20  C   UNL     1      -2.166  12.540   1.196  0.00  0.00    +0.247 C 
ATOM     21  O   UNL     1      -1.931  12.174   2.328  0.00  0.00    -0.273 OA
ATOM     22  C   UNL     1      -2.940  13.778   0.776  0.00  0.00    +0.113 C 
ATOM     23  C   UNL     1      -2.122  15.017   1.205  0.00  0.00    +0.035 C 
ATOM     24  C   UNL     1      -2.513  16.179   0.336  0.00  0.00    +0.003 C 
ATOM     25  C   UNL     1      -3.619  17.047   0.966  0.00  0.00    +0.000 C 
ATOM     26  C   UNL     1      -4.727  16.211   1.634  0.00  0.00    +0.000 C 
ATOM     27  C   UNL     1      -5.110  15.009   0.813  0.00  0.00    +0.003 C 
ATOM     28  C   UNL     1      -4.296  13.800   1.310  0.00  0.00    +0.035 C 
ATOM     29  N   UNL     1      -2.913  13.709  -0.699  0.00  0.00    -0.285 N 
ATOM     30  C   UNL     1      -2.219  12.604  -1.023  0.00  0.00    +0.310 C 
ATOM     31  O   UNL     1      -2.003  12.253  -2.166  0.00  0.00    -0.252 OA
ATOM     32  H   UNL     1      -3.315  14.341  -1.316  0.00  0.00    +0.151 HD
ENDBRANCH  18  19
ENDBRANCH   2  18
TORSDOF 5
