REMARK  Name = ZINC20491636
REMARK  7 active torsions:
REMARK  status: ('A' for Active; 'I' for Inactive)
REMARK    1  A    between atoms: C_1  and  C_2
REMARK    2  A    between atoms: C_2  and  O_3
REMARK    3  A    between atoms: O_3  and  C_4
REMARK    4  A    between atoms: C_7  and  N_10
REMARK    5  A    between atoms: N_10  and  S_11
REMARK    6  A    between atoms: S_11  and  C_14
REMARK    7  A    between atoms: C_19  and  C_20
REMARK                            x       y       z     vdW  Elec       q    Type
REMARK                         _______ _______ _______ _____ _____    ______ ____
ROOT
ATOM      1  S   UNL     1       2.803   3.915   0.064  0.00  0.00    +0.073 S 
ATOM      2  O   UNL     1       3.378   3.486  -1.163  0.00  0.00    -0.150 OA
ATOM      3  O   UNL     1       2.643   5.288   0.392  0.00  0.00    -0.150 OA
ENDROOT
BRANCH   1   4
ATOM      4  C   UNL     1       1.201   3.187   0.151  0.00  0.00    +0.115 A 
ATOM      5  C   UNL     1       0.103   3.972   0.459  0.00  0.00    +0.076 A 
ATOM      6  C   UNL     1      -1.155   3.400   0.528  0.00  0.00    +0.144 A 
ATOM      7  C   UNL     1      -1.312   2.036   0.283  0.00  0.00    +0.076 A 
ATOM      8  C   UNL     1      -0.209   1.256  -0.019  0.00  0.00    +0.032 A 
ATOM      9  C   UNL     1       1.045   1.834  -0.087  0.00  0.00    -0.022 A 
ATOM     10  C   UNL     1       2.246   0.988  -0.422  0.00  0.00    +0.046 C 
ATOM     11  N   UNL     1      -2.592   1.468   0.364  0.00  0.00    -0.280 N 
ATOM     12  C   UNL     1      -3.670   2.283   0.351  0.00  0.00    +0.255 C 
ATOM     13  O   UNL     1      -4.786   1.817   0.446  0.00  0.00    -0.272 OA
ATOM     14  C   UNL     1      -3.480   3.772   0.217  0.00  0.00    +0.325 C 
ATOM     15  O   UNL     1      -2.245   4.156   0.827  0.00  0.00    -0.481 OA
ATOM     16  H   UNL     1      -2.705   0.377   0.436  0.00  0.00    +0.155 HD
ENDBRANCH   1   4
BRANCH   1  17
ATOM     17  N   UNL     1       3.712   3.242   1.274  0.00  0.00    -0.216 N 
ATOM     18  H   UNL     1       4.618   2.668   1.027  0.00  0.00    +0.174 HD
BRANCH  17  22
ATOM     19  C   UNL     1       2.573   3.725   5.254  0.00  0.00    +0.121 A 
ATOM     20  C   UNL     1       2.946   2.474   4.787  0.00  0.00    +0.047 A 
ATOM     21  C   UNL     1       3.324   2.313   3.468  0.00  0.00    +0.028 A 
ATOM     22  C   UNL     1       3.330   3.404   2.610  0.00  0.00    +0.048 A 
ATOM     23  C   UNL     1       2.961   4.658   3.080  0.00  0.00    +0.028 A 
ATOM     24  C   UNL     1       2.578   4.816   4.397  0.00  0.00    +0.047 A 
BRANCH  19  25
ATOM     25  O   UNL     1       2.201   3.882   6.553  0.00  0.00    -0.492 OA
BRANCH  25  27
ATOM     26  C   UNL     1       1.445   5.179   8.447  0.00  0.00    +0.048 C 
ATOM     27  C   UNL     1       1.829   5.199   6.966  0.00  0.00    +0.225 C 
ENDBRANCH  25  27
ENDBRANCH  19  25
ENDBRANCH  17  22
ENDBRANCH   1  17
TORSDOF 5
