REMARK  Name = ZINC64392364
REMARK  11 active torsions:
REMARK  status: ('A' for Active; 'I' for Inactive)
REMARK    1  A    between atoms: C_1  and  C_2
REMARK    2  A    between atoms: C_6  and  C_8
REMARK    3  A    between atoms: C_10  and  C_14
REMARK    4  A    between atoms: C_11  and  C_13
REMARK    5  A    between atoms: C_14  and  S_15
REMARK    6  A    between atoms: S_15  and  C_16
REMARK    7  A    between atoms: C_26  and  C_28
REMARK    8  A    between atoms: C_31  and  O_36
REMARK    9  A    between atoms: C_32  and  O_34
REMARK   10  A    between atoms: O_34  and  C_35
REMARK   11  A    between atoms: O_36  and  C_37
REMARK                            x       y       z     vdW  Elec       q    Type
REMARK                         _______ _______ _______ _____ _____    ______ ____
ROOT
ATOM      1  C   UNL     1       1.687  -8.053   5.385  0.00  0.00    +0.272 C 
ATOM      2  N   UNL     1       0.927  -8.009   6.647  0.00  0.00    -0.163 NA
ATOM      3  N   UNL     1       0.160  -8.903   7.010  0.00  0.00    -0.081 NA
ATOM      4  C   UNL     1      -0.047 -10.048   6.310  0.00  0.00    +0.276 C 
ATOM      5  O   UNL     1      -0.886 -10.853   6.636  0.00  0.00    -0.270 OA
ATOM      6  C   UNL     1       0.825 -10.257   5.109  0.00  0.00    +0.193 C 
ATOM      7  N   UNL     1       0.952  -8.905   4.475  0.00  0.00    -0.178 NA
ATOM      8  N   UNL     1       1.418  -9.242   3.251  0.00  0.00    -0.274 N 
ATOM      9  C   UNL     1       0.634 -10.354   2.860  0.00  0.00    +0.047 C 
ATOM     10  C   UNL     1       0.227 -11.041   3.973  0.00  0.00    +0.027 C 
ATOM     11  H   UNL     1       2.132  -8.816   2.751  0.00  0.00    +0.167 HD
ENDROOT
BRANCH   9  12
ATOM     12  C   UNL     1       0.312 -10.725   1.463  0.00  0.00    +0.000 A 
ATOM     13  C   UNL     1      -0.478 -11.844   1.202  0.00  0.00    +0.013 A 
ATOM     14  C   UNL     1      -0.778 -12.190  -0.099  0.00  0.00    +0.050 A 
ATOM     15  C   UNL     1      -0.294 -11.426  -1.151  0.00  0.00    +0.162 A 
ATOM     16  C   UNL     1       0.496 -10.308  -0.897  0.00  0.00    +0.162 A 
ATOM     17  C   UNL     1       0.794  -9.954   0.406  0.00  0.00    +0.059 A 
BRANCH  16  18
ATOM     18  O   UNL     1       0.971  -9.561  -1.930  0.00  0.00    -0.491 OA
ATOM     19  C   UNL     1       1.775  -8.428  -1.596  0.00  0.00    +0.277 C 
ENDBRANCH  16  18
BRANCH  15  20
ATOM     20  O   UNL     1      -0.591 -11.770  -2.432  0.00  0.00    -0.491 OA
ATOM     21  C   UNL     1      -1.406 -12.928  -2.620  0.00  0.00    +0.277 C 
ENDBRANCH  15  20
ENDBRANCH   9  12
BRANCH   1  22
ATOM     22  S   UNL     1       1.830  -6.383   4.690  0.00  0.00    -0.110 S 
BRANCH  22  23
ATOM     23  C   UNL     1       0.110  -5.855   4.461  0.00  0.00    +0.131 C 
BRANCH  23  26
ATOM     24  C   UNL     1       0.053  -2.845   2.457  0.00  0.00    +0.228 A 
ATOM     25  N   UNL     1       0.076  -4.152   2.576  0.00  0.00    -0.213 NA
ATOM     26  C   UNL     1       0.084  -4.464   3.881  0.00  0.00    +0.093 A 
ATOM     27  C   UNL     1       0.066  -3.314   4.580  0.00  0.00    +0.127 A 
ATOM     28  O   UNL     1       0.051  -2.304   3.688  0.00  0.00    -0.440 OA
ATOM     29  C   UNL     1       0.066  -3.181   6.081  0.00  0.00    +0.088 C 
BRANCH  24  35
ATOM     30  C   UNL     1      -0.018   1.503   0.010  0.00  0.00    +0.044 C 
ATOM     31  C   UNL     1       0.002  -0.004   0.002  0.00  0.00    -0.050 A 
ATOM     32  C   UNL     1       0.006  -0.688  -1.201  0.00  0.00    +0.003 A 
ATOM     33  C   UNL     1       0.025  -2.071  -1.217  0.00  0.00    +0.001 A 
ATOM     34  C   UNL     1       0.040  -2.778  -0.033  0.00  0.00    +0.013 A 
ATOM     35  C   UNL     1       0.036  -2.094   1.184  0.00  0.00    +0.037 A 
ATOM     36  C   UNL     1       0.023  -0.699   1.194  0.00  0.00    +0.016 A 
ENDBRANCH  24  35
ENDBRANCH  23  26
ENDBRANCH  22  23
ENDBRANCH   1  22
TORSDOF 7
