REMARK  Name = ZINC38766325
REMARK  9 active torsions:
REMARK  status: ('A' for Active; 'I' for Inactive)
REMARK    1  A    between atoms: C_1  and  O_2
REMARK    2  A    between atoms: O_2  and  C_3
REMARK    3  A    between atoms: C_8  and  O_9
REMARK    4  A    between atoms: O_9  and  C_10
REMARK    5  A    between atoms: C_14  and  C_16
REMARK    6  A    between atoms: C_19  and  O_23
REMARK    7  A    between atoms: C_21  and  O_22
REMARK    8  A    between atoms: O_23  and  C_24
REMARK    9  A    between atoms: C_24  and  C_25
REMARK                            x       y       z     vdW  Elec       q    Type
REMARK                         _______ _______ _______ _____ _____    ______ ____
ROOT
ATOM      1  C   UNL     1       1.949  -4.817  -1.256  0.00  0.00    +0.025 A 
ATOM      2  C   UNL     1       1.780  -5.578  -2.398  0.00  0.00    +0.013 A 
ATOM      3  C   UNL     1       2.586  -5.363  -3.499  0.00  0.00    +0.046 A 
ATOM      4  C   UNL     1       3.568  -4.383  -3.461  0.00  0.00    +0.124 A 
ATOM      5  C   UNL     1       3.739  -3.619  -2.317  0.00  0.00    +0.091 A 
ATOM      6  C   UNL     1       2.925  -3.832  -1.215  0.00  0.00    +0.126 A 
ENDROOT
BRANCH   1  11
ATOM      7  C   UNL     1      -0.119  -4.106  -0.065  0.00  0.00    +0.154 C 
ATOM      8  C   UNL     1      -1.184  -4.929  -0.143  0.00  0.00    +0.176 C 
ATOM      9  N   UNL     1      -0.793  -6.208  -0.176  0.00  0.00    -0.182 NA
ATOM     10  N   UNL     1       0.427  -6.379  -0.130  0.00  0.00    -0.294 N 
ATOM     11  C   UNL     1       1.068  -5.054  -0.057  0.00  0.00    +0.199 C 
ATOM     12  H   UNL     1       0.885  -7.234  -0.143  0.00  0.00    +0.184 HD
BRANCH   7  13
ATOM     13  O   UNL     1      -0.109  -2.757  -0.012  0.00  0.00    -0.453 OA
BRANCH  13  19
ATOM     14  C   UNL     1       0.470  -0.782   1.192  0.00  0.00    +0.162 A 
ATOM     15  C   UNL     1       0.909  -0.184   2.362  0.00  0.00    +0.049 A 
ATOM     16  C   UNL     1       1.209  -0.962   3.465  0.00  0.00    +0.004 A 
ATOM     17  C   UNL     1       1.072  -2.337   3.404  0.00  0.00    +0.004 A 
ATOM     18  C   UNL     1       0.635  -2.940   2.240  0.00  0.00    +0.050 A 
ATOM     19  C   UNL     1       0.327  -2.166   1.132  0.00  0.00    +0.170 A 
BRANCH  14  21
ATOM     20  C   UNL     1       0.346   1.393   0.240  0.00  0.00    +0.277 C 
ATOM     21  O   UNL     1       0.175  -0.019   0.106  0.00  0.00    -0.491 OA
ENDBRANCH  14  21
ENDBRANCH  13  19
ENDBRANCH   7  13
ENDBRANCH   1  11
BRANCH   6  22
ATOM     22  O   UNL     1       3.087  -3.081  -0.095  0.00  0.00    -0.506 OA
ATOM     23  H   UNL     1       3.714  -3.452   0.541  0.00  0.00    +0.292 HD
ENDBRANCH   6  22
BRANCH   4  24
ATOM     24  O   UNL     1       4.361  -4.172  -4.545  0.00  0.00    -0.487 OA
BRANCH  24  25
ATOM     25  C   UNL     1       4.128  -4.997  -5.689  0.00  0.00    +0.267 C 
BRANCH  25  26
ATOM     26  C   UNL     1       5.095  -4.622  -6.782  0.00  0.00    +0.026 A 
ATOM     27  C   UNL     1       4.756  -3.644  -7.700  0.00  0.00    +0.049 A 
ATOM     28  C   UNL     1       5.644  -3.300  -8.704  0.00  0.00    +0.020 A 
ATOM     29  C   UNL     1       6.869  -3.934  -8.791  0.00  0.00    +0.003 A 
ATOM     30  C   UNL     1       7.208  -4.912  -7.874  0.00  0.00    +0.020 A 
ATOM     31  C   UNL     1       6.323  -5.252  -6.866  0.00  0.00    +0.049 A 
ATOM     32 CL   UNL     1       6.753  -6.474  -5.710  0.00  0.00    -0.083 Cl
ATOM     33 CL   UNL     1       3.217  -2.848  -7.592  0.00  0.00    -0.083 Cl
ENDBRANCH  25  26
ENDBRANCH  24  25
ENDBRANCH   4  24
TORSDOF 8
