REMARK  Name = ZINC58168800
REMARK  7 active torsions:
REMARK  status: ('A' for Active; 'I' for Inactive)
REMARK    1  A    between atoms: C_1  and  C_2
REMARK    2  A    between atoms: C_5  and  N_8
REMARK    3  A    between atoms: N_8  and  C_9
REMARK    4  A    between atoms: C_9  and  C_10
REMARK    5  A    between atoms: N_12  and  N_13
REMARK    6  A    between atoms: C_14  and  C_16
REMARK    7  A    between atoms: C_16  and  N_17
REMARK                            x       y       z     vdW  Elec       q    Type
REMARK                         _______ _______ _______ _____ _____    ______ ____
ROOT
ATOM      1  N   UNL     1       0.126  -8.644   1.716  0.00  0.00    -0.233 N 
ATOM      2  C   UNL     1       0.143  -9.525   2.736  0.00  0.00    +0.247 C 
ATOM      3  O   UNL     1       0.143  -9.127   3.881  0.00  0.00    -0.273 OA
ATOM      4  H   UNL     1       0.126  -8.962   0.800  0.00  0.00    +0.173 HD
ENDROOT
BRANCH   1   7
ATOM      5  C   UNL     1       0.092  -6.387   0.960  0.00  0.00    +0.246 C 
ATOM      6  O   UNL     1       0.092  -6.785  -0.185  0.00  0.00    -0.273 OA
ATOM      7  N   UNL     1       0.109  -7.268   1.980  0.00  0.00    -0.233 N 
ATOM      8  H   UNL     1       0.109  -6.950   2.896  0.00  0.00    +0.173 HD
BRANCH   5   9
ATOM      9  C   UNL     1       0.074  -4.907   1.244  0.00  0.00    +0.199 C 
BRANCH   9  10
ATOM     10  N   UNL     1       0.058  -4.167  -0.021  0.00  0.00    -0.335 N 
ATOM     11  H   UNL     1       0.060  -4.648  -0.864  0.00  0.00    +0.147 HD
BRANCH  10  16
ATOM     12  C   UNL     1      -0.018   1.503   0.010  0.00  0.00    +0.044 C 
ATOM     13  C   UNL     1       0.002  -0.004   0.002  0.00  0.00    -0.050 A 
ATOM     14  C   UNL     1       0.006  -0.687  -1.200  0.00  0.00    +0.005 A 
ATOM     15  C   UNL     1       0.024  -2.068  -1.212  0.00  0.00    +0.023 A 
ATOM     16  C   UNL     1       0.040  -2.771  -0.013  0.00  0.00    +0.028 A 
ATOM     17  C   UNL     1       0.036  -2.081   1.193  0.00  0.00    +0.023 A 
ATOM     18  C   UNL     1       0.023  -0.700   1.197  0.00  0.00    +0.005 A 
ENDBRANCH  10  16
ENDBRANCH   9  10
ENDBRANCH   5   9
ENDBRANCH   1   7
BRANCH   2  19
ATOM     19  C   UNL     1       0.161 -11.005   2.452  0.00  0.00    +0.213 C 
BRANCH  19  20
ATOM     20  N   UNL     1       0.177 -11.745   3.717  0.00  0.00    -0.233 N 
ATOM     21  C   UNL     1       1.310 -12.090   4.339  0.00  0.00    +0.227 C 
ATOM     22  O   UNL     1       2.429 -11.840   3.944  0.00  0.00    -0.275 OA
ATOM     23  C   UNL     1       0.979 -12.838   5.610  0.00  0.00    +0.095 C 
ATOM     24  C   UNL     1       1.369 -14.336   5.411  0.00  0.00    +0.025 C 
ATOM     25  C   UNL     1       0.240 -15.039   6.250  0.00  0.00    +0.016 C 
ATOM     26  C   UNL     1      -0.918 -14.375   5.420  0.00  0.00    +0.025 C 
ATOM     27  C   UNL     1      -0.578 -12.864   5.614  0.00  0.00    +0.095 C 
ATOM     28  C   UNL     1      -0.941 -12.124   4.347  0.00  0.00    +0.227 C 
ATOM     29  O   UNL     1      -2.069 -11.911   3.960  0.00  0.00    -0.275 OA
ATOM     30  C   UNL     1      -0.434 -14.688   3.999  0.00  0.00    -0.027 C 
ATOM     31  C   UNL     1       0.884 -14.665   3.994  0.00  0.00    -0.027 C 
ENDBRANCH  19  20
ENDBRANCH   2  19
TORSDOF 6
