REMARK  Name = ZINC41020853
REMARK  11 active torsions:
REMARK  status: ('A' for Active; 'I' for Inactive)
REMARK    1  A    between atoms: C_1  and  C_2
REMARK    2  A    between atoms: C_2  and  S_3
REMARK    3  A    between atoms: S_3  and  C_4
REMARK    4  A    between atoms: C_9  and  C_26
REMARK    5  A    between atoms: C_11  and  C_15
REMARK    6  A    between atoms: C_12  and  C_14
REMARK    7  A    between atoms: N_17  and  C_18
REMARK    8  A    between atoms: C_22  and  C_25
REMARK    9  A    between atoms: C_23  and  C_24
REMARK   10  A    between atoms: C_30  and  O_32
REMARK   11  A    between atoms: O_32  and  C_33
REMARK                            x       y       z     vdW  Elec       q    Type
REMARK                         _______ _______ _______ _____ _____    ______ ____
ROOT
ATOM      1  C   UNL     1       0.862  -2.044  -1.888  0.00  0.00    +0.210 A 
ATOM      2  N   UNL     1       0.344  -2.758  -0.878  0.00  0.00    -0.187 NA
ATOM      3  C   UNL     1       0.476  -4.032  -1.131  0.00  0.00    +0.219 A 
ATOM      4  N   UNL     1       1.089  -4.160  -2.334  0.00  0.00    -0.220 N 
ATOM      5  N   UNL     1       1.325  -2.869  -2.803  0.00  0.00    -0.141 NA
ATOM      6  C   UNL     1       1.395  -5.448  -2.951  0.00  0.00    +0.177 C 
ATOM      7  C   UNL     1       1.207  -6.547  -1.939  0.00  0.00    +0.060 C 
ATOM      8  C   UNL     1       0.595  -6.359  -0.760  0.00  0.00    +0.018 C 
ATOM      9  N   UNL     1       0.099  -5.136  -0.380  0.00  0.00    -0.287 N 
ATOM     10  C   UNL     1       0.447  -7.529   0.178  0.00  0.00    +0.061 C 
ATOM     11  H   UNL     1      -0.491  -5.048   0.384  0.00  0.00    +0.155 HD
ENDROOT
BRANCH   6  12
ATOM     12  C   UNL     1       0.471  -5.678  -4.119  0.00  0.00    -0.015 A 
ATOM     13  C   UNL     1      -0.897  -5.714  -3.921  0.00  0.00    +0.006 A 
ATOM     14  C   UNL     1      -1.748  -5.924  -4.991  0.00  0.00    +0.004 A 
ATOM     15  C   UNL     1      -1.232  -6.100  -6.261  0.00  0.00    +0.046 A 
ATOM     16  C   UNL     1       0.140  -6.064  -6.462  0.00  0.00    +0.129 A 
ATOM     17  C   UNL     1       0.991  -5.848  -5.388  0.00  0.00    +0.052 A 
BRANCH  16  18
ATOM     18  O   UNL     1       0.649  -6.237  -7.710  0.00  0.00    -0.456 OA
BRANCH  18  19
ATOM     19  C   UNL     1       2.000  -6.304  -7.844  0.00  0.00    +0.128 A 
ATOM     20  C   UNL     1       2.678  -7.458  -7.476  0.00  0.00    +0.046 A 
ATOM     21  C   UNL     1       4.051  -7.524  -7.614  0.00  0.00    +0.004 A 
ATOM     22  C   UNL     1       4.750  -6.442  -8.116  0.00  0.00    +0.000 A 
ATOM     23  C   UNL     1       4.076  -5.291  -8.483  0.00  0.00    +0.004 A 
ATOM     24  C   UNL     1       2.703  -5.222  -8.354  0.00  0.00    +0.046 A 
ENDBRANCH  18  19
ENDBRANCH  16  18
ENDBRANCH   6  12
BRANCH   7  25
ATOM     25  C   UNL     1       1.699  -7.837  -2.245  0.00  0.00    +0.248 C 
ATOM     26  O   UNL     1       2.893  -8.065  -2.183  0.00  0.00    -0.270 OA
ATOM     27  N   UNL     1       0.845  -8.816  -2.606  0.00  0.00    -0.281 N 
ATOM     28  H   UNL     1      -0.099  -8.620  -2.715  0.00  0.00    +0.155 HD
BRANCH  27  29
ATOM     29  C   UNL     1       1.319 -10.113  -2.824  0.00  0.00    +0.037 A 
ATOM     30  C   UNL     1       2.580 -10.310  -3.371  0.00  0.00    +0.023 A 
ATOM     31  C   UNL     1       3.046 -11.592  -3.584  0.00  0.00    +0.002 A 
ATOM     32  C   UNL     1       2.257 -12.680  -3.255  0.00  0.00    +0.004 A 
ATOM     33  C   UNL     1       1.001 -12.487  -2.710  0.00  0.00    -0.046 A 
ATOM     34  C   UNL     1       0.532 -11.207  -2.489  0.00  0.00    -0.026 A 
ATOM     35  C   UNL     1      -0.835 -10.998  -1.889  0.00  0.00    +0.046 C 
ATOM     36  C   UNL     1       0.145 -13.675  -2.353  0.00  0.00    +0.044 C 
ENDBRANCH  27  29
ENDBRANCH   7  25
BRANCH   1  37
ATOM     37  S   UNL     1       0.907  -0.285  -1.980  0.00  0.00    -0.085 S 
BRANCH  37  39
ATOM     38  C   UNL     1       0.099   1.784  -0.385  0.00  0.00    +0.016 C 
ATOM     39  C   UNL     1       0.125   0.255  -0.435  0.00  0.00    +0.074 C 
ENDBRANCH  37  39
ENDBRANCH   1  37
TORSDOF 7
