REMARK  Name = ZINC22728832
REMARK  7 active torsions:
REMARK  status: ('A' for Active; 'I' for Inactive)
REMARK    1  A    between atoms: C_1  and  C_2
REMARK    2  A    between atoms: C_4  and  N_11
REMARK    3  A    between atoms: C_6  and  C_8
REMARK    4  A    between atoms: C_8  and  C_9
REMARK    5  A    between atoms: C_8  and  C_10
REMARK    6  A    between atoms: N_14  and  C_17
REMARK    7  A    between atoms: N_22  and  C_25
REMARK                            x       y       z     vdW  Elec       q    Type
REMARK                         _______ _______ _______ _____ _____    ______ ____
ROOT
ATOM      1  N   UNL     1       0.671  -3.179  -1.920  0.00  0.00    -0.313 N 
ATOM      2  C   UNL     1       0.688  -4.649  -1.962  0.00  0.00    +0.122 C 
ATOM      3  C   UNL     1       1.677  -5.094  -3.045  0.00  0.00    +0.104 C 
ATOM      4  N   UNL     1       1.333  -4.441  -4.315  0.00  0.00    -0.288 NA
ATOM      5  C   UNL     1       1.465  -2.981  -4.217  0.00  0.00    +0.104 C 
ATOM      6  C   UNL     1       0.462  -2.450  -3.180  0.00  0.00    +0.122 C 
ENDROOT
BRANCH   1  10
ATOM      7  C   UNL     1       0.766   1.019   0.648  0.00  0.00    +0.063 C 
ATOM      8  C   UNL     1       0.892  -0.479   0.541  0.00  0.00    +0.017 A 
ATOM      9  C   UNL     1       0.714  -1.110  -0.675  0.00  0.00    +0.064 A 
ATOM     10  C   UNL     1       0.841  -2.500  -0.725  0.00  0.00    +0.125 A 
ATOM     11  N   UNL     1       1.127  -3.161   0.393  0.00  0.00    -0.219 NA
ATOM     12  C   UNL     1       1.289  -2.518   1.532  0.00  0.00    +0.112 A 
ATOM     13  N   UNL     1       1.181  -1.206   1.611  0.00  0.00    -0.347 N 
ATOM     14  H   UNL     1       1.311  -0.767   2.466  0.00  0.00    +0.167 HD
BRANCH  12  15
ATOM     15  C   UNL     1       1.612  -3.302   2.777  0.00  0.00    +0.049 C 
ATOM     16  C   UNL     1       3.128  -3.323   2.987  0.00  0.00    +0.015 C 
ATOM     17  C   UNL     1       0.939  -2.645   3.983  0.00  0.00    +0.015 C 
ENDBRANCH  12  15
ENDBRANCH   1  10
BRANCH   4  18
ATOM     18  C   UNL     1       2.148  -4.970  -5.417  0.00  0.00    +0.153 C 
ATOM     19  C   UNL     1       1.742  -4.317  -6.754  0.00  0.00    +0.125 C 
ATOM     20  C   UNL     1       1.265  -5.485  -7.589  0.00  0.00    +0.228 C 
ATOM     21  O   UNL     1       0.852  -5.412  -8.727  0.00  0.00    -0.275 OA
ATOM     22  N   UNL     1       1.371  -6.611  -6.873  0.00  0.00    -0.209 N 
ATOM     23  C   UNL     1       1.859  -6.439  -5.635  0.00  0.00    +0.244 C 
ATOM     24  O   UNL     1       2.040  -7.318  -4.820  0.00  0.00    -0.273 OA
BRANCH  22  25
ATOM     25  C   UNL     1       1.005  -7.867  -7.376  0.00  0.00    +0.045 A 
ATOM     26  C   UNL     1      -0.099  -8.533  -6.832  0.00  0.00    +0.024 A 
ATOM     27  C   UNL     1      -0.478  -9.753  -7.299  0.00  0.00    +0.010 A 
ATOM     28  C   UNL     1       0.246 -10.356  -8.342  0.00  0.00    -0.018 A 
ATOM     29  C   UNL     1      -0.119 -11.615  -8.848  0.00  0.00    +0.008 A 
ATOM     30  C   UNL     1       0.603 -12.170  -9.859  0.00  0.00    +0.001 A 
ATOM     31  C   UNL     1       1.703 -11.509 -10.403  0.00  0.00    +0.001 A 
ATOM     32  C   UNL     1       2.087 -10.289  -9.938  0.00  0.00    +0.008 A 
ATOM     33  C   UNL     1       1.365  -9.683  -8.895  0.00  0.00    -0.016 A 
ATOM     34  C   UNL     1       1.727  -8.422  -8.394  0.00  0.00    +0.032 A 
ENDBRANCH  22  25
ENDBRANCH   4  18
TORSDOF 4
