REMARK  Name = ZINC11867302
REMARK  10 active torsions:
REMARK  status: ('A' for Active; 'I' for Inactive)
REMARK    1  A    between atoms: C_1  and  C_2
REMARK    2  A    between atoms: C_2  and  C_3
REMARK    3  A    between atoms: C_5  and  C_18
REMARK    4  A    between atoms: C_6  and  O_17
REMARK    5  A    between atoms: C_8  and  O_9
REMARK    6  A    between atoms: O_9  and  C_10
REMARK    7  A    between atoms: C_10  and  C_11
REMARK    8  A    between atoms: C_19  and  C_25
REMARK    9  A    between atoms: C_20  and  N_24
REMARK   10  A    between atoms: C_27  and  C_30
REMARK                            x       y       z     vdW  Elec       q    Type
REMARK                         _______ _______ _______ _____ _____    ______ ____
ROOT
ATOM      1  C   UNL     1      -1.155   0.097   0.615  0.00  0.00    -0.005 A 
ATOM      2  C   UNL     1      -1.859  -0.421   1.682  0.00  0.00    +0.021 A 
ATOM      3  C   UNL     1      -3.128  -0.961   1.483  0.00  0.00    +0.045 A 
ATOM      4  C   UNL     1      -3.683  -0.977   0.199  0.00  0.00    +0.130 A 
ATOM      5  C   UNL     1      -2.969  -0.455  -0.866  0.00  0.00    +0.092 A 
ATOM      6  C   UNL     1      -1.709   0.086  -0.658  0.00  0.00    +0.128 A 
ENDROOT
BRANCH   3   7
ATOM      7  C   UNL     1      -3.886  -1.518   2.627  0.00  0.00    +0.108 A 
ATOM      8  C   UNL     1      -3.417  -2.538   3.568  0.00  0.00    +0.074 A 
ATOM      9  C   UNL     1      -4.452  -2.748   4.466  0.00  0.00    +0.122 A 
ATOM     10  N   UNL     1      -5.470  -1.933   4.115  0.00  0.00    -0.263 N 
ATOM     11  H   UNL     1      -6.322  -1.873   4.574  0.00  0.00    +0.190 HD
ATOM     12  N   UNL     1      -5.105  -1.186   2.992  0.00  0.00    -0.171 NA
BRANCH   8  13
ATOM     13  C   UNL     1      -2.103  -3.209   3.561  0.00  0.00    +0.114 A 
ATOM     14  N   UNL     1      -1.587  -4.061   4.438  0.00  0.00    -0.244 NA
ATOM     15  C   UNL     1      -0.386  -4.567   4.269  0.00  0.00    +0.046 A 
ATOM     16  C   UNL     1       0.348  -4.221   3.182  0.00  0.00    +0.070 A 
ATOM     17  S   UNL     1      -0.781  -3.102   2.362  0.00  0.00    -0.075 S 
ATOM     18  C   UNL     1       0.176  -5.531   5.283  0.00  0.00    +0.066 C 
ENDBRANCH   8  13
BRANCH   9  19
ATOM     19  N   UNL     1      -4.444  -3.635   5.532  0.00  0.00    -0.343 N 
ATOM     20  H   UNL     1      -3.660  -4.181   5.702  0.00  0.00    +0.144 HD
ATOM     21  H   UNL     1      -5.221  -3.709   6.106  0.00  0.00    +0.144 HD
ENDBRANCH   9  19
ENDBRANCH   3   7
BRANCH   1  23
ATOM     22  C   UNL     1       0.103   2.193   1.028  0.00  0.00    +0.009 C 
ATOM     23  C   UNL     1       0.218   0.680   0.832  0.00  0.00    +0.035 C 
ENDBRANCH   1  23
BRANCH   4  24
ATOM     24  O   UNL     1      -4.920  -1.502  -0.003  0.00  0.00    -0.506 OA
ATOM     25  H   UNL     1      -5.633  -0.849   0.018  0.00  0.00    +0.292 HD
ENDBRANCH   4  24
BRANCH   6  26
ATOM     26  O   UNL     1      -1.013   0.603  -1.705  0.00  0.00    -0.487 OA
BRANCH  26  27
ATOM     27  C   UNL     1      -1.642   0.560  -2.987  0.00  0.00    +0.264 C 
BRANCH  27  28
ATOM     28  C   UNL     1      -0.727   1.173  -4.016  0.00  0.00    -0.010 A 
ATOM     29  C   UNL     1      -0.793   2.529  -4.279  0.00  0.00    +0.007 A 
ATOM     30  C   UNL     1       0.046   3.091  -5.223  0.00  0.00    +0.000 A 
ATOM     31  C   UNL     1       0.951   2.298  -5.903  0.00  0.00    +0.000 A 
ATOM     32  C   UNL     1       1.018   0.943  -5.639  0.00  0.00    +0.000 A 
ATOM     33  C   UNL     1       0.182   0.381  -4.692  0.00  0.00    +0.007 A 
ENDBRANCH  27  28
ENDBRANCH  26  27
ENDBRANCH   6  26
TORSDOF 8
