REMARK  Name = ZINC56507912
REMARK  9 active torsions:
REMARK  status: ('A' for Active; 'I' for Inactive)
REMARK    1  A    between atoms: C_1  and  C_2
REMARK    2  A    between atoms: C_4  and  C_8
REMARK    3  A    between atoms: C_5  and  C_7
REMARK    4  A    between atoms: N_10  and  C_11
REMARK    5  A    between atoms: C_11  and  C_12
REMARK    6  A    between atoms: N_14  and  C_15
REMARK    7  A    between atoms: C_19  and  C_22
REMARK    8  A    between atoms: C_20  and  C_21
REMARK    9  A    between atoms: N_24  and  C_25
REMARK                            x       y       z     vdW  Elec       q    Type
REMARK                         _______ _______ _______ _____ _____    ______ ____
ROOT
ATOM      1  C   UNL     1      -5.162  -3.574  -0.469  0.00  0.00    +0.234 C 
ATOM      2  O   UNL     1      -5.721  -2.501  -0.382  0.00  0.00    -0.274 OA
ATOM      3  N   UNL     1      -5.875  -4.715  -0.378  0.00  0.00    -0.284 N 
ATOM      4  H   UNL     1      -5.441  -5.570  -0.522  0.00  0.00    +0.155 HD
ENDROOT
BRANCH   3   5
ATOM      5  C   UNL     1      -7.240  -4.664  -0.074  0.00  0.00    +0.037 A 
ATOM      6  C   UNL     1      -7.775  -3.537   0.538  0.00  0.00    +0.023 A 
ATOM      7  C   UNL     1      -9.123  -3.482   0.839  0.00  0.00    +0.003 A 
ATOM      8  C   UNL     1      -9.946  -4.547   0.535  0.00  0.00    +0.013 A 
ATOM      9  C   UNL     1      -9.419  -5.684  -0.080  0.00  0.00    +0.041 A 
ATOM     10  C   UNL     1      -8.060  -5.737  -0.390  0.00  0.00    -0.017 A 
ATOM     11  C   UNL     1      -7.484  -6.957  -1.059  0.00  0.00    +0.046 C 
BRANCH   9  12
ATOM     12  C   UNL     1     -10.299  -6.826  -0.407  0.00  0.00    +0.244 C 
ATOM     13  O   UNL     1      -9.820  -7.862  -0.826  0.00  0.00    -0.270 OA
ATOM     14  N   UNL     1     -11.632  -6.719  -0.241  0.00  0.00    -0.314 N 
ATOM     15  C   UNL     1     -12.504  -7.851  -0.566  0.00  0.00    +0.128 C 
ATOM     16  H   UNL     1     -12.014  -5.892   0.093  0.00  0.00    +0.149 HD
ENDBRANCH   9  12
ENDBRANCH   3   5
BRANCH   1  17
ATOM     17  C   UNL     1      -3.671  -3.632  -0.679  0.00  0.00    +0.200 C 
BRANCH  17  20
ATOM     18  C   UNL     1      -1.813  -2.075  -0.929  0.00  0.00    +0.248 C 
ATOM     19  O   UNL     1      -1.067  -3.029  -1.041  0.00  0.00    -0.270 OA
ATOM     20  N   UNL     1      -3.134  -2.271  -0.744  0.00  0.00    -0.303 N 
ATOM     21  H   UNL     1      -3.729  -1.510  -0.654  0.00  0.00    +0.150 HD
BRANCH  18  25
ATOM     22  C   UNL     1      -1.418   3.011  -0.944  0.00  0.00    +0.086 C 
ATOM     23  C   UNL     1      -1.119   1.535  -0.998  0.00  0.00    +0.103 A 
ATOM     24  C   UNL     1      -2.024   0.553  -0.878  0.00  0.00    +0.057 A 
ATOM     25  C   UNL     1      -1.273  -0.706  -0.994  0.00  0.00    +0.077 A 
ATOM     26  C   UNL     1       0.029  -0.341  -1.175  0.00  0.00    +0.114 A 
ATOM     27  O   UNL     1       0.096   0.994  -1.179  0.00  0.00    -0.464 OA
ATOM     28  C   UNL     1       1.193  -1.282  -1.347  0.00  0.00    +0.087 C 
ENDBRANCH  18  25
ENDBRANCH  17  20
ENDBRANCH   1  17
TORSDOF 5
