REMARK  Name = ZINC01050400
REMARK  6 active torsions:
REMARK  status: ('A' for Active; 'I' for Inactive)
REMARK    1  A    between atoms: C_1  and  N_2
REMARK    2  A    between atoms: N_2  and  C_3
REMARK    3  A    between atoms: N_2  and  C_4
REMARK    4  A    between atoms: C_7  and  C_11
REMARK    5  A    between atoms: C_12  and  C_13
REMARK    6  A    between atoms: C_12  and  C_15
REMARK                            x       y       z     vdW  Elec       q    Type
REMARK                         _______ _______ _______ _____ _____    ______ ____
ROOT
ATOM      1  C   UNL     1       1.746  -2.830  -1.098  0.00  0.00    +0.027 C 
ATOM      2  C   UNL     1       0.717  -2.178  -0.490  0.00  0.00    +0.059 C 
ENDROOT
BRANCH   1   6
ATOM      3  C   UNL     1       2.012  -7.055  -0.863  0.00  0.00    +0.043 A 
ATOM      4  C   UNL     1       1.421  -6.338   0.174  0.00  0.00    +0.025 A 
ATOM      5  C   UNL     1       1.337  -4.967   0.104  0.00  0.00    +0.010 A 
ATOM      6  C   UNL     1       1.838  -4.292  -1.017  0.00  0.00    -0.023 A 
ATOM      7  C   UNL     1       2.433  -5.018  -2.058  0.00  0.00    +0.025 A 
ATOM      8  C   UNL     1       2.517  -6.389  -1.977  0.00  0.00    +0.039 A 
ATOM      9 BR   UNL     1       3.320  -7.370  -3.380  0.00  0.00    -0.048 Br
BRANCH   3  11
ATOM     10  C   UNL     1       2.877  -8.857   0.391  0.00  0.00    +0.129 C 
ATOM     11  N   UNL     1       2.100  -8.443  -0.785  0.00  0.00    -0.335 N 
ATOM     12  C   UNL     1       0.764  -9.055  -0.775  0.00  0.00    +0.129 C 
ENDBRANCH   3  11
ENDBRANCH   1   6
BRANCH   2  13
ATOM     13  C   UNL     1       0.704  -0.698  -0.442  0.00  0.00    -0.007 A 
ATOM     14  C   UNL     1      -0.289   0.015  -1.115  0.00  0.00    +0.012 A 
ATOM     15  C   UNL     1      -0.298   1.394  -1.067  0.00  0.00    +0.039 A 
ATOM     16  C   UNL     1       0.678   2.071  -0.352  0.00  0.00    +0.123 A 
ATOM     17  C   UNL     1       1.667   1.367   0.317  0.00  0.00    +0.039 A 
ATOM     18  C   UNL     1       1.684  -0.012   0.275  0.00  0.00    +0.012 A 
ATOM     19  F   UNL     1       0.665   3.421  -0.309  0.00  0.00    -0.205 F 
ENDBRANCH   2  13
BRANCH   2  20
ATOM     20  C   UNL     1      -0.352  -2.923   0.103  0.00  0.00    +0.100 C 
ATOM     21  N   UNL     1      -1.200  -3.514   0.574  0.00  0.00    -0.191 NA
ENDBRANCH   2  20
TORSDOF 4
