REMARK  Name = ZINC04733963
REMARK  4 active torsions:
REMARK  status: ('A' for Active; 'I' for Inactive)
REMARK    1  A    between atoms: C_1  and  N_2
REMARK    2  A    between atoms: C_5  and  C_10
REMARK    3  A    between atoms: N_19  and  C_21
REMARK    4  A    between atoms: C_21  and  C_22
REMARK                            x       y       z     vdW  Elec       q    Type
REMARK                         _______ _______ _______ _____ _____    ______ ____
ROOT
ATOM      1  C   UNL     1      -0.579   7.184  -4.252  0.00  0.00    +0.139 C 
ATOM      2  N   UNL     1      -1.747   6.305  -4.347  0.00  0.00    -0.260 N 
ATOM      3  C   UNL     1      -2.014   5.471  -3.299  0.00  0.00    +0.042 C 
ATOM      4  C   UNL     1      -3.073   4.636  -3.322  0.00  0.00    +0.058 C 
ATOM      5  C   UNL     1      -3.957   4.654  -4.553  0.00  0.00    +0.143 C 
ATOM      6  N   UNL     1      -3.584   5.588  -5.628  0.00  0.00    -0.288 N 
ATOM      7  C   UNL     1      -2.494   6.362  -5.457  0.00  0.00    +0.307 C 
ATOM      8  O   UNL     1      -2.178   7.136  -6.340  0.00  0.00    -0.252 OA
ATOM      9  C   UNL     1      -3.132   3.885  -2.130  0.00  0.00    +0.247 C 
ATOM     10  O   UNL     1      -3.986   3.054  -1.882  0.00  0.00    -0.270 OA
ATOM     11  N   UNL     1      -2.121   4.207  -1.303  0.00  0.00    -0.285 N 
ATOM     12  C   UNL     1      -1.326   5.248  -1.971  0.00  0.00    +0.160 C 
ATOM     13  H   UNL     1      -4.111   5.646  -6.441  0.00  0.00    +0.151 HD
ENDROOT
BRANCH   5  14
ATOM     14  C   UNL     1      -5.359   4.989  -4.113  0.00  0.00    -0.004 A 
ATOM     15  C   UNL     1      -5.576   5.569  -2.877  0.00  0.00    +0.007 A 
ATOM     16  C   UNL     1      -6.862   5.876  -2.473  0.00  0.00    +0.000 A 
ATOM     17  C   UNL     1      -7.932   5.602  -3.305  0.00  0.00    +0.001 A 
ATOM     18  C   UNL     1      -7.716   5.021  -4.540  0.00  0.00    +0.020 A 
ATOM     19  C   UNL     1      -6.429   4.719  -4.947  0.00  0.00    +0.046 A 
ATOM     20 CL   UNL     1      -6.157   3.997  -6.502  0.00  0.00    -0.083 Cl
ENDBRANCH   5  14
BRANCH  11  21
ATOM     21  C   UNL     1      -1.864   3.632   0.020  0.00  0.00    +0.182 C 
BRANCH  21  22
ATOM     22  C   UNL     1      -0.969   2.428  -0.121  0.00  0.00    +0.122 A 
ATOM     23  C   UNL     1       0.376   2.440  -0.087  0.00  0.00    +0.046 A 
ATOM     24  C   UNL     1       0.801   1.103  -0.258  0.00  0.00    +0.041 A 
ATOM     25  C   UNL     1      -0.308   0.354  -0.386  0.00  0.00    +0.195 A 
ATOM     26  O   UNL     1      -1.378   1.163  -0.309  0.00  0.00    -0.466 OA
ENDBRANCH  21  22
ENDBRANCH  11  21
TORSDOF 3
