REMARK  Name = ZINC42489187
REMARK  7 active torsions:
REMARK  status: ('A' for Active; 'I' for Inactive)
REMARK    1  A    between atoms: C_1  and  C_2
REMARK    2  A    between atoms: C_2  and  C_3
REMARK    3  A    between atoms: C_3  and  C_4
REMARK    4  A    between atoms: C_3  and  C_6
REMARK    5  A    between atoms: C_4  and  C_5
REMARK    6  A    between atoms: C_20  and  N_22
REMARK    7  A    between atoms: C_26  and  O_29
REMARK                            x       y       z     vdW  Elec       q    Type
REMARK                         _______ _______ _______ _____ _____    ______ ____
ROOT
ATOM      1  C   UNL     1      -1.021  -1.918   0.722  0.00  0.00    +0.071 A 
ATOM      2  C   UNL     1      -1.688  -2.642   1.706  0.00  0.00    +0.014 A 
ATOM      3  C   UNL     1      -1.328  -3.946   1.589  0.00  0.00    +0.042 A 
ATOM      4  N   UNL     1      -0.459  -4.039   0.567  0.00  0.00    -0.281 N 
ATOM      5  H   UNL     1      -0.030  -4.851   0.255  0.00  0.00    +0.189 HD
ATOM      6  N   UNL     1      -0.285  -2.754   0.031  0.00  0.00    -0.178 NA
ATOM      7  C   UNL     1      -1.843  -5.057   2.469  0.00  0.00    +0.074 C 
ATOM      8  C   UNL     1      -2.441  -4.443   3.740  0.00  0.00    +0.114 C 
ATOM      9  N   UNL     1      -3.289  -3.300   3.372  0.00  0.00    -0.295 N 
ATOM     10  C   UNL     1      -2.651  -2.126   2.748  0.00  0.00    +0.146 C 
ATOM     11  C   UNL     1      -4.653  -3.325   3.605  0.00  0.00    +0.220 A 
ATOM     12  N   UNL     1      -5.388  -2.279   3.256  0.00  0.00    -0.223 NA
ATOM     13  C   UNL     1      -6.696  -2.266   3.462  0.00  0.00    +0.118 A 
ATOM     14  C   UNL     1      -7.298  -3.361   4.052  0.00  0.00    +0.063 A 
ATOM     15  C   UNL     1      -6.499  -4.448   4.410  0.00  0.00    +0.126 A 
ATOM     16  N   UNL     1      -5.193  -4.395   4.168  0.00  0.00    -0.199 NA
ENDROOT
BRANCH  15  17
ATOM     17  N   UNL     1      -7.059  -5.567   5.003  0.00  0.00    -0.313 N 
ATOM     18  C   UNL     1      -6.271  -6.794   5.181  0.00  0.00    +0.106 C 
ATOM     19  C   UNL     1      -6.331  -7.211   6.654  0.00  0.00    +0.021 C 
ATOM     20  C   UNL     1      -7.794  -7.335   7.085  0.00  0.00    +0.034 C 
ATOM     21  C   UNL     1      -8.489  -5.979   6.938  0.00  0.00    +0.132 C 
ATOM     22  C   UNL     1      -8.451  -5.547   5.473  0.00  0.00    +0.137 C 
BRANCH  21  23
ATOM     23  O   UNL     1      -9.846  -6.089   7.370  0.00  0.00    -0.390 OA
ATOM     24  H   UNL     1      -9.944  -6.361   8.293  0.00  0.00    +0.210 HD
ENDBRANCH  21  23
ENDBRANCH  15  17
BRANCH   1  25
ATOM     25  C   UNL     1      -1.131  -0.433   0.487  0.00  0.00    +0.039 C 
BRANCH  25  27
ATOM     26  C   UNL     1       0.116   1.731   0.524  0.00  0.00    +0.004 C 
ATOM     27  C   UNL     1       0.248   0.211   0.639  0.00  0.00    +0.006 C 
ENDBRANCH  25  27
BRANCH  25  28
ATOM     28  C   UNL     1      -1.660  -0.178  -0.926  0.00  0.00    +0.006 C 
ATOM     29  C   UNL     1      -3.089  -0.714  -1.040  0.00  0.00    +0.004 C 
ENDBRANCH  25  28
ENDBRANCH   1  25
TORSDOF 5
