REMARK  Name = ZINC40705061
REMARK  6 active torsions:
REMARK  status: ('A' for Active; 'I' for Inactive)
REMARK    1  A    between atoms: C_1  and  C_2
REMARK    2  A    between atoms: C_7  and  N_8
REMARK    3  A    between atoms: C_10  and  N_31
REMARK    4  A    between atoms: C_11  and  N_15
REMARK    5  A    between atoms: N_18  and  C_21
REMARK    6  A    between atoms: C_21  and  C_22
REMARK                            x       y       z     vdW  Elec       q    Type
REMARK                         _______ _______ _______ _____ _____    ______ ____
ROOT
ATOM      1  N   UNL     1      -2.245  -2.072   3.455  0.00  0.00    -0.298 N 
ATOM      2  C   UNL     1      -1.081  -1.831   4.177  0.00  0.00    +0.149 A 
ATOM      3  C   UNL     1      -1.145  -1.313   5.471  0.00  0.00    +0.106 A 
ATOM      4  C   UNL     1       0.053  -1.089   6.152  0.00  0.00    +0.147 A 
ATOM      5  N   UNL     1       1.202  -1.377   5.545  0.00  0.00    -0.219 NA
ATOM      6  C   UNL     1       1.218  -1.865   4.321  0.00  0.00    +0.225 A 
ATOM      7  N   UNL     1       0.110  -2.095   3.646  0.00  0.00    -0.219 NA
ATOM      8  H   UNL     1      -3.110  -1.970   3.881  0.00  0.00    +0.154 HD
ENDROOT
BRANCH   1  15
ATOM      9  C   UNL     1      -4.371  -3.631   2.386  0.00  0.00    +0.045 C 
ATOM     10  C   UNL     1      -3.184  -3.223   1.552  0.00  0.00    -0.029 A 
ATOM     11  C   UNL     1      -3.108  -3.602   0.226  0.00  0.00    +0.006 A 
ATOM     12  C   UNL     1      -2.020  -3.229  -0.540  0.00  0.00    +0.020 A 
ATOM     13  C   UNL     1      -1.002  -2.474   0.018  0.00  0.00    +0.043 A 
ATOM     14  C   UNL     1      -1.072  -2.092   1.345  0.00  0.00    +0.043 A 
ATOM     15  C   UNL     1      -2.168  -2.462   2.115  0.00  0.00    +0.037 A 
ATOM     16 CL   UNL     1       0.363  -2.009  -0.947  0.00  0.00    -0.083 Cl
ENDBRANCH   1  15
BRANCH   4  17
ATOM     17  N   UNL     1       0.047  -0.575   7.443  0.00  0.00    -0.317 N 
ATOM     18  C   UNL     1       0.180   0.871   7.681  0.00  0.00    +0.088 C 
ATOM     19  C   UNL     1       1.282   1.091   8.723  0.00  0.00    -0.059 C 
ATOM     20  N   UNL     1       0.982   0.304   9.926  0.00  0.00    +0.384 N 
ATOM     21  C   UNL     1       1.020  -1.129   9.607  0.00  0.00    -0.059 C 
ATOM     22  C   UNL     1      -0.100  -1.459   8.609  0.00  0.00    +0.088 C 
ATOM     23  H   UNL     1       0.063   0.547  10.265  0.00  0.00    -0.081 HD
BRANCH  20  24
ATOM     24  C   UNL     1       1.978   0.600  10.964  0.00  0.00    -0.043 C 
BRANCH  24  25
ATOM     25  C   UNL     1       1.602  -0.112  12.238  0.00  0.00    -0.060 A 
ATOM     26  C   UNL     1       0.784   0.512  13.162  0.00  0.00    +0.005 A 
ATOM     27  C   UNL     1       0.437  -0.138  14.332  0.00  0.00    +0.050 A 
ATOM     28  C   UNL     1       0.908  -1.417  14.581  0.00  0.00    +0.166 A 
ATOM     29  C   UNL     1       1.732  -2.045  13.650  0.00  0.00    +0.166 A 
ATOM     30  C   UNL     1       2.072  -1.390  12.478  0.00  0.00    +0.051 A 
ATOM     31  O   UNL     1       2.059  -3.283  14.123  0.00  0.00    -0.453 OA
ATOM     32  C   UNL     1       1.763  -3.248  15.532  0.00  0.00    +0.466 C 
ATOM     33  O   UNL     1       0.719  -2.261  15.637  0.00  0.00    -0.453 OA
ENDBRANCH  24  25
ENDBRANCH  20  24
ENDBRANCH   4  17
BRANCH   3  34
ATOM     34  N   UNL     1      -2.381  -1.023   6.073  0.00  0.00    -0.353 N 
ATOM     35  H   UNL     1      -3.206  -1.258   5.622  0.00  0.00    +0.143 HD
ATOM     36  H   UNL     1      -2.408  -0.588   6.939  0.00  0.00    +0.143 HD
ENDBRANCH   3  34
TORSDOF 5
