REMARK  Name = ZINC06743224
REMARK  10 active torsions:
REMARK  status: ('A' for Active; 'I' for Inactive)
REMARK    1  A    between atoms: C_1  and  C_2
REMARK    2  A    between atoms: C_2  and  O_3
REMARK    3  A    between atoms: O_3  and  C_4
REMARK    4  A    between atoms: C_7  and  C_10
REMARK    5  A    between atoms: C_13  and  C_24
REMARK    6  A    between atoms: N_20  and  C_21
REMARK    7  A    between atoms: C_21  and  C_22
REMARK    8  A    between atoms: C_25  and  C_32
REMARK    9  A    between atoms: C_27  and  C_31
REMARK   10  A    between atoms: C_29  and  O_30
REMARK                            x       y       z     vdW  Elec       q    Type
REMARK                         _______ _______ _______ _____ _____    ______ ____
ROOT
ATOM      1  C   UNL     1       1.142  -6.085   1.750  0.00  0.00    +0.142 C 
ATOM      2  C   UNL     1       0.206  -6.552   2.830  0.00  0.00    +0.035 A 
ATOM      3  C   UNL     1      -1.115  -6.661   3.281  0.00  0.00    +0.102 A 
ATOM      4  N   UNL     1      -1.083  -7.264   4.453  0.00  0.00    -0.173 NA
ATOM      5  N   UNL     1       0.126  -7.545   4.788  0.00  0.00    -0.272 N 
ATOM      6  H   UNL     1       0.388  -7.990   5.609  0.00  0.00    +0.189 HD
ATOM      7  C   UNL     1       0.988  -7.126   3.814  0.00  0.00    +0.126 A 
ATOM      8  C   UNL     1       2.393  -7.043   3.400  0.00  0.00    +0.266 C 
ATOM      9  O   UNL     1       3.334  -7.460   4.049  0.00  0.00    -0.268 OA
ATOM     10  N   UNL     1       2.494  -6.440   2.201  0.00  0.00    -0.281 N 
ENDROOT
BRANCH   3  11
ATOM     11  C   UNL     1      -2.328  -6.187   2.570  0.00  0.00    +0.047 A 
ATOM     12  C   UNL     1      -3.270  -5.408   3.237  0.00  0.00    -0.037 A 
ATOM     13  C   UNL     1      -4.396  -4.969   2.572  0.00  0.00    +0.007 A 
ATOM     14  C   UNL     1      -4.594  -5.300   1.243  0.00  0.00    -0.047 A 
ATOM     15  C   UNL     1      -3.665  -6.072   0.571  0.00  0.00    +0.049 A 
ATOM     16  C   UNL     1      -2.527  -6.514   1.226  0.00  0.00    +0.127 A 
ATOM     17  C   UNL     1      -5.827  -4.815   0.525  0.00  0.00    +0.044 C 
ATOM     18  C   UNL     1      -3.059  -5.046   4.685  0.00  0.00    +0.044 C 
BRANCH  16  19
ATOM     19  O   UNL     1      -1.610  -7.268   0.565  0.00  0.00    -0.506 OA
ATOM     20  H   UNL     1      -1.815  -8.213   0.551  0.00  0.00    +0.292 HD
ENDBRANCH  16  19
ENDBRANCH   3  11
BRANCH   1  24
ATOM     21  C   UNL     1       0.820  -1.853   1.253  0.00  0.00    +0.121 A 
ATOM     22  C   UNL     1       0.371  -2.706   0.255  0.00  0.00    +0.046 A 
ATOM     23  C   UNL     1       0.476  -4.074   0.418  0.00  0.00    +0.009 A 
ATOM     24  C   UNL     1       1.029  -4.593   1.575  0.00  0.00    -0.022 A 
ATOM     25  C   UNL     1       1.477  -3.744   2.571  0.00  0.00    +0.009 A 
ATOM     26  C   UNL     1       1.379  -2.376   2.410  0.00  0.00    +0.046 A 
BRANCH  21  27
ATOM     27  O   UNL     1       0.718  -0.507   1.094  0.00  0.00    -0.492 OA
BRANCH  27  29
ATOM     28  C   UNL     1       0.102   1.490  -0.119  0.00  0.00    +0.048 C 
ATOM     29  C   UNL     1       0.132  -0.039  -0.122  0.00  0.00    +0.225 C 
ENDBRANCH  27  29
ENDBRANCH  21  27
ENDBRANCH   1  24
BRANCH  10  30
ATOM     30  C   UNL     1       3.738  -6.181   1.470  0.00  0.00    +0.135 C 
BRANCH  30  31
ATOM     31  C   UNL     1       4.280  -4.831   1.864  0.00  0.00    -0.016 C 
ATOM     32  C   UNL     1       5.504  -4.725   2.318  0.00  0.00    +0.005 C 
ENDBRANCH  30  31
ENDBRANCH  10  30
TORSDOF 7
