REMARK  Name = ZINC13184520
REMARK  10 active torsions:
REMARK  status: ('A' for Active; 'I' for Inactive)
REMARK    1  A    between atoms: C_1  and  C_2
REMARK    2  A    between atoms: C_2  and  C_29
REMARK    3  A    between atoms: C_8  and  O_11
REMARK    4  A    between atoms: O_11  and  C_12
REMARK    5  A    between atoms: C_12  and  C_13
REMARK    6  A    between atoms: N_15  and  C_16
REMARK    7  A    between atoms: N_15  and  C_17
REMARK    8  A    between atoms: C_17  and  C_18
REMARK    9  A    between atoms: N_20  and  C_21
REMARK   10  A    between atoms: C_26  and  C_27
REMARK                            x       y       z     vdW  Elec       q    Type
REMARK                         _______ _______ _______ _____ _____    ______ ____
ROOT
ATOM      1  C   UNL     1      -0.008  -0.670   1.132  0.00  0.00    +0.253 C 
ATOM      2  O   UNL     1      -0.019  -0.069   2.185  0.00  0.00    -0.272 OA
ATOM      3  N   UNL     1      -0.010   0.009  -0.032  0.00  0.00    -0.293 N 
ATOM      4  C   UNL     1       0.003  -0.717  -1.304  0.00  0.00    +0.132 C 
ENDROOT
BRANCH   1   5
ATOM      5  C   UNL     1       0.007  -2.177   1.125  0.00  0.00    +0.324 C 
BRANCH   5   6
ATOM      6  O   UNL     1       0.007  -2.660   2.470  0.00  0.00    -0.479 OA
BRANCH   6  14
ATOM      7  C   UNL     1      -1.926  -4.768   6.338  0.00  0.00    +0.056 C 
ATOM      8  C   UNL     1      -0.409  -4.842   6.153  0.00  0.00    +0.109 C 
ATOM      9  C   UNL     1       0.006  -6.213   5.569  0.00  0.00    +0.086 C 
ATOM     10  C   UNL     1       0.026  -5.926   4.080  0.00  0.00    +0.002 A 
ATOM     11  C   UNL     1       0.043  -6.756   2.979  0.00  0.00    +0.007 A 
ATOM     12  C   UNL     1       0.047  -6.218   1.705  0.00  0.00    +0.004 A 
ATOM     13  C   UNL     1       0.033  -4.845   1.539  0.00  0.00    +0.049 A 
ATOM     14  C   UNL     1       0.020  -4.009   2.641  0.00  0.00    +0.163 A 
ATOM     15  C   UNL     1       0.026  -4.548   3.930  0.00  0.00    +0.166 A 
ATOM     16  O   UNL     1       0.027  -3.920   5.139  0.00  0.00    -0.482 OA
ATOM     17  C   UNL     1       0.314  -4.575   7.475  0.00  0.00    +0.056 C 
ENDBRANCH   6  14
ENDBRANCH   5   6
ENDBRANCH   1   5
BRANCH   3  18
ATOM     18  C   UNL     1      -0.026   1.474  -0.025  0.00  0.00    +0.203 C 
BRANCH  18  19
ATOM     19  C   UNL     1       1.390   1.992  -0.016  0.00  0.00    +0.235 C 
ATOM     20  O   UNL     1       2.320   1.213  -0.016  0.00  0.00    -0.274 OA
ATOM     21  N   UNL     1       1.622   3.319  -0.009  0.00  0.00    -0.283 N 
ATOM     22  H   UNL     1       0.881   3.942  -0.074  0.00  0.00    +0.155 HD
BRANCH  21  23
ATOM     23  C   UNL     1       2.926   3.797   0.093  0.00  0.00    +0.048 A 
ATOM     24  C   UNL     1       3.970   3.110  -0.511  0.00  0.00    +0.024 A 
ATOM     25  C   UNL     1       5.261   3.588  -0.413  0.00  0.00    +0.002 A 
ATOM     26  C   UNL     1       5.528   4.749   0.295  0.00  0.00    +0.001 A 
ATOM     27  C   UNL     1       4.505   5.442   0.906  0.00  0.00    +0.017 A 
ATOM     28  C   UNL     1       3.192   4.973   0.811  0.00  0.00    +0.084 A 
BRANCH  28  29
ATOM     29  C   UNL     1       2.094   5.708   1.463  0.00  0.00    +0.388 C 
ATOM     30  O   UNL     1       0.969   5.247   1.462  0.00  0.00    -0.241 OA
ATOM     31  O   UNL     1       2.336   6.892   2.059  0.00  0.00    -0.241 OA
ENDBRANCH  28  29
ENDBRANCH  21  23
ENDBRANCH  18  19
ENDBRANCH   3  18
TORSDOF 7
