REMARK  Name = ZINC01437508
REMARK  9 active torsions:
REMARK  status: ('A' for Active; 'I' for Inactive)
REMARK    1  A    between atoms: C_1  and  O_2
REMARK    2  A    between atoms: O_2  and  C_3
REMARK    3  A    between atoms: C_5  and  C_13
REMARK    4  A    between atoms: C_7  and  O_11
REMARK    5  A    between atoms: C_8  and  O_9
REMARK    6  A    between atoms: O_9  and  C_10
REMARK    7  A    between atoms: O_11  and  C_12
REMARK    8  A    between atoms: C_18  and  C_28
REMARK    9  A    between atoms: C_31  and  C_34
REMARK                            x       y       z     vdW  Elec       q    Type
REMARK                         _______ _______ _______ _____ _____    ______ ____
ROOT
ATOM      1  C   UNL     1      -4.306   0.199   7.340  0.00  0.00    +0.032 C 
ATOM      2  C   UNL     1      -5.221   0.583   6.179  0.00  0.00    +0.059 C 
ATOM      3  C   UNL     1      -4.698   1.839   5.501  0.00  0.00    +0.017 C 
ATOM      4  C   UNL     1      -3.379   2.075   5.436  0.00  0.00    +0.036 C 
ATOM      5  C   UNL     1      -2.722   3.258   4.764  0.00  0.00    +0.136 C 
ATOM      6  N   UNL     1      -3.635   4.316   4.388  0.00  0.00    -0.331 N 
ATOM      7  C   UNL     1      -4.625   4.107   3.429  0.00  0.00    +0.049 A 
ATOM      8  C   UNL     1      -4.613   4.780   2.218  0.00  0.00    +0.025 A 
ATOM      9  C   UNL     1      -5.592   4.506   1.278  0.00  0.00    +0.002 A 
ATOM     10  C   UNL     1      -6.572   3.567   1.542  0.00  0.00    +0.002 A 
ATOM     11  C   UNL     1      -6.596   2.905   2.758  0.00  0.00    +0.025 A 
ATOM     12  C   UNL     1      -5.631   3.193   3.707  0.00  0.00    +0.052 A 
ATOM     13  N   UNL     1      -5.659   2.646   4.984  0.00  0.00    -0.316 N 
ATOM     14  C   UNL     1      -2.462   1.177   6.032  0.00  0.00    +0.163 C 
ATOM     15  O   UNL     1      -1.272   1.410   5.946  0.00  0.00    -0.292 OA
ATOM     16  C   UNL     1      -2.906  -0.052   6.767  0.00  0.00    +0.088 C 
ATOM     17  H   UNL     1      -3.558   5.186   4.811  0.00  0.00    +0.147 HD
ATOM     18  H   UNL     1      -6.421   2.856   5.547  0.00  0.00    +0.152 HD
ENDROOT
BRANCH   1  21
ATOM     19  C   UNL     1      -5.646  -2.183   9.950  0.00  0.00    +0.165 A 
ATOM     20  C   UNL     1      -5.173  -1.032   9.338  0.00  0.00    +0.053 A 
ATOM     21  C   UNL     1      -4.818  -1.054   8.002  0.00  0.00    -0.036 A 
ATOM     22  C   UNL     1      -4.938  -2.221   7.270  0.00  0.00    +0.053 A 
ATOM     23  C   UNL     1      -5.404  -3.377   7.877  0.00  0.00    +0.165 A 
ATOM     24  C   UNL     1      -5.762  -3.360   9.220  0.00  0.00    +0.204 A 
BRANCH  19  26
ATOM     25  C   UNL     1      -5.847  -0.917  11.953  0.00  0.00    +0.277 C 
ATOM     26  O   UNL     1      -5.994  -2.160  11.265  0.00  0.00    -0.491 OA
ENDBRANCH  19  26
BRANCH  24  27
ATOM     27  O   UNL     1      -6.225  -4.491   9.817  0.00  0.00    -0.488 OA
ATOM     28  C   UNL     1      -7.637  -4.713   9.781  0.00  0.00    +0.277 C 
ENDBRANCH  24  27
BRANCH  23  29
ATOM     29  O   UNL     1      -5.517  -4.526   7.157  0.00  0.00    -0.491 OA
ATOM     30  C   UNL     1      -5.131  -4.471   5.782  0.00  0.00    +0.277 C 
ENDBRANCH  23  29
ENDBRANCH   1  21
BRANCH   5  31
ATOM     31  C   UNL     1      -2.016   2.773   3.524  0.00  0.00    -0.023 A 
ATOM     32  C   UNL     1      -0.638   2.837   3.443  0.00  0.00    +0.006 A 
ATOM     33  C   UNL     1       0.009   2.391   2.306  0.00  0.00    +0.013 A 
ATOM     34  C   UNL     1      -0.722   1.881   1.250  0.00  0.00    +0.055 A 
ATOM     35  C   UNL     1      -2.101   1.822   1.328  0.00  0.00    +0.013 A 
ATOM     36  C   UNL     1      -2.748   2.263   2.468  0.00  0.00    +0.006 A 
BRANCH  34  37
ATOM     37  C   UNL     1      -0.017   1.395   0.010  0.00  0.00    +0.417 C 
ATOM     38  F   UNL     1       0.289   0.037   0.149  0.00  0.00    -0.166 F 
ATOM     39  F   UNL     1       1.165   2.122  -0.170  0.00  0.00    -0.166 F 
ATOM     40  F   UNL     1      -0.848   1.574  -1.101  0.00  0.00    -0.166 F 
ENDBRANCH  34  37
ENDBRANCH   5  31
TORSDOF 6
