REMARK  Name = ZINC38789727
REMARK  8 active torsions:
REMARK  status: ('A' for Active; 'I' for Inactive)
REMARK    1  A    between atoms: C_1  and  C_2
REMARK    2  A    between atoms: C_2  and  C_3
REMARK    3  A    between atoms: C_5  and  S_12
REMARK    4  A    between atoms: C_9  and  C_10
REMARK    5  A    between atoms: S_12  and  C_13
REMARK    6  A    between atoms: C_13  and  C_14
REMARK    7  A    between atoms: N_16  and  C_17
REMARK    8  A    between atoms: C_19  and  C_28
REMARK                            x       y       z     vdW  Elec       q    Type
REMARK                         _______ _______ _______ _____ _____    ______ ____
ROOT
ATOM      1  C   UNL     1      -3.506  -0.283   5.353  0.00  0.00    +0.224 C 
ATOM      2  O   UNL     1      -4.705  -0.225   5.527  0.00  0.00    -0.275 OA
ATOM      3  N   UNL     1      -2.678  -0.424   6.407  0.00  0.00    -0.302 N 
ATOM      4  H   UNL     1      -1.719  -0.470   6.268  0.00  0.00    +0.150 HD
ENDROOT
BRANCH   3   5
ATOM      5  C   UNL     1      -3.226  -0.507   7.763  0.00  0.00    +0.151 C 
ATOM      6  C   UNL     1      -2.315  -1.343   8.694  0.00  0.00    +0.132 C 
ATOM      7  C   UNL     1      -3.122  -2.187   9.649  0.00  0.00    -0.046 C 
ATOM      8  C   UNL     1      -4.394  -2.414   9.345  0.00  0.00    -0.013 C 
ATOM      9  S   UNL     1      -4.733  -1.565   7.820  0.00  0.00    -0.106 S 
ATOM     10  C   UNL     1      -5.380  -3.231  10.133  0.00  0.00    +0.042 C 
ATOM     11  C   UNL     1      -4.614  -4.073  11.161  0.00  0.00    +0.005 C 
ATOM     12  C   UNL     1      -3.615  -3.166  11.885  0.00  0.00    +0.005 C 
ATOM     13  C   UNL     1      -2.500  -2.764  10.920  0.00  0.00    +0.032 C 
BRANCH   6  14
ATOM     14  C   UNL     1      -1.449  -2.246   7.854  0.00  0.00    +0.220 C 
ATOM     15  O   UNL     1      -1.873  -3.321   7.485  0.00  0.00    -0.275 OA
ATOM     16  N   UNL     1      -0.204  -1.859   7.512  0.00  0.00    -0.329 N 
ATOM     17  H   UNL     1       0.161  -1.032   7.866  0.00  0.00    +0.145 HD
ATOM     18  H   UNL     1       0.327  -2.406   6.913  0.00  0.00    +0.145 HD
ENDBRANCH   6  14
ENDBRANCH   3   5
BRANCH   1  19
ATOM     19  C   UNL     1      -2.942  -0.198   3.958  0.00  0.00    +0.173 C 
BRANCH  19  20
ATOM     20  S   UNL     1      -4.298  -0.013   2.768  0.00  0.00    -0.078 S 
BRANCH  20  23
ATOM     21  C   UNL     1      -1.508   0.054   0.014  0.00  0.00    +0.066 A 
ATOM     22  N   UNL     1      -2.167  -0.004   1.161  0.00  0.00    -0.227 NA
ATOM     23  C   UNL     1      -3.486   0.072   1.206  0.00  0.00    +0.170 A 
ATOM     24  N   UNL     1      -4.233   0.213   0.078  0.00  0.00    -0.301 N 
ATOM     25  C   UNL     1      -3.629   0.280  -1.128  0.00  0.00    +0.270 A 
ATOM     26  O   UNL     1      -4.285   0.407  -2.147  0.00  0.00    -0.266 OA
ATOM     27  C   UNL     1      -2.211   0.204  -1.182  0.00  0.00    +0.137 A 
ATOM     28  H   UNL     1      -5.199   0.267   0.139  0.00  0.00    +0.171 HD
BRANCH  21  30
ATOM     29  C   UNL     1       0.592   1.351   0.250  0.00  0.00    +0.010 C 
ATOM     30  C   UNL     1      -0.004  -0.036   0.001  0.00  0.00    +0.053 C 
ENDBRANCH  21  30
BRANCH  27  31
ATOM     31  C   UNL     1      -1.520   0.275  -2.434  0.00  0.00    +0.106 C 
ATOM     32  N   UNL     1      -0.972   0.331  -3.428  0.00  0.00    -0.191 NA
ENDBRANCH  27  31
ENDBRANCH  20  23
ENDBRANCH  19  20
ENDBRANCH   1  19
TORSDOF 7
