REMARK  Name = ZINC32923258
REMARK  6 active torsions:
REMARK  status: ('A' for Active; 'I' for Inactive)
REMARK    1  A    between atoms: C_1  and  C_2
REMARK    2  A    between atoms: N_4  and  C_9
REMARK    3  A    between atoms: N_7  and  C_8
REMARK    4  A    between atoms: C_9  and  N_10
REMARK    5  A    between atoms: N_18  and  C_19
REMARK    6  A    between atoms: N_18  and  C_20
REMARK                            x       y       z     vdW  Elec       q    Type
REMARK                         _______ _______ _______ _____ _____    ______ ____
ROOT
ATOM      1  N   UNL     1       0.074   2.012  -1.430  0.00  0.00    -0.281 NA
ATOM      2  C   UNL     1       0.943   1.687  -0.291  0.00  0.00    +0.105 C 
ATOM      3  C   UNL     1       0.129   1.756   1.006  0.00  0.00    +0.124 C 
ATOM      4  N   UNL     1      -0.525   3.072   1.077  0.00  0.00    -0.283 N 
ATOM      5  C   UNL     1      -1.303   3.527  -0.086  0.00  0.00    +0.124 C 
ATOM      6  C   UNL     1      -0.432   3.388  -1.339  0.00  0.00    +0.105 C 
ATOM      7  C   UNL     1      -0.414   3.841   2.178  0.00  0.00    +0.304 C 
ATOM      8  O   UNL     1      -0.647   5.032   2.114  0.00  0.00    -0.252 OA
ATOM      9  N   UNL     1      -0.043   3.289   3.350  0.00  0.00    -0.292 N 
ATOM     10  C   UNL     1       0.210   4.142   4.514  0.00  0.00    +0.133 C 
ATOM     11  C   UNL     1       0.106   1.835   3.461  0.00  0.00    +0.133 C 
ENDROOT
BRANCH   1  12
ATOM     12  C   UNL     1       0.771   1.790  -2.704  0.00  0.00    +0.233 C 
BRANCH  12  16
ATOM     13  C   UNL     1      -1.059   4.999  -6.086  0.00  0.00    +0.088 C 
ATOM     14  C   UNL     1      -0.812   3.758  -5.268  0.00  0.00    +0.129 A 
ATOM     15  N   UNL     1       0.047   3.649  -4.306  0.00  0.00    -0.155 NA
ATOM     16  N   UNL     1      -0.028   2.344  -3.800  0.00  0.00    -0.226 N 
ATOM     17  C   UNL     1      -0.968   1.690  -4.514  0.00  0.00    +0.179 A 
ATOM     18  S   UNL     1      -1.447   0.059  -4.306  0.00  0.00    -0.011 S 
ATOM     19  N   UNL     1      -1.463   2.558  -5.420  0.00  0.00    -0.310 N 
ATOM     20  C   UNL     1      -2.510   2.268  -6.402  0.00  0.00    +0.152 C 
ENDBRANCH  12  16
ENDBRANCH   1  12
TORSDOF 2
