REMARK  Name = ZINC48277340
REMARK  6 active torsions:
REMARK  status: ('A' for Active; 'I' for Inactive)
REMARK    1  A    between atoms: C_1  and  C_2
REMARK    2  A    between atoms: C_2  and  C_4
REMARK    3  A    between atoms: C_2  and  O_15
REMARK    4  A    between atoms: N_6  and  C_7
REMARK    5  A    between atoms: O_15  and  C_16
REMARK    6  A    between atoms: C_16  and  C_18
REMARK                            x       y       z     vdW  Elec       q    Type
REMARK                         _______ _______ _______ _____ _____    ______ ____
ROOT
ATOM      1  O   UNL     1      -0.446   2.240   0.380  0.00  0.00    -0.448 OA
ENDROOT
BRANCH   1   3
ATOM      2  C   UNL     1       1.626   1.841  -0.799  0.00  0.00    +0.062 C 
ATOM      3  C   UNL     1       0.540   1.244   0.097  0.00  0.00    +0.259 C 
BRANCH   3   4
ATOM      4  C   UNL     1       1.158   0.769   1.387  0.00  0.00    +0.258 C 
ATOM      5  O   UNL     1       0.857   1.299   2.436  0.00  0.00    -0.271 OA
ATOM      6  N   UNL     1       2.045  -0.246   1.375  0.00  0.00    -0.278 N 
ATOM      7  H   UNL     1       2.231  -0.718   0.549  0.00  0.00    +0.155 HD
BRANCH   6   8
ATOM      8  C   UNL     1       2.700  -0.618   2.558  0.00  0.00    +0.105 A 
ATOM      9  C   UNL     1       3.899  -0.011   2.911  0.00  0.00    +0.147 A 
ATOM     10  C   UNL     1       4.542  -0.381   4.079  0.00  0.00    +0.040 A 
ATOM     11  C   UNL     1       3.993  -1.354   4.894  0.00  0.00    +0.006 A 
ATOM     12  C   UNL     1       2.800  -1.960   4.546  0.00  0.00    +0.040 A 
ATOM     13  C   UNL     1       2.148  -1.591   3.383  0.00  0.00    +0.147 A 
ATOM     14  F   UNL     1       0.980  -2.180   3.046  0.00  0.00    -0.203 F 
ATOM     15  F   UNL     1       4.436   0.939   2.115  0.00  0.00    -0.203 F 
ENDBRANCH   6   8
ENDBRANCH   3   4
ENDBRANCH   1   3
BRANCH   1  16
ATOM     16  C   UNL     1      -1.486   2.330  -0.472  0.00  0.00    +0.361 C 
ATOM     17  O   UNL     1      -1.554   1.584  -1.429  0.00  0.00    -0.243 OA
BRANCH  16  18
ATOM     18  C   UNL     1      -2.541   3.335  -0.243  0.00  0.00    +0.175 A 
ATOM     19  C   UNL     1      -3.684   3.437  -1.165  0.00  0.00    +0.021 A 
ATOM     20  C   UNL     1      -3.832   2.615  -2.277  0.00  0.00    +0.011 A 
ATOM     21  C   UNL     1      -4.931   2.772  -3.094  0.00  0.00    +0.001 A 
ATOM     22  C   UNL     1      -5.888   3.740  -2.820  0.00  0.00    +0.001 A 
ATOM     23  C   UNL     1      -5.761   4.566  -1.723  0.00  0.00    +0.014 A 
ATOM     24  C   UNL     1      -4.659   4.423  -0.886  0.00  0.00    +0.050 A 
ATOM     25  C   UNL     1      -4.445   5.260   0.302  0.00  0.00    +0.272 A 
ATOM     26  O   UNL     1      -5.244   6.128   0.605  0.00  0.00    -0.266 OA
ATOM     27  N   UNL     1      -3.345   5.044   1.051  0.00  0.00    -0.242 N 
ATOM     28  H   UNL     1      -3.207   5.599   1.835  0.00  0.00    +0.192 HD
ATOM     29  N   UNL     1      -2.475   4.144   0.786  0.00  0.00    -0.164 NA
ENDBRANCH  16  18
ENDBRANCH   1  16
TORSDOF 5
