REMARK  Name = ZINC46031514
REMARK  4 active torsions:
REMARK  status: ('A' for Active; 'I' for Inactive)
REMARK    1  A    between atoms: C_8  and  C_12
REMARK    2  A    between atoms: C_12  and  S_13
REMARK    3  A    between atoms: S_13  and  C_14
REMARK    4  A    between atoms: C_20  and  C_22
REMARK                            x       y       z     vdW  Elec       q    Type
REMARK                         _______ _______ _______ _____ _____    ______ ____
ROOT
ATOM      1  C   UNL     1       1.978  -6.552   1.440  0.00  0.00    +0.160 A 
ATOM      2  N   UNL     1       2.249  -7.300   0.381  0.00  0.00    -0.133 NA
ATOM      3  N   UNL     1       2.223  -8.560   0.430  0.00  0.00    -0.125 NA
ATOM      4  C   UNL     1       1.923  -9.212   1.542  0.00  0.00    +0.189 A 
ATOM      5  S   UNL     1       1.653  -7.831   2.650  0.00  0.00    -0.024 S 
ATOM      6  N   UNL     1       1.845 -10.581   1.783  0.00  0.00    -0.259 N 
ATOM      7  C   UNL     1       2.098 -11.455   0.789  0.00  0.00    +0.250 C 
ATOM      8  O   UNL     1       2.394 -11.049  -0.318  0.00  0.00    -0.270 OA
ATOM      9  H   UNL     1       1.609 -10.905   2.666  0.00  0.00    +0.157 HD
ENDROOT
BRANCH   7  10
ATOM     10  C   UNL     1       2.015 -12.906   1.045  0.00  0.00    +0.041 A 
ATOM     11  C   UNL     1       1.670 -13.375   2.315  0.00  0.00    +0.017 A 
ATOM     12  C   UNL     1       1.593 -14.730   2.551  0.00  0.00    +0.050 A 
ATOM     13  C   UNL     1       1.858 -15.634   1.531  0.00  0.00    +0.166 A 
ATOM     14  C   UNL     1       2.204 -15.172   0.260  0.00  0.00    +0.167 A 
ATOM     15  C   UNL     1       2.277 -13.815   0.016  0.00  0.00    +0.062 A 
ATOM     16  O   UNL     1       2.413 -16.249  -0.553  0.00  0.00    -0.453 OA
ATOM     17  C   UNL     1       2.591 -17.370   0.334  0.00  0.00    +0.466 C 
ATOM     18  O   UNL     1       1.850 -16.998   1.510  0.00  0.00    -0.453 OA
ENDBRANCH   7  10
BRANCH   1  19
ATOM     19  S   UNL     1       1.952  -4.798   1.611  0.00  0.00    -0.091 S 
BRANCH  19  20
ATOM     20  C   UNL     1       2.384  -4.189  -0.042  0.00  0.00    +0.132 C 
BRANCH  20  28
ATOM     21  C   UNL     1      -0.016   1.359   0.009  0.00  0.00    +0.005 A 
ATOM     22  C   UNL     1       1.194   2.067   0.002  0.00  0.00    +0.018 A 
ATOM     23  C   UNL     1       2.370   1.401  -0.013  0.00  0.00    +0.096 A 
ATOM     24  N   UNL     1       2.400   0.039  -0.021  0.00  0.00    -0.268 N 
ATOM     25  C   UNL     1       1.236  -0.679  -0.013  0.00  0.00    +0.140 A 
ATOM     26  C   UNL     1       0.002  -0.004   0.002  0.00  0.00    +0.047 A 
ATOM     27  N   UNL     1       1.256  -2.011  -0.020  0.00  0.00    -0.233 NA
ATOM     28  C   UNL     1       2.397  -2.682  -0.034  0.00  0.00    +0.059 A 
ATOM     29  C   UNL     1       3.600  -2.003  -0.042  0.00  0.00    +0.094 A 
ATOM     30  C   UNL     1       3.587  -0.603  -0.035  0.00  0.00    +0.259 A 
ATOM     31  O   UNL     1       4.633   0.026  -0.043  0.00  0.00    -0.267 OA
ENDBRANCH  20  28
ENDBRANCH  19  20
ENDBRANCH   1  19
TORSDOF 4
