REMARK  Name = ZINC08962232
REMARK  7 active torsions:
REMARK  status: ('A' for Active; 'I' for Inactive)
REMARK    1  A    between atoms: C_1  and  C_2
REMARK    2  A    between atoms: C_2  and  C_3
REMARK    3  A    between atoms: C_10  and  N_16
REMARK    4  A    between atoms: N_16  and  S_17
REMARK    5  A    between atoms: S_17  and  C_20
REMARK    6  A    between atoms: C_20  and  C_21
REMARK    7  A    between atoms: C_24  and  C_27
REMARK                            x       y       z     vdW  Elec       q    Type
REMARK                         _______ _______ _______ _____ _____    ______ ____
ROOT
ATOM      1  C   UNL     1       2.884   3.165  -1.757  0.00  0.00    +0.110 C 
ATOM      2  C   UNL     1       2.636   4.333  -0.812  0.00  0.00    +0.251 C 
ATOM      3  O   UNL     1       2.049   3.902   0.410  0.00  0.00    -0.489 OA
ATOM      4  C   UNL     1       1.030   3.008   0.328  0.00  0.00    +0.133 A 
ATOM      5  C   UNL     1      -0.279   3.397   0.555  0.00  0.00    +0.048 A 
ATOM      6  C   UNL     1      -1.301   2.474   0.458  0.00  0.00    +0.028 A 
ATOM      7  C   UNL     1      -1.026   1.151   0.127  0.00  0.00    +0.049 A 
ATOM      8  C   UNL     1       0.279   0.745  -0.095  0.00  0.00    +0.041 A 
ATOM      9  C   UNL     1       1.315   1.673   0.003  0.00  0.00    +0.080 A 
ATOM     10  C   UNL     1       2.717   1.276  -0.227  0.00  0.00    +0.248 C 
ATOM     11  O   UNL     1       3.175   0.283   0.305  0.00  0.00    -0.270 OA
ATOM     12  N   UNL     1       3.486   2.038  -1.043  0.00  0.00    -0.305 N 
ATOM     13  H   UNL     1       4.428   1.837  -1.153  0.00  0.00    +0.149 HD
ENDROOT
BRANCH   1  15
ATOM     14  C   UNL     1       1.787   1.507  -3.271  0.00  0.00    +0.006 C 
ATOM     15  C   UNL     1       1.553   2.720  -2.368  0.00  0.00    +0.022 C 
ENDBRANCH   1  15
BRANCH   7  16
ATOM     16  N   UNL     1      -2.072   0.226   0.024  0.00  0.00    -0.220 N 
ATOM     17  H   UNL     1      -2.654   0.237  -0.752  0.00  0.00    +0.173 HD
BRANCH  16  18
ATOM     18  S   UNL     1      -2.314  -0.887   1.226  0.00  0.00    +0.047 S 
ATOM     19  O   UNL     1      -3.426  -1.656   0.789  0.00  0.00    -0.155 OA
ATOM     20  O   UNL     1      -1.044  -1.494   1.420  0.00  0.00    -0.155 OA
BRANCH  18  21
ATOM     21  C   UNL     1      -2.767   0.093   2.684  0.00  0.00    +0.223 C 
BRANCH  21  22
ATOM     22  C   UNL     1      -2.896  -0.815   3.880  0.00  0.00    -0.025 A 
ATOM     23  C   UNL     1      -4.116  -1.391   4.181  0.00  0.00    +0.005 A 
ATOM     24  C   UNL     1      -4.234  -2.228   5.276  0.00  0.00    +0.003 A 
ATOM     25  C   UNL     1      -3.134  -2.481   6.073  0.00  0.00    -0.050 A 
ATOM     26  C   UNL     1      -1.915  -1.901   5.774  0.00  0.00    +0.003 A 
ATOM     27  C   UNL     1      -1.796  -1.068   4.678  0.00  0.00    +0.005 A 
ATOM     28  C   UNL     1      -3.263  -3.390   7.268  0.00  0.00    +0.044 C 
ENDBRANCH  21  22
ENDBRANCH  18  21
ENDBRANCH  16  18
ENDBRANCH   7  16
TORSDOF 5
