REMARK  Name = ZINC31302294
REMARK  11 active torsions:
REMARK  status: ('A' for Active; 'I' for Inactive)
REMARK    1  A    between atoms: C_1  and  C_2
REMARK    2  A    between atoms: C_6  and  N_9
REMARK    3  A    between atoms: C_7  and  C_8
REMARK    4  A    between atoms: C_10  and  C_12
REMARK    5  A    between atoms: C_12  and  N_13
REMARK    6  A    between atoms: N_13  and  C_14
REMARK    7  A    between atoms: N_13  and  C_15
REMARK    8  A    between atoms: C_15  and  C_17
REMARK    9  A    between atoms: C_15  and  C_18
REMARK   10  A    between atoms: N_20  and  C_21
REMARK   11  A    between atoms: C_24  and  N_27
REMARK                            x       y       z     vdW  Elec       q    Type
REMARK                         _______ _______ _______ _____ _____    ______ ____
ROOT
ATOM      1  C   UNL     1      -1.172  -0.544   0.164  0.00  0.00    +0.017 C 
ATOM      2  C   UNL     1      -1.941  -0.295   1.463  0.00  0.00    -0.004 C 
ENDROOT
BRANCH   1   3
ATOM      3  C   UNL     1      -0.048   0.453   0.046  0.00  0.00    +0.203 C 
ATOM      4  O   UNL     1       1.100   0.068  -0.021  0.00  0.00    -0.277 OA
ATOM      5  N   UNL     1      -0.318   1.773   0.016  0.00  0.00    -0.287 N 
ATOM      6  H   UNL     1      -1.362   2.120   0.003  0.00  0.00    +0.155 HD
BRANCH   5   7
ATOM      7  C   UNL     1       0.729   2.703   0.002  0.00  0.00    +0.033 A 
ATOM      8  C   UNL     1       0.590   3.916   0.663  0.00  0.00    +0.025 A 
ATOM      9  C   UNL     1       1.624   4.830   0.653  0.00  0.00    +0.025 A 
ATOM     10  C   UNL     1       2.800   4.541  -0.026  0.00  0.00    +0.036 A 
ATOM     11  C   UNL     1       2.938   3.329  -0.692  0.00  0.00    +0.025 A 
ATOM     12  C   UNL     1       1.905   2.413  -0.677  0.00  0.00    +0.025 A 
BRANCH  10  13
ATOM     13  N   UNL     1       3.848   5.470  -0.041  0.00  0.00    -0.271 N 
ATOM     14  C   UNL     1       5.083   5.314  -0.819  0.00  0.00    +0.114 C 
ATOM     15  C   UNL     1       6.087   6.314  -0.202  0.00  0.00    +0.029 C 
ATOM     16  C   UNL     1       5.141   7.372   0.413  0.00  0.00    +0.098 C 
ATOM     17  C   UNL     1       3.849   6.622   0.651  0.00  0.00    +0.220 C 
ATOM     18  O   UNL     1       2.946   7.005   1.366  0.00  0.00    -0.275 OA
ENDBRANCH  10  13
ENDBRANCH   5   7
ENDBRANCH   1   3
BRANCH   1  19
ATOM     19  N   UNL     1      -0.619  -1.905   0.175  0.00  0.00    +0.391 N 
ATOM     20  C   UNL     1       0.182  -2.138   1.384  0.00  0.00    -0.094 C 
ATOM     21  H   UNL     1       0.045  -2.008  -0.696  0.00  0.00    -0.080 HD
BRANCH  19  22
ATOM     22  C   UNL     1      -1.686  -2.907   0.050  0.00  0.00    +0.020 C 
BRANCH  22  24
ATOM     23  N   UNL     1      -1.868  -5.345  -0.327  0.00  0.00    -0.287 N 
ATOM     24  C   UNL     1      -1.075  -4.265  -0.181  0.00  0.00    +0.201 C 
ATOM     25  O   UNL     1       0.131  -4.387  -0.236  0.00  0.00    -0.278 OA
ATOM     26  H   UNL     1      -2.961  -5.226  -0.351  0.00  0.00    +0.155 HD
BRANCH  23  32
ATOM     27  C   UNL     1      -2.081 -10.175   0.568  0.00  0.00    +0.044 C 
ATOM     28  C   UNL     1      -1.383  -8.977  -0.023  0.00  0.00    -0.046 A 
ATOM     29  C   UNL     1      -0.180  -9.137  -0.686  0.00  0.00    +0.004 A 
ATOM     30  C   UNL     1       0.464  -8.041  -1.230  0.00  0.00    +0.002 A 
ATOM     31  C   UNL     1      -0.093  -6.782  -1.113  0.00  0.00    +0.023 A 
ATOM     32  C   UNL     1      -1.301  -6.619  -0.447  0.00  0.00    +0.036 A 
ATOM     33  C   UNL     1      -1.942  -7.721   0.103  0.00  0.00    -0.026 A 
ATOM     34  C   UNL     1      -3.250  -7.547   0.832  0.00  0.00    +0.046 C 
ENDBRANCH  23  32
ENDBRANCH  22  24
ENDBRANCH  19  22
ENDBRANCH   1  19
TORSDOF 7
