REMARK  Name = ZINC02305208
REMARK  11 active torsions:
REMARK  status: ('A' for Active; 'I' for Inactive)
REMARK    1  A    between atoms: C_1  and  C_2
REMARK    2  A    between atoms: C_2  and  N_3
REMARK    3  A    between atoms: N_3  and  C_4
REMARK    4  A    between atoms: N_3  and  C_6
REMARK    5  A    between atoms: C_4  and  C_5
REMARK    6  A    between atoms: C_9  and  N_12
REMARK    7  A    between atoms: N_12  and  C_13
REMARK    8  A    between atoms: N_20  and  C_23
REMARK    9  A    between atoms: C_24  and  C_31
REMARK   10  A    between atoms: C_26  and  C_30
REMARK   11  A    between atoms: C_28  and  C_29
REMARK                            x       y       z     vdW  Elec       q    Type
REMARK                         _______ _______ _______ _____ _____    ______ ____
ROOT
ATOM      1  C   UNL     1      -5.201  -1.973   4.863  0.00  0.00    +0.090 C 
ATOM      2  C   UNL     1      -5.802  -2.317   6.061  0.00  0.00    +0.113 C 
ATOM      3  C   UNL     1      -5.136  -2.075   7.353  0.00  0.00    +0.258 C 
ATOM      4  O   UNL     1      -4.034  -1.561   7.401  0.00  0.00    -0.270 OA
ATOM      5  N   UNL     1      -5.781  -2.436   8.481  0.00  0.00    -0.235 N 
ATOM      6  C   UNL     1      -6.996  -3.002   8.442  0.00  0.00    +0.320 C 
ATOM      7  O   UNL     1      -7.524  -3.304   9.494  0.00  0.00    -0.251 OA
ATOM      8  N   UNL     1      -7.659  -3.251   7.304  0.00  0.00    -0.189 N 
ATOM      9  C   UNL     1      -7.138  -2.937   6.100  0.00  0.00    +0.265 C 
ATOM     10  O   UNL     1      -7.752  -3.163   5.075  0.00  0.00    -0.269 OA
ATOM     11  H   UNL     1      -5.357  -2.283   9.339  0.00  0.00    +0.159 HD
ENDROOT
BRANCH   8  12
ATOM     12  C   UNL     1      -8.926  -3.847   7.367  0.00  0.00    +0.052 A 
ATOM     13  C   UNL     1      -9.046  -5.230   7.346  0.00  0.00    -0.028 A 
ATOM     14  C   UNL     1     -10.296  -5.815   7.408  0.00  0.00    +0.008 A 
ATOM     15  C   UNL     1     -11.427  -5.024   7.490  0.00  0.00    -0.050 A 
ATOM     16  C   UNL     1     -11.311  -3.646   7.512  0.00  0.00    +0.008 A 
ATOM     17  C   UNL     1     -10.063  -3.056   7.456  0.00  0.00    -0.028 A 
ATOM     18  C   UNL     1      -9.937  -1.554   7.485  0.00  0.00    +0.046 C 
ATOM     19  C   UNL     1     -12.790  -5.665   7.557  0.00  0.00    +0.044 C 
ATOM     20  C   UNL     1      -7.814  -6.093   7.255  0.00  0.00    +0.046 C 
ENDBRANCH   8  12
BRANCH   1  21
ATOM     21  N   UNL     1      -3.915  -1.566   4.846  0.00  0.00    -0.320 N 
ATOM     22  H   UNL     1      -3.403  -1.543   5.669  0.00  0.00    +0.152 HD
BRANCH  21  26
ATOM     23  C   UNL     1      -2.142  -0.409   1.254  0.00  0.00    +0.030 A 
ATOM     24  C   UNL     1      -1.409  -0.376   2.434  0.00  0.00    +0.025 A 
ATOM     25  C   UNL     1      -1.996  -0.758   3.623  0.00  0.00    +0.025 A 
ATOM     26  C   UNL     1      -3.320  -1.178   3.640  0.00  0.00    +0.031 A 
ATOM     27  C   UNL     1      -4.054  -1.212   2.461  0.00  0.00    +0.025 A 
ATOM     28  C   UNL     1      -3.468  -0.823   1.273  0.00  0.00    +0.025 A 
BRANCH  23  29
ATOM     29  N   UNL     1      -1.548  -0.022   0.050  0.00  0.00    -0.330 N 
BRANCH  29  31
ATOM     30  C   UNL     1      -0.084   1.927   0.253  0.00  0.00    +0.024 C 
ATOM     31  C   UNL     1      -0.149   0.415   0.030  0.00  0.00    +0.102 C 
ENDBRANCH  29  31
BRANCH  29  32
ATOM     32  C   UNL     1      -2.323  -0.052  -1.193  0.00  0.00    +0.102 C 
ATOM     33  C   UNL     1      -2.171  -1.423  -1.855  0.00  0.00    +0.024 C 
ENDBRANCH  29  32
ENDBRANCH  23  29
ENDBRANCH  21  26
ENDBRANCH   1  21
TORSDOF 6
