REMARK  Name = ZINC19432422
REMARK  6 active torsions:
REMARK  status: ('A' for Active; 'I' for Inactive)
REMARK    1  A    between atoms: C_1  and  C_2
REMARK    2  A    between atoms: C_2  and  C_3
REMARK    3  A    between atoms: C_2  and  N_4
REMARK    4  A    between atoms: N_4  and  C_5
REMARK    5  A    between atoms: N_4  and  C_6
REMARK    6  A    between atoms: C_11  and  N_12
REMARK                            x       y       z     vdW  Elec       q    Type
REMARK                         _______ _______ _______ _____ _____    ______ ____
ROOT
ATOM      1  C   UNL     1      -0.421   0.913   2.358  0.00  0.00    +0.051 A 
ATOM      2  C   UNL     1       0.725   1.509   2.863  0.00  0.00    +0.026 A 
ATOM      3  C   UNL     1       1.263   1.071   4.059  0.00  0.00    +0.017 A 
ATOM      4  C   UNL     1       0.662   0.038   4.755  0.00  0.00    +0.020 A 
ATOM      5  C   UNL     1      -0.480  -0.563   4.258  0.00  0.00    +0.039 A 
ATOM      6  C   UNL     1      -1.030  -0.125   3.063  0.00  0.00    +0.047 A 
ATOM      7 BR   UNL     1       1.405  -0.556   6.389  0.00  0.00    -0.050 Br
ENDROOT
BRANCH   6   8
ATOM      8  N   UNL     1      -2.191  -0.727   2.561  0.00  0.00    -0.357 N 
ATOM      9  H   UNL     1      -2.670  -1.546   3.118  0.00  0.00    +0.142 HD
ATOM     10  H   UNL     1      -2.623  -0.381   1.610  0.00  0.00    +0.142 HD
ENDBRANCH   6   8
BRANCH   1  11
ATOM     11  N   UNL     1      -0.968   1.356   1.147  0.00  0.00    -0.329 N 
ATOM     12  C   UNL     1      -1.389   2.760   1.242  0.00  0.00    +0.129 C 
BRANCH  11  14
ATOM     13  C   UNL     1      -0.685   1.574  -1.275  0.00  0.00    +0.027 C 
ATOM     14  C   UNL     1      -0.021   1.164   0.041  0.00  0.00    +0.067 C 
ATOM     15  C   UNL     1       0.388  -0.309  -0.031  0.00  0.00    +0.027 C 
ENDBRANCH  11  14
ENDBRANCH   1  11
TORSDOF 3
