REMARK  Name = ZINC01035614
REMARK  8 active torsions:
REMARK  status: ('A' for Active; 'I' for Inactive)
REMARK    1  A    between atoms: C_1  and  C_2
REMARK    2  A    between atoms: C_2  and  O_3
REMARK    3  A    between atoms: O_3  and  C_4
REMARK    4  A    between atoms: C_4  and  C_6
REMARK    5  A    between atoms: C_7  and  N_17
REMARK    6  A    between atoms: C_9  and  C_16
REMARK    7  A    between atoms: C_11  and  C_15
REMARK    8  A    between atoms: N_20  and  C_21
REMARK                            x       y       z     vdW  Elec       q    Type
REMARK                         _______ _______ _______ _____ _____    ______ ____
ROOT
ATOM      1  C   UNL     1      -3.639  -2.926  -0.714  0.00  0.00    +0.120 A 
ATOM      2  C   UNL     1      -3.520  -4.243  -1.098  0.00  0.00    +0.065 A 
ATOM      3  C   UNL     1      -4.434  -4.753  -2.108  0.00  0.00    +0.033 A 
ATOM      4  C   UNL     1      -4.506  -6.057  -2.659  0.00  0.00    -0.037 A 
ATOM      5  C   UNL     1      -5.458  -6.325  -3.614  0.00  0.00    +0.027 A 
ATOM      6  C   UNL     1      -6.335  -5.333  -4.029  0.00  0.00    +0.040 A 
ATOM      7  N   UNL     1      -6.265  -4.122  -3.514  0.00  0.00    -0.245 NA
ATOM      8  C   UNL     1      -5.371  -3.815  -2.598  0.00  0.00    +0.111 A 
ATOM      9  S   UNL     1      -4.998  -2.330  -1.700  0.00  0.00    -0.060 S 
ATOM     10  C   UNL     1      -7.373  -5.643  -5.076  0.00  0.00    +0.065 C 
ATOM     11  C   UNL     1      -3.552  -7.133  -2.207  0.00  0.00    +0.044 C 
ENDROOT
BRANCH   2  12
ATOM     12  N   UNL     1      -2.549  -5.065  -0.535  0.00  0.00    -0.267 N 
ATOM     13  C   UNL     1      -1.253  -4.699  -0.572  0.00  0.00    +0.308 C 
ATOM     14  O   UNL     1      -0.927  -3.671  -1.132  0.00  0.00    -0.252 OA
ATOM     15  N   UNL     1      -0.317  -5.473   0.013  0.00  0.00    -0.269 N 
ATOM     16  H   UNL     1      -2.805  -5.902  -0.117  0.00  0.00    +0.156 HD
ATOM     17  H   UNL     1      -0.568  -6.323   0.408  0.00  0.00    +0.156 HD
BRANCH  15  18
ATOM     18  C   UNL     1       1.017  -5.051   0.050  0.00  0.00    +0.035 A 
ATOM     19  C   UNL     1       1.317  -3.706   0.217  0.00  0.00    +0.025 A 
ATOM     20  C   UNL     1       2.634  -3.292   0.254  0.00  0.00    +0.022 A 
ATOM     21  C   UNL     1       3.655  -4.218   0.123  0.00  0.00    +0.041 A 
ATOM     22  C   UNL     1       3.359  -5.559  -0.044  0.00  0.00    +0.022 A 
ATOM     23  C   UNL     1       2.043  -5.979  -0.075  0.00  0.00    +0.025 A 
ATOM     24 CL   UNL     1       5.309  -3.694   0.169  0.00  0.00    -0.084 Cl
ENDBRANCH  15  18
ENDBRANCH   2  12
BRANCH   1  25
ATOM     25  C   UNL     1      -2.870  -2.217   0.242  0.00  0.00    +0.348 C 
ATOM     26  O   UNL     1      -1.878  -2.729   0.726  0.00  0.00    -0.244 OA
BRANCH  25  27
ATOM     27  O   UNL     1      -3.237  -0.973   0.615  0.00  0.00    -0.461 OA
BRANCH  27  29
ATOM     28  C   UNL     1      -2.985   1.072   1.878  0.00  0.00    +0.048 C 
ATOM     29  C   UNL     1      -2.415  -0.317   1.583  0.00  0.00    +0.229 C 
ENDBRANCH  27  29
ENDBRANCH  25  27
ENDBRANCH   1  25
TORSDOF 5
