REMARK  Name = ZINC14461493
REMARK  9 active torsions:
REMARK  status: ('A' for Active; 'I' for Inactive)
REMARK    1  A    between atoms: C_1  and  C_2
REMARK    2  A    between atoms: C_2  and  N_3
REMARK    3  A    between atoms: N_3  and  C_4
REMARK    4  A    between atoms: N_3  and  C_6
REMARK    5  A    between atoms: C_4  and  C_5
REMARK    6  A    between atoms: C_9  and  C_12
REMARK    7  A    between atoms: C_22  and  N_30
REMARK    8  A    between atoms: C_25  and  O_28
REMARK    9  A    between atoms: O_28  and  C_29
REMARK                            x       y       z     vdW  Elec       q    Type
REMARK                         _______ _______ _______ _____ _____    ______ ____
ROOT
ATOM      1  C   UNL     1      -1.618  -5.444   0.528  0.00  0.00    +0.105 C 
ATOM      2  C   UNL     1      -0.389  -5.872   1.310  0.00  0.00    +0.029 C 
ATOM      3  C   UNL     1       0.928  -5.149   0.995  0.00  0.00    +0.033 C 
ATOM      4  C   UNL     1       1.655  -5.237   2.338  0.00  0.00    -0.030 C 
ATOM      5  C   UNL     1       0.774  -5.346   3.325  0.00  0.00    -0.023 C 
ATOM      6  C   UNL     1      -0.607  -5.333   2.755  0.00  0.00    +0.051 C 
ATOM      7  C   UNL     1      -1.732  -6.084   3.354  0.00  0.00    +0.014 A 
ATOM      8  C   UNL     1      -1.773  -6.413   4.693  0.00  0.00    +0.132 A 
ATOM      9  C   UNL     1      -2.852  -7.104   5.211  0.00  0.00    +0.037 A 
ATOM     10  C   UNL     1      -3.900  -7.471   4.385  0.00  0.00    +0.050 A 
ATOM     11  C   UNL     1      -3.867  -7.151   3.040  0.00  0.00    +0.141 A 
ATOM     12  C   UNL     1      -2.779  -6.460   2.509  0.00  0.00    +0.076 A 
ATOM     13  N   UNL     1      -2.752  -6.177   1.131  0.00  0.00    -0.334 N 
ATOM     14  H   UNL     1      -3.487  -6.466   0.568  0.00  0.00    +0.147 HD
ENDROOT
BRANCH   1  18
ATOM     15  C   UNL     1      -2.216  -1.231   0.905  0.00  0.00    +0.013 A 
ATOM     16  C   UNL     1      -1.408  -1.727  -0.101  0.00  0.00    +0.022 A 
ATOM     17  C   UNL     1      -1.214  -3.090  -0.223  0.00  0.00    +0.007 A 
ATOM     18  C   UNL     1      -1.828  -3.958   0.661  0.00  0.00    -0.027 A 
ATOM     19  C   UNL     1      -2.636  -3.461   1.668  0.00  0.00    +0.007 A 
ATOM     20  C   UNL     1      -2.826  -2.098   1.792  0.00  0.00    +0.022 A 
BRANCH  15  21
ATOM     21  N   UNL     1      -2.412   0.148   1.028  0.00  0.00    -0.394 NA
ATOM     22  H   UNL     1      -3.021   0.332   1.811  0.00  0.00    +0.126 HD
BRANCH  21  24
ATOM     23  C   UNL     1      -1.345   2.299   1.506  0.00  0.00    +0.022 C 
ATOM     24  C   UNL     1      -1.119   0.808   1.247  0.00  0.00    +0.081 C 
ENDBRANCH  21  24
BRANCH  21  25
ATOM     25  C   UNL     1      -3.025   0.667  -0.202  0.00  0.00    +0.081 C 
ATOM     26  C   UNL     1      -4.426   0.072  -0.364  0.00  0.00    +0.022 C 
ENDBRANCH  21  25
ENDBRANCH  15  21
ENDBRANCH   1  18
BRANCH   8  27
ATOM     27  N   UNL     1      -0.655  -6.023   5.581  0.00  0.00    +0.057 N 
ATOM     28  O   UNL     1      -0.110  -6.855   6.269  0.00  0.00    -0.126 OA
ATOM     29  O   UNL     1      -0.285  -4.872   5.618  0.00  0.00    -0.126 OA
ENDBRANCH   8  27
BRANCH  11  30
ATOM     30  O   UNL     1      -4.900  -7.512   2.232  0.00  0.00    -0.493 OA
ATOM     31  C   UNL     1      -5.983  -8.218   2.841  0.00  0.00    +0.277 C 
ENDBRANCH  11  30
TORSDOF 6
