REMARK  Name = ZINC38670760
REMARK  8 active torsions:
REMARK  status: ('A' for Active; 'I' for Inactive)
REMARK    1  A    between atoms: C_1  and  C_2
REMARK    2  A    between atoms: C_5  and  C_9
REMARK    3  A    between atoms: C_6  and  C_8
REMARK    4  A    between atoms: N_11  and  C_12
REMARK    5  A    between atoms: C_12  and  C_13
REMARK    6  A    between atoms: C_13  and  C_15
REMARK    7  A    between atoms: C_13  and  N_26
REMARK    8  A    between atoms: N_24  and  C_25
REMARK                            x       y       z     vdW  Elec       q    Type
REMARK                         _______ _______ _______ _____ _____    ______ ____
ROOT
ATOM      1  C   UNL     1      -0.531  -6.038  -3.758  0.00  0.00    -0.020 C 
ENDROOT
BRANCH   1   2
ATOM      2  C   UNL     1      -0.205  -7.486  -4.018  0.00  0.00    -0.059 A 
ATOM      3  C   UNL     1       1.107  -7.872  -4.220  0.00  0.00    +0.004 A 
ATOM      4  C   UNL     1       1.406  -9.198  -4.460  0.00  0.00    +0.023 A 
ATOM      5  C   UNL     1       0.388 -10.145  -4.498  0.00  0.00    +0.033 A 
ATOM      6  C   UNL     1      -0.927  -9.758  -4.292  0.00  0.00    -0.026 A 
ATOM      7  C   UNL     1      -1.217  -8.425  -4.049  0.00  0.00    +0.007 A 
ATOM      8  C   UNL     1      -2.054 -10.756  -4.315  0.00  0.00    +0.038 C 
ATOM      9  C   UNL     1      -1.635 -12.020  -5.066  0.00  0.00    +0.024 C 
ATOM     10  C   UNL     1      -0.301 -12.518  -4.493  0.00  0.00    +0.105 C 
ATOM     11  N   UNL     1       0.711 -11.483  -4.747  0.00  0.00    -0.333 N 
ATOM     12  C   UNL     1       2.036 -11.847  -5.254  0.00  0.00    +0.129 C 
ENDBRANCH   1   2
BRANCH   1  13
ATOM     13  N   UNL     1       0.293  -5.187  -4.626  0.00  0.00    +0.385 N 
ATOM     14  C   UNL     1       0.005  -3.776  -4.341  0.00  0.00    -0.078 C 
ATOM     15  C   UNL     1       0.919  -2.884  -5.184  0.00  0.00    -0.019 C 
ATOM     16  C   UNL     1       0.671  -3.168  -6.669  0.00  0.00    -0.004 C 
ATOM     17  C   UNL     1       0.902  -4.657  -6.940  0.00  0.00    -0.019 C 
ATOM     18  C   UNL     1      -0.011  -5.483  -6.031  0.00  0.00    -0.078 C 
ATOM     19  H   UNL     1       1.269  -5.371  -4.448  0.00  0.00    -0.081 HD
ENDBRANCH   1  13
BRANCH   1  20
ATOM     20  C   UNL     1      -0.241  -5.705  -2.293  0.00  0.00    +0.094 C 
BRANCH  20  23
ATOM     21  C   UNL     1      -1.057  -6.360  -0.092  0.00  0.00    +0.244 C 
ATOM     22  O   UNL     1      -0.354  -5.496   0.393  0.00  0.00    -0.270 OA
ATOM     23  N   UNL     1      -1.072  -6.546  -1.427  0.00  0.00    -0.313 N 
ATOM     24  H   UNL     1      -1.633  -7.236  -1.815  0.00  0.00    +0.149 HD
BRANCH  21  29
ATOM     25  C   UNL     1      -4.321  -9.663   3.308  0.00  0.00    +0.044 C 
ATOM     26  C   UNL     1      -3.466  -8.798   2.417  0.00  0.00    -0.050 A 
ATOM     27  C   UNL     1      -3.555  -8.925   1.042  0.00  0.00    +0.004 A 
ATOM     28  C   UNL     1      -2.776  -8.136   0.222  0.00  0.00    +0.013 A 
ATOM     29  C   UNL     1      -1.896  -7.209   0.781  0.00  0.00    +0.040 A 
ATOM     30  C   UNL     1      -1.810  -7.085   2.169  0.00  0.00    -0.038 A 
ATOM     31  C   UNL     1      -2.599  -7.877   2.978  0.00  0.00    +0.007 A 
ATOM     32  C   UNL     1      -0.863  -6.087   2.781  0.00  0.00    +0.044 C 
ENDBRANCH  21  29
ENDBRANCH  20  23
ENDBRANCH   1  20
TORSDOF 5
