REMARK  Name = ZINC08709373
REMARK  7 active torsions:
REMARK  status: ('A' for Active; 'I' for Inactive)
REMARK    1  A    between atoms: C_1  and  C_2
REMARK    2  A    between atoms: C_5  and  C_24
REMARK    3  A    between atoms: C_6  and  N_8
REMARK    4  A    between atoms: C_12  and  S_13
REMARK    5  A    between atoms: S_13  and  C_14
REMARK    6  A    between atoms: C_14  and  C_15
REMARK    7  A    between atoms: C_20  and  C_23
REMARK                            x       y       z     vdW  Elec       q    Type
REMARK                         _______ _______ _______ _____ _____    ______ ____
ROOT
ATOM      1  N   UNL     1      -8.735   4.449   6.560  0.00  0.00    -0.276 N 
ATOM      2  C   UNL     1     -10.006   4.501   6.053  0.00  0.00    +0.230 A 
ATOM      3  N   UNL     1      -9.943   4.117   4.810  0.00  0.00    -0.137 NA
ATOM      4  N   UNL     1      -8.729   3.834   4.495  0.00  0.00    -0.122 NA
ATOM      5  C   UNL     1      -7.945   4.014   5.532  0.00  0.00    +0.196 A 
ENDROOT
BRANCH   1  11
ATOM      6  C   UNL     1      -8.850   3.522  11.390  0.00  0.00    +0.044 C 
ATOM      7  C   UNL     1      -8.369   4.342  10.220  0.00  0.00    -0.048 A 
ATOM      8  C   UNL     1      -7.526   5.418  10.431  0.00  0.00    +0.004 A 
ATOM      9  C   UNL     1      -7.083   6.172   9.361  0.00  0.00    +0.005 A 
ATOM     10  C   UNL     1      -7.482   5.854   8.077  0.00  0.00    -0.026 A 
ATOM     11  C   UNL     1      -8.328   4.775   7.862  0.00  0.00    +0.053 A 
ATOM     12  C   UNL     1      -8.776   4.023   8.940  0.00  0.00    +0.030 A 
ATOM     13  C   UNL     1      -6.999   6.677   6.911  0.00  0.00    +0.046 C 
ENDBRANCH   1  11
BRANCH   5  14
ATOM     14  S   UNL     1      -6.203   3.752   5.587  0.00  0.00    -0.076 S 
BRANCH  14  15
ATOM     15  C   UNL     1      -5.916   3.196   3.889  0.00  0.00    +0.173 C 
BRANCH  15  16
ATOM     16  C   UNL     1      -4.449   2.904   3.697  0.00  0.00    +0.229 C 
ATOM     17  O   UNL     1      -3.675   3.058   4.618  0.00  0.00    -0.275 OA
ATOM     18  N   UNL     1      -3.999   2.473   2.502  0.00  0.00    -0.264 N 
ATOM     19  C   UNL     1      -2.646   2.204   2.326  0.00  0.00    +0.165 A 
ATOM     20  N   UNL     1      -2.019   1.784   1.244  0.00  0.00    -0.230 NA
ATOM     21  C   UNL     1      -0.718   1.572   1.248  0.00  0.00    +0.047 A 
ATOM     22  C   UNL     1      -0.029   1.806   2.391  0.00  0.00    +0.071 A 
ATOM     23  S   UNL     1      -1.348   2.342   3.471  0.00  0.00    -0.060 S 
ATOM     24  C   UNL     1      -0.013   1.086   0.008  0.00  0.00    +0.066 C 
ATOM     25  H   UNL     1      -4.618   2.351   1.766  0.00  0.00    +0.157 HD
ENDBRANCH  15  16
ENDBRANCH  14  15
ENDBRANCH   5  14
TORSDOF 4
