REMARK  Name = ZINC63234458
REMARK  12 active torsions:
REMARK  status: ('A' for Active; 'I' for Inactive)
REMARK    1  A    between atoms: C_1  and  C_2
REMARK    2  A    between atoms: C_2  and  C_3
REMARK    3  A    between atoms: C_7  and  C_31
REMARK    4  A    between atoms: C_8  and  N_9
REMARK    5  A    between atoms: N_9  and  C_10
REMARK    6  A    between atoms: C_10  and  C_12
REMARK    7  A    between atoms: C_10  and  C_13
REMARK    8  A    between atoms: C_13  and  O_14
REMARK    9  A    between atoms: O_14  and  C_15
REMARK   10  A    between atoms: C_16  and  C_18
REMARK   11  A    between atoms: C_18  and  S_19
REMARK   12  A    between atoms: S_19  and  C_20
REMARK                            x       y       z     vdW  Elec       q    Type
REMARK                         _______ _______ _______ _____ _____    ______ ____
ROOT
ATOM      1  N   UNL     1      -2.295  -1.113  -2.058  0.00  0.00    -0.265 N 
ATOM      2  C   UNL     1      -1.938   0.168  -1.843  0.00  0.00    +0.230 C 
ATOM      3  O   UNL     1      -2.042   0.649  -0.734  0.00  0.00    -0.274 OA
ENDROOT
BRANCH   1   9
ATOM      4  C   UNL     1      -1.905  -2.559  -0.164  0.00  0.00    -0.026 A 
ATOM      5  C   UNL     1      -2.392  -3.320   0.881  0.00  0.00    +0.005 A 
ATOM      6  C   UNL     1      -3.756  -3.421   1.088  0.00  0.00    +0.001 A 
ATOM      7  C   UNL     1      -4.636  -2.759   0.251  0.00  0.00    +0.005 A 
ATOM      8  C   UNL     1      -4.155  -1.996  -0.795  0.00  0.00    -0.029 A 
ATOM      9  C   UNL     1      -2.786  -1.890  -1.003  0.00  0.00    +0.043 A 
ATOM     10  C   UNL     1      -5.115  -1.277  -1.707  0.00  0.00    +0.045 C 
BRANCH   4  12
ATOM     11  C   UNL     1       0.129  -1.253   0.391  0.00  0.00    +0.009 C 
ATOM     12  C   UNL     1      -0.419  -2.450  -0.389  0.00  0.00    +0.033 C 
ENDBRANCH   4  12
ENDBRANCH   1   9
BRANCH   1  13
ATOM     13  C   UNL     1      -2.170  -1.693  -3.398  0.00  0.00    +0.104 C 
ATOM     14  C   UNL     1      -3.490  -2.359  -3.791  0.00  0.00    +0.031 C 
BRANCH  13  15
ATOM     15  C   UNL     1      -1.052  -2.738  -3.398  0.00  0.00    +0.182 C 
BRANCH  15  16
ATOM     16  O   UNL     1       0.203  -2.092  -3.179  0.00  0.00    -0.381 OA
ATOM     17  C   UNL     1       1.320  -2.984  -3.161  0.00  0.00    +0.194 C 
ENDBRANCH  15  16
ENDBRANCH  13  15
ENDBRANCH   1  13
BRANCH   2  18
ATOM     18  C   UNL     1      -1.410   1.005  -2.980  0.00  0.00    +0.169 C 
BRANCH  18  19
ATOM     19  S   UNL     1      -1.020   2.670  -2.376  0.00  0.00    -0.106 S 
BRANCH  19  20
ATOM     20  C   UNL     1      -0.405   3.538  -3.845  0.00  0.00    +0.236 C 
ATOM     21  N   UNL     1      -1.421   3.516  -4.905  0.00  0.00    -0.355 N 
ATOM     22  C   UNL     1      -0.907   2.893  -5.926  0.00  0.00    +0.061 A 
ATOM     23  C   UNL     1      -1.429   2.561  -7.259  0.00  0.00    +0.029 A 
ATOM     24  C   UNL     1      -0.650   1.891  -8.131  0.00  0.00    +0.022 A 
ATOM     25  C   UNL     1       0.663   1.489  -7.820  0.00  0.00    +0.043 A 
ATOM     26  C   UNL     1       1.238   1.744  -6.626  0.00  0.00    +0.047 A 
ATOM     27  C   UNL     1       0.480   2.468  -5.597  0.00  0.00    +0.062 A 
ATOM     28  N   UNL     1       0.772   2.845  -4.383  0.00  0.00    -0.355 N 
ATOM     29 CL   UNL     1       1.579   0.631  -9.020  0.00  0.00    -0.083 Cl
ATOM     30  H   UNL     1      -2.312   3.896  -4.854  0.00  0.00    +0.162 HD
ATOM     31  H   UNL     1       1.611   2.695  -3.921  0.00  0.00    +0.162 HD
ENDBRANCH  19  20
ENDBRANCH  18  19
ENDBRANCH   2  18
TORSDOF 8
