REMARK  Name = ZINC32835709
REMARK  6 active torsions:
REMARK  status: ('A' for Active; 'I' for Inactive)
REMARK    1  A    between atoms: C_1  and  C_2
REMARK    2  A    between atoms: C_11  and  C_13
REMARK    3  A    between atoms: C_13  and  S_14
REMARK    4  A    between atoms: S_14  and  C_15
REMARK    5  A    between atoms: C_18  and  C_21
REMARK    6  A    between atoms: N_19  and  N_20
REMARK                            x       y       z     vdW  Elec       q    Type
REMARK                         _______ _______ _______ _____ _____    ______ ____
ROOT
ATOM      1  S   UNL     1       2.154   3.529  -0.031  0.00  0.00    -0.078 S 
ENDROOT
BRANCH   1   2
ATOM      2  C   UNL     1       1.797   1.804  -0.081  0.00  0.00    +0.209 A 
ATOM      3  N   UNL     1       0.606   1.254  -0.137  0.00  0.00    -0.121 NA
ATOM      4  N   UNL     1       0.717  -0.026  -0.160  0.00  0.00    -0.132 NA
ATOM      5  C   UNL     1       1.973  -0.367  -0.120  0.00  0.00    +0.154 A 
ATOM      6  N   UNL     1       2.707   0.786  -0.069  0.00  0.00    -0.228 N 
BRANCH   5   7
ATOM      7  C   UNL     1       2.518  -1.772  -0.130  0.00  0.00    +0.059 C 
ATOM      8  C   UNL     1       2.077  -2.481  -1.412  0.00  0.00    +0.011 C 
ATOM      9  C   UNL     1       2.630  -3.908  -1.423  0.00  0.00    +0.001 C 
ATOM     10  C   UNL     1       2.095  -4.670  -0.208  0.00  0.00    +0.000 C 
ATOM     11  C   UNL     1       2.537  -3.962   1.074  0.00  0.00    +0.001 C 
ATOM     12  C   UNL     1       1.984  -2.535   1.084  0.00  0.00    +0.011 C 
ENDBRANCH   5   7
BRANCH   6  13
ATOM     13  N   UNL     1       4.067   0.896  -0.016  0.00  0.00    -0.295 N 
ATOM     14  H   UNL     1       4.693  -0.009  -0.011  0.00  0.00    +0.163 HD
ATOM     15  H   UNL     1       4.537   1.890   0.023  0.00  0.00    +0.163 HD
ENDBRANCH   6  13
ENDBRANCH   1   2
BRANCH   1  16
ATOM     16  C   UNL     1       0.473   4.199  -0.080  0.00  0.00    +0.133 C 
BRANCH  16  27
ATOM     17  C   UNL     1       0.448  10.604  -1.128  0.00  0.00    +0.064 C 
ATOM     18  C   UNL     1       0.704   9.781   0.108  0.00  0.00    +0.025 A 
ATOM     19  C   UNL     1       0.992  10.399   1.275  0.00  0.00    +0.021 A 
ATOM     20  C   UNL     1       1.233   9.644   2.432  0.00  0.00    +0.005 A 
ATOM     21  C   UNL     1       1.173   8.284   2.371  0.00  0.00    +0.047 A 
ATOM     22  C   UNL     1       0.870   7.659   1.147  0.00  0.00    +0.141 A 
ATOM     23  N   UNL     1       0.642   8.422   0.037  0.00  0.00    -0.265 N 
ATOM     24  C   UNL     1       0.352   7.827  -1.140  0.00  0.00    +0.259 A 
ATOM     25  O   UNL     1       0.144   8.498  -2.139  0.00  0.00    -0.267 OA
ATOM     26  C   UNL     1       0.292   6.430  -1.196  0.00  0.00    +0.094 A 
ATOM     27  C   UNL     1       0.531   5.704  -0.046  0.00  0.00    +0.059 A 
ATOM     28  N   UNL     1       0.807   6.330   1.087  0.00  0.00    -0.233 NA
ENDBRANCH  16  27
ENDBRANCH   1  16
TORSDOF 5
