REMARK  Name = ZINC67334717
REMARK  5 active torsions:
REMARK  status: ('A' for Active; 'I' for Inactive)
REMARK    1  A    between atoms: C_3  and  C_8
REMARK    2  A    between atoms: C_11  and  N_13
REMARK    3  A    between atoms: C_14  and  C_16
REMARK    4  A    between atoms: C_19  and  N_25
REMARK    5  A    between atoms: C_20  and  N_22
REMARK                            x       y       z     vdW  Elec       q    Type
REMARK                         _______ _______ _______ _____ _____    ______ ____
ROOT
ATOM      1  N   UNL     1       5.549   3.072   1.531  0.00  0.00    -0.308 N 
ATOM      2  C   UNL     1       5.784   3.218   2.850  0.00  0.00    +0.244 C 
ATOM      3  O   UNL     1       5.308   2.429   3.643  0.00  0.00    -0.270 OA
ATOM      4  H   UNL     1       5.930   3.702   0.898  0.00  0.00    +0.149 HD
ENDROOT
BRANCH   2   5
ATOM      5  C   UNL     1       6.619   4.334   3.332  0.00  0.00    +0.039 A 
ATOM      6  C   UNL     1       7.163   5.246   2.422  0.00  0.00    +0.015 A 
ATOM      7  C   UNL     1       7.941   6.287   2.875  0.00  0.00    +0.026 A 
ATOM      8  C   UNL     1       8.188   6.432   4.238  0.00  0.00    +0.055 A 
ATOM      9  C   UNL     1       7.648   5.526   5.146  0.00  0.00    +0.147 A 
ATOM     10  C   UNL     1       6.864   4.486   4.700  0.00  0.00    +0.047 A 
BRANCH   9  11
ATOM     11  N   UNL     1       7.913   5.684   6.594  0.00  0.00    +0.058 N 
ATOM     12  O   UNL     1       8.077   4.707   7.288  0.00  0.00    -0.126 OA
ATOM     13  O   UNL     1       7.965   6.788   7.082  0.00  0.00    -0.126 OA
ENDBRANCH   9  11
BRANCH   8  14
ATOM     14  N   UNL     1       8.975   7.484   4.692  0.00  0.00    -0.356 N 
ATOM     15  H   UNL     1       9.257   8.179   4.077  0.00  0.00    +0.142 HD
ATOM     16  H   UNL     1       9.241   7.524   5.624  0.00  0.00    +0.142 HD
ENDBRANCH   8  14
ENDBRANCH   2   5
BRANCH   1  19
ATOM     17  C   UNL     1       4.008   2.143  -0.290  0.00  0.00    +0.041 C 
ATOM     18  C   UNL     1       5.207   1.198  -0.181  0.00  0.00    +0.033 C 
ATOM     19  C   UNL     1       4.720   1.964   1.052  0.00  0.00    +0.081 C 
BRANCH  17  22
ATOM     20  C   UNL     1       0.297   1.746  -0.865  0.00  0.00    +0.003 A 
ATOM     21  C   UNL     1       1.549   2.316  -0.725  0.00  0.00    +0.004 A 
ATOM     22  C   UNL     1       2.644   1.520  -0.442  0.00  0.00    -0.040 A 
ATOM     23  C   UNL     1       2.487   0.154  -0.298  0.00  0.00    +0.042 A 
ATOM     24  C   UNL     1       1.234  -0.417  -0.438  0.00  0.00    +0.124 A 
ATOM     25  C   UNL     1       0.138   0.381  -0.722  0.00  0.00    +0.038 A 
ATOM     26  F   UNL     1       1.081  -1.752  -0.298  0.00  0.00    -0.205 F 
ENDBRANCH  17  22
ENDBRANCH   1  19
TORSDOF 5
