REMARK  Name = ZINC62797199
REMARK  3 active torsions:
REMARK  status: ('A' for Active; 'I' for Inactive)
REMARK    1  A    between atoms: C_8  and  C_10
REMARK    2  A    between atoms: C_10  and  C_12
REMARK    3  A    between atoms: C_12  and  C_13
REMARK                            x       y       z     vdW  Elec       q    Type
REMARK                         _______ _______ _______ _____ _____    ______ ____
ROOT
ATOM      1  C   UNL     1      -0.016   1.361   0.009  0.00  0.00    +0.001 A 
ATOM      2  C   UNL     1       1.170   2.082   0.002  0.00  0.00    +0.004 A 
ATOM      3  C   UNL     1       2.387   1.435  -0.013  0.00  0.00    +0.047 A 
ATOM      4  C   UNL     1       2.431   0.045  -0.021  0.00  0.00    +0.136 A 
ATOM      5  C   UNL     1       1.226  -0.682  -0.013  0.00  0.00    +0.021 A 
ATOM      6  C   UNL     1       0.002  -0.004   0.002  0.00  0.00    +0.011 A 
ATOM      7  C   UNL     1       1.588  -2.053  -0.025  0.00  0.00    +0.061 A 
ATOM      8  C   UNL     1       2.948  -2.102  -0.039  0.00  0.00    +0.172 A 
ATOM      9  O   UNL     1       3.443  -0.845  -0.037  0.00  0.00    -0.452 OA
ENDROOT
BRANCH   8  10
ATOM     10  C   UNL     1       3.725  -3.288  -0.053  0.00  0.00    +0.203 C 
ATOM     11  O   UNL     1       3.178  -4.372  -0.054  0.00  0.00    -0.288 OA
BRANCH  10  12
ATOM     12  C   UNL     1       5.229  -3.203  -0.068  0.00  0.00    +0.126 C 
BRANCH  12  13
ATOM     13  C   UNL     1       5.811  -4.594  -0.082  0.00  0.00    +0.011 A 
ATOM     14  C   UNL     1       6.135  -5.373  -1.143  0.00  0.00    +0.028 A 
ATOM     15  C   UNL     1       6.661  -6.631  -0.914  0.00  0.00    +0.023 A 
ATOM     16  C   UNL     1       6.838  -7.047   0.364  0.00  0.00    +0.046 A 
ATOM     17  S   UNL     1       6.259  -5.638   1.295  0.00  0.00    -0.100 S 
ATOM     18 BR   UNL     1       5.869  -4.750  -2.908  0.00  0.00    -0.049 Br
ENDBRANCH  12  13
ENDBRANCH  10  12
ENDBRANCH   8  10
TORSDOF 3
