REMARK  Name = ZINC46561521
REMARK  7 active torsions:
REMARK  status: ('A' for Active; 'I' for Inactive)
REMARK    1  A    between atoms: C_1  and  C_2
REMARK    2  A    between atoms: C_5  and  C_30
REMARK    3  A    between atoms: C_6  and  C_8
REMARK    4  A    between atoms: C_8  and  C_10
REMARK    5  A    between atoms: C_8  and  N_11
REMARK    6  A    between atoms: C_12  and  C_14
REMARK    7  A    between atoms: C_19  and  C_20
REMARK                            x       y       z     vdW  Elec       q    Type
REMARK                         _______ _______ _______ _____ _____    ______ ____
ROOT
ATOM      1  C   UNL     1      -1.660  -1.771   5.702  0.00  0.00    +0.082 A 
ATOM      2  C   UNL     1      -1.654  -0.393   5.773  0.00  0.00    +0.118 A 
ATOM      3  N   UNL     1      -2.326  -0.034   6.877  0.00  0.00    -0.283 N 
ATOM      4  H   UNL     1      -2.475   0.879   7.169  0.00  0.00    +0.188 HD
ATOM      5  N   UNL     1      -2.780  -1.176   7.543  0.00  0.00    -0.173 NA
ATOM      6  C   UNL     1      -2.408  -2.242   6.871  0.00  0.00    +0.105 A 
ENDROOT
BRANCH   6   7
ATOM      7  C   UNL     1      -2.688  -3.653   7.229  0.00  0.00    +0.007 A 
ATOM      8  C   UNL     1      -1.680  -4.611   7.135  0.00  0.00    +0.014 A 
ATOM      9  C   UNL     1      -1.943  -5.924   7.468  0.00  0.00    +0.050 A 
ATOM     10  C   UNL     1      -3.211  -6.296   7.896  0.00  0.00    +0.162 A 
ATOM     11  C   UNL     1      -4.220  -5.343   7.994  0.00  0.00    +0.163 A 
ATOM     12  C   UNL     1      -3.959  -4.024   7.665  0.00  0.00    +0.059 A 
ATOM     13  O   UNL     1      -5.465  -5.690   8.420  0.00  0.00    -0.485 OA
ATOM     14  C   UNL     1      -5.792  -7.083   8.390  0.00  0.00    +0.270 C 
ATOM     15  C   UNL     1      -4.618  -7.864   8.997  0.00  0.00    +0.270 C 
ATOM     16  O   UNL     1      -3.450  -7.597   8.215  0.00  0.00    -0.485 OA
ENDBRANCH   6   7
BRANCH   1  18
ATOM     17  N   UNL     1      -0.291  -2.029   3.694  0.00  0.00    -0.305 N 
ATOM     18  C   UNL     1      -1.042  -2.603   4.655  0.00  0.00    +0.248 C 
ATOM     19  O   UNL     1      -1.209  -3.807   4.659  0.00  0.00    -0.270 OA
ATOM     20  H   UNL     1      -0.157  -1.069   3.692  0.00  0.00    +0.150 HD
BRANCH  17  21
ATOM     21  C   UNL     1       0.324  -2.857   2.654  0.00  0.00    +0.101 C 
ATOM     22  C   UNL     1       1.657  -3.408   3.162  0.00  0.00    +0.033 C 
BRANCH  21  28
ATOM     23  C   UNL     1       1.083   1.610   0.528  0.00  0.00    +0.044 C 
ATOM     24  C   UNL     1       0.925   0.116   0.406  0.00  0.00    -0.050 A 
ATOM     25  C   UNL     1       0.998  -0.487  -0.836  0.00  0.00    +0.003 A 
ATOM     26  C   UNL     1       0.853  -1.857  -0.949  0.00  0.00    +0.004 A 
ATOM     27  C   UNL     1       0.634  -2.624   0.181  0.00  0.00    -0.046 A 
ATOM     28  C   UNL     1       0.562  -2.021   1.422  0.00  0.00    -0.024 A 
ATOM     29  C   UNL     1       0.712  -0.651   1.535  0.00  0.00    +0.009 A 
ATOM     30  C   UNL     1       0.475  -4.118   0.058  0.00  0.00    +0.044 C 
ENDBRANCH  21  28
ENDBRANCH  17  21
ENDBRANCH   1  18
TORSDOF 4
