REMARK  Name = ZINC66956814
REMARK  6 active torsions:
REMARK  status: ('A' for Active; 'I' for Inactive)
REMARK    1  A    between atoms: C_1  and  C_2
REMARK    2  A    between atoms: C_5  and  C_7
REMARK    3  A    between atoms: C_7  and  C_9
REMARK    4  A    between atoms: C_7  and  N_10
REMARK    5  A    between atoms: N_13  and  C_14
REMARK    6  A    between atoms: C_17  and  C_20
REMARK                            x       y       z     vdW  Elec       q    Type
REMARK                         _______ _______ _______ _____ _____    ______ ____
ROOT
ATOM      1  C   UNL     1      -2.843  -6.461   3.937  0.00  0.00    +0.035 A 
ATOM      2  C   UNL     1      -2.575  -6.110   5.255  0.00  0.00    +0.024 A 
ATOM      3  C   UNL     1      -3.080  -6.870   6.288  0.00  0.00    +0.013 A 
ATOM      4  C   UNL     1      -3.862  -7.992   6.009  0.00  0.00    +0.019 A 
ATOM      5  C   UNL     1      -4.130  -8.341   4.684  0.00  0.00    +0.013 A 
ATOM      6  C   UNL     1      -3.626  -7.574   3.656  0.00  0.00    +0.024 A 
ENDROOT
BRANCH   4   7
ATOM      7  C   UNL     1      -4.406  -8.810   7.115  0.00  0.00    +0.164 A 
ATOM      8  N   UNL     1      -4.874 -10.039   7.028  0.00  0.00    -0.129 NA
ATOM      9  N   UNL     1      -5.263 -10.441   8.189  0.00  0.00    -0.134 NA
ATOM     10  C   UNL     1      -5.067  -9.506   9.069  0.00  0.00    +0.134 A 
ATOM     11  N   UNL     1      -4.513  -8.441   8.420  0.00  0.00    -0.311 N 
ATOM     12  C   UNL     1      -4.136  -7.179   9.055  0.00  0.00    +0.125 C 
ATOM     13  C   UNL     1      -4.831  -7.089  10.419  0.00  0.00    +0.022 C 
ATOM     14  C   UNL     1      -4.587  -8.379  11.207  0.00  0.00    +0.009 C 
ATOM     15  C   UNL     1      -5.365  -9.528  10.547  0.00  0.00    +0.076 C 
ENDBRANCH   4   7
BRANCH   1  19
ATOM     16  N   UNL     1      -0.575  -4.458   1.965  0.00  0.00    -0.291 N 
ATOM     17  C   UNL     1      -1.109  -5.125   3.006  0.00  0.00    +0.304 C 
ATOM     18  O   UNL     1      -0.492  -5.219   4.050  0.00  0.00    -0.252 OA
ATOM     19  N   UNL     1      -2.329  -5.688   2.892  0.00  0.00    -0.269 N 
ATOM     20  H   UNL     1      -1.067  -4.383   1.132  0.00  0.00    +0.151 HD
ATOM     21  H   UNL     1      -2.849  -5.558   2.083  0.00  0.00    +0.156 HD
BRANCH  16  22
ATOM     22  C   UNL     1       0.750  -3.846   2.090  0.00  0.00    +0.127 C 
ATOM     23  C   UNL     1       1.826  -4.890   1.784  0.00  0.00    +0.035 C 
BRANCH  22  28
ATOM     24  C   UNL     1       1.944   0.779   0.598  0.00  0.00    +0.066 C 
ATOM     25  C   UNL     1       1.389  -0.602   0.362  0.00  0.00    +0.046 A 
ATOM     26  C   UNL     1       0.905  -0.975  -0.850  0.00  0.00    +0.070 A 
ATOM     27  S   UNL     1       0.414  -2.657  -0.504  0.00  0.00    -0.078 S 
ATOM     28  C   UNL     1       0.869  -2.702   1.115  0.00  0.00    +0.099 A 
ATOM     29  N   UNL     1       1.357  -1.504   1.322  0.00  0.00    -0.247 NA
ENDBRANCH  22  28
ENDBRANCH  16  22
ENDBRANCH   1  19
TORSDOF 4
