REMARK  Name = ZINC13037192
REMARK  9 active torsions:
REMARK  status: ('A' for Active; 'I' for Inactive)
REMARK    1  A    between atoms: CB_1  and  CA_2
REMARK    2  A    between atoms: CA_2  and  C_4
REMARK    3  A    between atoms: CA_2  and  N_6
REMARK    4  A    between atoms: C_7  and  C_9
REMARK    5  A    between atoms: C_12  and  N_18
REMARK    6  A    between atoms: C_13  and  N_15
REMARK    7  A    between atoms: N_18  and  C_19
REMARK    8  A    between atoms: N_18  and  C_20
REMARK    9  A    between atoms: C_20  and  C_21
REMARK                            x       y       z     vdW  Elec       q    Type
REMARK                         _______ _______ _______ _____ _____    ______ ____
ROOT
ATOM      1  C   UNK A   0      -0.017   1.393   0.010  0.00  0.00    +0.039 A 
ATOM      2  C   UNK A   0       1.186   2.106   0.002  0.00  0.00    +0.015 A 
ATOM      3  C   UNK A   0       2.384   1.430  -0.013  0.00  0.00    +0.026 A 
ATOM      4  C   UNK A   0       2.400   0.038  -0.020  0.00  0.00    +0.060 A 
ATOM      5  C   UNK A   0       1.204  -0.674  -0.013  0.00  0.00    +0.148 A 
ATOM      6  C   UNK A   0       0.002  -0.004   0.002  0.00  0.00    +0.047 A 
ENDROOT
BRANCH   1   8
ATOM      7  N   ALA A   1      -1.320   3.463   0.027  0.00  0.00    -0.298 N 
ATOM      8  C   UNK A   0      -1.304   2.115   0.020  0.00  0.00    +0.245 C 
ATOM      9  O   UNK A   0      -2.349   1.494   0.021  0.00  0.00    -0.270 OA
ATOM     10  H   ALA A   1      -0.486   3.958   0.026  0.00  0.00    +0.150 HD
BRANCH   7  12
ATOM     11  CB  ALA A   1      -3.097   4.312   1.477  0.00  0.00    +0.040 C 
ATOM     12  CA  ALA A   1      -2.598   4.180   0.037  0.00  0.00    +0.183 C 
BRANCH  12  13
ATOM     13  C   ALA A   1      -2.409   5.552  -0.557  0.00  0.00    +0.376 C 
ATOM     14  O   ALA A   1      -1.319   5.896  -0.948  0.00  0.00    -0.244 OA
ATOM     15  OXT ALA A   1      -3.451   6.392  -0.651  0.00  0.00    -0.244 OA
ENDBRANCH  12  13
ENDBRANCH   7  12
ENDBRANCH   1   8
BRANCH   5  16
ATOM     16  N   UNK A   0       1.225  -2.155  -0.021  0.00  0.00    +0.058 N 
ATOM     17  O   UNK A   0       0.179  -2.778  -0.015  0.00  0.00    -0.126 OA
ATOM     18  O   UNK A   0       2.288  -2.748  -0.035  0.00  0.00    -0.126 OA
ENDBRANCH   5  16
BRANCH   4  19
ATOM     19  N   UNK A   0       3.612  -0.642  -0.035  0.00  0.00    -0.327 N 
ATOM     20  C   UNK A   0       4.355  -0.368  -1.273  0.00  0.00    +0.129 C 
BRANCH  19  21
ATOM     21  C   UNK A   0       4.418  -0.309   1.147  0.00  0.00    +0.140 C 
BRANCH  21  22
ATOM     22  C   UNK A   0       5.603  -1.237   1.226  0.00  0.00    -0.030 A 
ATOM     23  C   UNK A   0       5.491  -2.434   1.931  0.00  0.00    +0.006 A 
ATOM     24  C   UNK A   0       6.540  -3.297   2.017  0.00  0.00    +0.009 A 
ATOM     25  C   UNK A   0       7.759  -2.974   1.396  0.00  0.00    -0.018 A 
ATOM     26  C   UNK A   0       8.866  -3.836   1.469  0.00  0.00    +0.008 A 
ATOM     27  C   UNK A   0      10.031  -3.491   0.855  0.00  0.00    +0.001 A 
ATOM     28  C   UNK A   0      10.144  -2.291   0.155  0.00  0.00    +0.001 A 
ATOM     29  C   UNK A   0       9.093  -1.431   0.064  0.00  0.00    +0.008 A 
ATOM     30  C   UNK A   0       7.874  -1.754   0.684  0.00  0.00    -0.018 A 
ATOM     31  C   UNK A   0       6.767  -0.891   0.612  0.00  0.00    +0.013 A 
ENDBRANCH  21  22
ENDBRANCH  19  21
ENDBRANCH   4  19
TORSDOF 7
