REMARK  Name = ZINC28160807
REMARK  8 active torsions:
REMARK  status: ('A' for Active; 'I' for Inactive)
REMARK    1  A    between atoms: C_1  and  C_2
REMARK    2  A    between atoms: C_5  and  N_8
REMARK    3  A    between atoms: C_9  and  C_11
REMARK    4  A    between atoms: C_11  and  C_12
REMARK    5  A    between atoms: C_20  and  C_30
REMARK    6  A    between atoms: C_23  and  C_25
REMARK    7  A    between atoms: C_33  and  O_36
REMARK    8  A    between atoms: O_36  and  C_37
REMARK                            x       y       z     vdW  Elec       q    Type
REMARK                         _______ _______ _______ _____ _____    ______ ____
ROOT
ATOM      1  C   UNL     1       5.721   2.948   5.298  0.00  0.00    +0.150 C 
ATOM      2  C   UNL     1       4.246   3.331   5.287  0.00  0.00    +0.252 C 
ATOM      3  O   UNL     1       3.871   4.464   5.055  0.00  0.00    -0.272 OA
ATOM      4  N   UNL     1       3.414   2.358   5.538  0.00  0.00    -0.157 NA
ATOM      5  C   UNL     1       3.780   1.110   5.801  0.00  0.00    +0.170 C 
ATOM      6  S   UNL     1       5.564   1.161   5.701  0.00  0.00    -0.078 S 
ATOM      7  N   UNL     1       2.982   0.039   6.078  0.00  0.00    -0.195 N 
ATOM      8  C   UNL     1       1.513   0.061   6.146  0.00  0.00    +0.136 C 
ATOM      9  C   UNL     1       1.139  -1.394   6.488  0.00  0.00    +0.087 C 
ATOM     10  C   UNL     1       2.477  -2.100   6.575  0.00  0.00    +0.075 C 
ATOM     11  N   UNL     1       3.426  -1.256   6.341  0.00  0.00    -0.181 NA
ENDROOT
BRANCH   8  12
ATOM     12  C   UNL     1       0.926   0.461   4.817  0.00  0.00    -0.025 A 
ATOM     13  C   UNL     1      -0.209   1.248   4.772  0.00  0.00    +0.009 A 
ATOM     14  C   UNL     1      -0.749   1.616   3.554  0.00  0.00    +0.046 A 
ATOM     15  C   UNL     1      -0.150   1.194   2.376  0.00  0.00    +0.120 A 
ATOM     16  C   UNL     1       0.986   0.399   2.424  0.00  0.00    +0.046 A 
ATOM     17  C   UNL     1       1.525   0.040   3.644  0.00  0.00    +0.009 A 
BRANCH  15  18
ATOM     18  O   UNL     1      -0.679   1.554   1.177  0.00  0.00    -0.495 OA
ATOM     19  C   UNL     1      -0.010   1.084   0.005  0.00  0.00    +0.277 C 
ENDBRANCH  15  18
ENDBRANCH   8  12
BRANCH  10  20
ATOM     20  C   UNL     1       2.666  -3.522   6.880  0.00  0.00    +0.035 A 
ATOM     21  C   UNL     1       3.842  -4.246   6.975  0.00  0.00    +0.017 A 
ATOM     22  C   UNL     1       3.762  -5.585   7.280  0.00  0.00    +0.008 A 
ATOM     23  C   UNL     1       2.542  -6.153   7.466  0.00  0.00    +0.046 A 
ATOM     24  S   UNL     1       1.438  -4.773   7.218  0.00  0.00    -0.095 S 
ENDBRANCH  10  20
BRANCH   1  25
ATOM     25  C   UNL     1       6.487   3.701   6.388  0.00  0.00    +0.120 C 
BRANCH  25  27
ATOM     26  N   UNL     1       8.785   3.754   7.302  0.00  0.00    -0.285 N 
ATOM     27  C   UNL     1       7.917   3.227   6.416  0.00  0.00    +0.219 C 
ATOM     28  O   UNL     1       8.287   2.370   5.640  0.00  0.00    -0.275 OA
ATOM     29  H   UNL     1       8.470   4.583   7.953  0.00  0.00    +0.155 HD
BRANCH  26  34
ATOM     30  C   UNL     1      14.059   1.698   7.675  0.00  0.00    +0.044 C 
ATOM     31  C   UNL     1      12.658   2.244   7.576  0.00  0.00    -0.050 A 
ATOM     32  C   UNL     1      12.024   2.299   6.348  0.00  0.00    +0.005 A 
ATOM     33  C   UNL     1      10.740   2.799   6.254  0.00  0.00    +0.023 A 
ATOM     34  C   UNL     1      10.085   3.247   7.394  0.00  0.00    +0.033 A 
ATOM     35  C   UNL     1      10.727   3.196   8.625  0.00  0.00    +0.023 A 
ATOM     36  C   UNL     1      12.009   2.689   8.713  0.00  0.00    +0.005 A 
ENDBRANCH  26  34
ENDBRANCH  25  27
ENDBRANCH   1  25
TORSDOF 6
