REMARK  Name = ZINC08900018
REMARK  10 active torsions:
REMARK  status: ('A' for Active; 'I' for Inactive)
REMARK    1  A    between atoms: C_1  and  C_2
REMARK    2  A    between atoms: C_4  and  S_11
REMARK    3  A    between atoms: C_6  and  C_10
REMARK    4  A    between atoms: C_7  and  O_8
REMARK    5  A    between atoms: O_8  and  C_9
REMARK    6  A    between atoms: S_11  and  N_14
REMARK    7  A    between atoms: N_14  and  C_15
REMARK    8  A    between atoms: C_15  and  C_16
REMARK    9  A    between atoms: C_16  and  C_18
REMARK   10  A    between atoms: C_16  and  N_52
REMARK                            x       y       z     vdW  Elec       q    Type
REMARK                         _______ _______ _______ _____ _____    ______ ____
ROOT
ATOM      1  N   UNL     1       5.753   0.001  -1.218  0.00  0.00    -0.191 NA
ATOM      2  H   UNL     1       6.201   0.181  -0.377  0.00  0.00    +0.148 HD
ENDROOT
BRANCH   1   3
ATOM      3  S   UNL     1       6.579  -0.723  -2.457  0.00  0.00    +0.058 S 
ATOM      4  O   UNL     1       7.907  -0.928  -1.995  0.00  0.00    -0.153 OA
ATOM      5  O   UNL     1       5.762  -1.788  -2.923  0.00  0.00    -0.153 OA
BRANCH   3   9
ATOM      6  C   UNL     1       8.997   3.187  -4.942  0.00  0.00    +0.047 C 
ATOM      7  C   UNL     1       7.829   2.237  -4.868  0.00  0.00    -0.007 A 
ATOM      8  C   UNL     1       7.749   1.319  -3.839  0.00  0.00    +0.035 A 
ATOM      9  C   UNL     1       6.678   0.447  -3.771  0.00  0.00    +0.106 A 
ATOM     10  C   UNL     1       5.688   0.488  -4.735  0.00  0.00    +0.035 A 
ATOM     11  C   UNL     1       5.761   1.408  -5.763  0.00  0.00    -0.007 A 
ATOM     12  C   UNL     1       6.834   2.284  -5.834  0.00  0.00    +0.126 A 
ATOM     13  C   UNL     1       4.678   1.456  -6.810  0.00  0.00    +0.047 C 
BRANCH  12  14
ATOM     14  O   UNL     1       6.910   3.187  -6.847  0.00  0.00    -0.495 OA
ATOM     15  C   UNL     1       7.590   2.773  -8.034  0.00  0.00    +0.277 C 
ENDBRANCH  12  14
ENDBRANCH   3   9
ENDBRANCH   1   3
BRANCH   1  16
ATOM     16  C   UNL     1       4.346   0.370  -1.392  0.00  0.00    +0.095 C 
BRANCH  16  17
ATOM     17  C   UNL     1       3.727   0.680  -0.028  0.00  0.00    -0.021 C 
BRANCH  17  22
ATOM     18  C   UNL     1       3.598   2.384   1.706  0.00  0.00    -0.078 C 
ATOM     19  C   UNL     1       4.636   3.255   2.457  0.00  0.00    -0.020 C 
ATOM     20  C   UNL     1       5.949   2.460   2.278  0.00  0.00    -0.020 C 
ATOM     21  C   UNL     1       5.718   1.573   1.041  0.00  0.00    -0.078 C 
ATOM     22  N   UNL     1       4.374   1.893   0.556  0.00  0.00    +0.385 N 
ATOM     23  H   UNL     1       4.429   2.624  -0.162  0.00  0.00    -0.081 HD
ENDBRANCH  17  22
BRANCH  17  24
ATOM     24  C   UNL     1       2.249   0.923  -0.191  0.00  0.00    -0.053 A 
ATOM     25  C   UNL     1       1.333  -0.029   0.216  0.00  0.00    +0.009 A 
ATOM     26  C   UNL     1       0.010   0.221   0.056  0.00  0.00    +0.045 A 
ATOM     27  S   UNL     1       0.029   1.842  -0.691  0.00  0.00    -0.105 S 
ATOM     28  C   UNL     1       1.798   2.077  -0.739  0.00  0.00    +0.047 A 
ENDBRANCH  17  24
ENDBRANCH  16  17
ENDBRANCH   1  16
TORSDOF 7
