REMARK  Name = ZINC12984748
REMARK  7 active torsions:
REMARK  status: ('A' for Active; 'I' for Inactive)
REMARK    1  A    between atoms: C_1  and  N_2
REMARK    2  A    between atoms: C_6  and  S_12
REMARK    3  A    between atoms: S_12  and  N_15
REMARK    4  A    between atoms: N_15  and  C_16
REMARK    5  A    between atoms: C_21  and  C_22
REMARK    6  A    between atoms: C_22  and  O_24
REMARK    7  A    between atoms: O_24  and  C_25
REMARK                            x       y       z     vdW  Elec       q    Type
REMARK                         _______ _______ _______ _____ _____    ______ ____
ROOT
ATOM      1  S   UNL     1       2.410   5.407   0.725  0.00  0.00    +0.072 S 
ATOM      2  O   UNL     1       3.710   5.924   0.472  0.00  0.00    -0.150 OA
ATOM      3  O   UNL     1       1.229   6.098   0.343  0.00  0.00    -0.150 OA
ENDROOT
BRANCH   1   9
ATOM      4  C   UNL     1       1.335   4.415   7.600  0.00  0.00    +0.156 C 
ATOM      5  N   UNL     1       2.353   4.513   6.551  0.00  0.00    -0.277 N 
ATOM      6  C   UNL     1       2.120   4.737   5.194  0.00  0.00    +0.090 A 
ATOM      7  C   UNL     1       0.969   4.923   4.444  0.00  0.00    +0.031 A 
ATOM      8  C   UNL     1       1.063   5.133   3.082  0.00  0.00    +0.031 A 
ATOM      9  C   UNL     1       2.301   5.146   2.464  0.00  0.00    +0.112 A 
ATOM     10  C   UNL     1       3.452   4.960   3.204  0.00  0.00    +0.077 A 
ATOM     11  C   UNL     1       3.368   4.755   4.573  0.00  0.00    +0.159 A 
ATOM     12  O   UNL     1       4.300   4.548   5.535  0.00  0.00    -0.407 OA
ATOM     13  C   UNL     1       3.685   4.404   6.720  0.00  0.00    +0.421 A 
ATOM     14  O   UNL     1       4.244   4.205   7.782  0.00  0.00    -0.223 OA
ENDBRANCH   1   9
BRANCH   1  15
ATOM     15  N   UNL     1       2.344   3.919   0.001  0.00  0.00    -0.215 N 
ATOM     16  H   UNL     1       3.085   3.612  -0.545  0.00  0.00    +0.174 HD
BRANCH  15  17
ATOM     17  C   UNL     1       1.228   3.112   0.174  0.00  0.00    +0.063 A 
ATOM     18  C   UNL     1      -0.037   3.679   0.258  0.00  0.00    +0.045 A 
ATOM     19  C   UNL     1      -1.146   2.874   0.431  0.00  0.00    +0.043 A 
ATOM     20  C   UNL     1      -1.007   1.496   0.517  0.00  0.00    +0.021 A 
ATOM     21  C   UNL     1       0.240   0.916   0.442  0.00  0.00    +0.018 A 
ATOM     22  C   UNL     1       1.372   1.718   0.266  0.00  0.00    +0.081 A 
ATOM     23 CL   UNL     1      -2.724   3.589   0.535  0.00  0.00    -0.083 Cl
BRANCH  22  24
ATOM     24  C   UNL     1       2.708   1.105   0.179  0.00  0.00    +0.341 C 
ATOM     25  O   UNL     1       3.689   1.805   0.027  0.00  0.00    -0.245 OA
BRANCH  24  26
ATOM     26  O   UNL     1       2.842  -0.234   0.268  0.00  0.00    -0.464 OA
ATOM     27  C   UNL     1       4.188  -0.769   0.174  0.00  0.00    +0.280 C 
ENDBRANCH  24  26
ENDBRANCH  22  24
ENDBRANCH  15  17
ENDBRANCH   1  15
TORSDOF 5
