REMARK  Name = ZINC09426313
REMARK  6 active torsions:
REMARK  status: ('A' for Active; 'I' for Inactive)
REMARK    1  A    between atoms: C_1  and  C_2
REMARK    2  A    between atoms: C_11  and  C_13
REMARK    3  A    between atoms: N_20  and  C_21
REMARK    4  A    between atoms: C_21  and  C_22
REMARK    5  A    between atoms: C_25  and  O_28
REMARK    6  A    between atoms: O_28  and  C_29
REMARK                            x       y       z     vdW  Elec       q    Type
REMARK                         _______ _______ _______ _____ _____    ______ ____
ROOT
ATOM      1  C   UNL     1      -0.013   1.086   0.008  0.00  0.00    +0.066 C 
ATOM      2  C   UNL     1      -0.718   1.572   1.248  0.00  0.00    +0.047 A 
ATOM      3  C   UNL     1      -0.853   2.911   1.473  0.00  0.00    +0.093 A 
ATOM      4  C   UNL     1      -1.524   3.344   2.632  0.00  0.00    +0.257 A 
ATOM      5  O   UNL     1      -1.657   4.534   2.869  0.00  0.00    -0.267 OA
ATOM      6  N   UNL     1      -2.012   2.416   3.474  0.00  0.00    -0.259 N 
ATOM      7  C   UNL     1      -1.826   1.089   3.208  0.00  0.00    +0.206 A 
ATOM      8  N   UNL     1      -1.204   0.692   2.124  0.00  0.00    -0.221 NA
ATOM      9  N   UNL     1      -2.317   0.188   4.134  0.00  0.00    -0.259 N 
ATOM     10  C   UNL     1      -2.244   0.579   5.467  0.00  0.00    +0.162 C 
ATOM     11  C   UNL     1      -2.756   2.790   4.680  0.00  0.00    +0.192 C 
ATOM     12  N   UNL     1      -1.975  -0.336   6.457  0.00  0.00    -0.314 N 
ATOM     13  H   UNL     1      -2.691  -0.667   3.870  0.00  0.00    +0.158 HD
ATOM     14  H   UNL     1      -1.927  -0.050   7.382  0.00  0.00    +0.149 HD
ATOM     15  N   UNL     1      -2.432   1.861   5.820  0.00  0.00    -0.340 N 
ATOM     16  H   UNL     1      -2.361   2.182   6.793  0.00  0.00    +0.164 HD
ENDROOT
BRANCH  11  17
ATOM     17  C   UNL     1      -4.258   2.748   4.389  0.00  0.00    +0.036 C 
ATOM     18  C   UNL     1      -5.039   3.129   5.653  0.00  0.00    +0.012 C 
ATOM     19  C   UNL     1      -6.529   2.906   5.386  0.00  0.00    +0.027 C 
ATOM     20  C   UNL     1      -6.925   3.552   4.091  0.00  0.00    -0.031 C 
ATOM     21  C   UNL     1      -6.085   3.918   3.177  0.00  0.00    -0.031 C 
ATOM     22  C   UNL     1      -4.597   3.756   3.289  0.00  0.00    +0.034 C 
ENDBRANCH  11  17
BRANCH  12  23
ATOM     23  C   UNL     1      -1.762  -1.744   6.114  0.00  0.00    +0.139 C 
BRANCH  23  24
ATOM     24  C   UNL     1      -1.488  -2.531   7.369  0.00  0.00    -0.030 A 
ATOM     25  C   UNL     1      -0.188  -2.688   7.815  0.00  0.00    +0.009 A 
ATOM     26  C   UNL     1       0.065  -3.404   8.969  0.00  0.00    +0.046 A 
ATOM     27  C   UNL     1      -0.984  -3.976   9.674  0.00  0.00    +0.120 A 
ATOM     28  C   UNL     1      -2.286  -3.822   9.221  0.00  0.00    +0.046 A 
ATOM     29  C   UNL     1      -2.535  -3.100   8.070  0.00  0.00    +0.009 A 
BRANCH  27  30
ATOM     30  O   UNL     1      -0.737  -4.685  10.806  0.00  0.00    -0.495 OA
ATOM     31  C   UNL     1       0.628  -4.803  11.213  0.00  0.00    +0.277 C 
ENDBRANCH  27  30
ENDBRANCH  23  24
ENDBRANCH  12  23
TORSDOF 4
