REMARK  Name = ZINC40345647
REMARK  12 active torsions:
REMARK  status: ('A' for Active; 'I' for Inactive)
REMARK    1  A    between atoms: C_1  and  C_2
REMARK    2  A    between atoms: C_2  and  C_3
REMARK    3  A    between atoms: C_2  and  C_4
REMARK    4  A    between atoms: C_4  and  C_5
REMARK    5  A    between atoms: C_5  and  O_6
REMARK    6  A    between atoms: O_6  and  C_7
REMARK    7  A    between atoms: C_10  and  C_13
REMARK    8  A    between atoms: C_16  and  C_31
REMARK    9  A    between atoms: N_23  and  C_24
REMARK   10  A    between atoms: C_24  and  C_25
REMARK   11  A    between atoms: C_34  and  O_37
REMARK   12  A    between atoms: O_37  and  C_38
REMARK                            x       y       z     vdW  Elec       q    Type
REMARK                         _______ _______ _______ _____ _____    ______ ____
ROOT
ATOM      1  C   UNL     1      -3.429  -8.125  -0.572  0.00  0.00    +0.142 C 
ATOM      2  C   UNL     1      -3.805  -8.486  -1.982  0.00  0.00    +0.035 A 
ATOM      3  C   UNL     1      -3.451  -8.480  -3.336  0.00  0.00    +0.099 A 
ATOM      4  N   UNL     1      -4.436  -9.049  -4.004  0.00  0.00    -0.173 NA
ATOM      5  N   UNL     1      -5.375  -9.414  -3.206  0.00  0.00    -0.272 N 
ATOM      6  H   UNL     1      -6.196  -9.854  -3.478  0.00  0.00    +0.189 HD
ATOM      7  C   UNL     1      -5.046  -9.092  -1.921  0.00  0.00    +0.126 A 
ATOM      8  C   UNL     1      -5.477  -9.131  -0.519  0.00  0.00    +0.266 C 
ATOM      9  O   UNL     1      -6.528  -9.601  -0.128  0.00  0.00    -0.268 OA
ATOM     10  N   UNL     1      -4.543  -8.572   0.275  0.00  0.00    -0.281 N 
ENDROOT
BRANCH   1  14
ATOM     11  C   UNL     1      -2.919  -3.897  -0.222  0.00  0.00    +0.121 A 
ATOM     12  C   UNL     1      -1.810  -4.724  -0.333  0.00  0.00    +0.046 A 
ATOM     13  C   UNL     1      -1.978  -6.090  -0.445  0.00  0.00    +0.009 A 
ATOM     14  C   UNL     1      -3.249  -6.634  -0.448  0.00  0.00    -0.022 A 
ATOM     15  C   UNL     1      -4.356  -5.812  -0.338  0.00  0.00    +0.009 A 
ATOM     16  C   UNL     1      -4.193  -4.446  -0.220  0.00  0.00    +0.046 A 
BRANCH  11  17
ATOM     17  O   UNL     1      -2.756  -2.552  -0.111  0.00  0.00    -0.492 OA
BRANCH  17  18
ATOM     18  C   UNL     1      -1.416  -2.058  -0.121  0.00  0.00    +0.229 C 
BRANCH  18  19
ATOM     19  C   UNL     1      -1.433  -0.534   0.013  0.00  0.00    +0.044 C 
BRANCH  19  21
ATOM     20  C   UNL     1      -0.019   1.526   0.010  0.00  0.00    +0.007 C 
ATOM     21  C   UNL     1       0.002  -0.004   0.002  0.00  0.00    -0.014 C 
ATOM     22  C   UNL     1       0.742  -0.511   1.242  0.00  0.00    +0.007 C 
ENDBRANCH  19  21
ENDBRANCH  18  19
ENDBRANCH  17  18
ENDBRANCH  11  17
ENDBRANCH   1  14
BRANCH   3  23
ATOM     23  C   UNL     1      -2.199  -7.932  -3.914  0.00  0.00    +0.003 A 
ATOM     24  C   UNL     1      -1.609  -6.799  -3.355  0.00  0.00    +0.013 A 
ATOM     25  C   UNL     1      -0.445  -6.293  -3.894  0.00  0.00    +0.046 A 
ATOM     26  C   UNL     1       0.139  -6.909  -4.992  0.00  0.00    +0.120 A 
ATOM     27  C   UNL     1      -0.446  -8.037  -5.551  0.00  0.00    +0.046 A 
ATOM     28  C   UNL     1      -1.607  -8.552  -5.012  0.00  0.00    +0.013 A 
BRANCH  26  29
ATOM     29  O   UNL     1       1.286  -6.408  -5.521  0.00  0.00    -0.495 OA
ATOM     30  C   UNL     1       1.833  -7.092  -6.650  0.00  0.00    +0.277 C 
ENDBRANCH  26  29
ENDBRANCH   3  23
BRANCH  10  31
ATOM     31  C   UNL     1      -4.625  -8.432   1.731  0.00  0.00    +0.144 C 
BRANCH  31  32
ATOM     32  C   UNL     1      -5.279  -7.118   2.074  0.00  0.00    -0.027 A 
ATOM     33  C   UNL     1      -4.520  -5.969   2.238  0.00  0.00    +0.025 A 
ATOM     34  C   UNL     1      -5.154  -4.782   2.552  0.00  0.00    +0.111 A 
ATOM     35  N   UNL     1      -6.464  -4.735   2.696  0.00  0.00    -0.263 NA
ATOM     36  C   UNL     1      -7.217  -5.808   2.547  0.00  0.00    +0.111 A 
ATOM     37  C   UNL     1      -6.654  -7.028   2.226  0.00  0.00    +0.025 A 
ENDBRANCH  31  32
ENDBRANCH  10  31
TORSDOF 9
