REMARK  Name = ZINC08964039
REMARK  7 active torsions:
REMARK  status: ('A' for Active; 'I' for Inactive)
REMARK    1  A    between atoms: C_1  and  N_2
REMARK    2  A    between atoms: C_9  and  C_11
REMARK    3  A    between atoms: C_11  and  C_13
REMARK    4  A    between atoms: C_11  and  N_57
REMARK    5  A    between atoms: C_13  and  N_14
REMARK    6  A    between atoms: C_15  and  C_17
REMARK    7  A    between atoms: N_19  and  C_20
REMARK                            x       y       z     vdW  Elec       q    Type
REMARK                         _______ _______ _______ _____ _____    ______ ____
ROOT
ATOM      1  C   UNL     1      -3.670   6.157  -1.065  0.00  0.00    -0.020 C 
ENDROOT
BRANCH   1  10
ATOM      2  C   UNL     1       0.200   2.138   2.204  0.00  0.00    +0.129 C 
ATOM      3  N   UNL     1      -0.586   1.864   0.994  0.00  0.00    -0.332 N 
ATOM      4  C   UNL     1       0.297   1.573  -0.157  0.00  0.00    +0.109 C 
ATOM      5  C   UNL     1      -0.521   2.102  -1.358  0.00  0.00    +0.056 C 
ATOM      6  C   UNL     1      -1.402   3.160  -0.725  0.00  0.00    -0.025 A 
ATOM      7  C   UNL     1      -1.389   2.962   0.651  0.00  0.00    +0.033 A 
ATOM      8  C   UNL     1      -2.125   3.820   1.466  0.00  0.00    +0.023 A 
ATOM      9  C   UNL     1      -2.857   4.848   0.909  0.00  0.00    +0.004 A 
ATOM     10  C   UNL     1      -2.867   5.034  -0.461  0.00  0.00    -0.059 A 
ATOM     11  C   UNL     1      -2.138   4.188  -1.277  0.00  0.00    +0.007 A 
ENDBRANCH   1  10
BRANCH   1  16
ATOM     12  C   UNL     1      -2.133   7.809  -0.149  0.00  0.00    -0.078 C 
ATOM     13  C   UNL     1      -2.259   9.289   0.290  0.00  0.00    -0.020 C 
ATOM     14  C   UNL     1      -3.515   9.770  -0.473  0.00  0.00    -0.020 C 
ATOM     15  C   UNL     1      -4.303   8.488  -0.799  0.00  0.00    -0.078 C 
ATOM     16  N   UNL     1      -3.540   7.382  -0.219  0.00  0.00    +0.385 N 
ATOM     17  H   UNL     1      -3.888   7.178   0.725  0.00  0.00    -0.081 HD
ENDBRANCH   1  16
BRANCH   1  18
ATOM     18  C   UNL     1      -5.141   5.744  -1.149  0.00  0.00    +0.094 C 
BRANCH  18  19
ATOM     19  N   UNL     1      -5.282   4.631  -2.092  0.00  0.00    -0.309 N 
ATOM     20  C   UNL     1      -6.507   4.164  -2.404  0.00  0.00    +0.299 C 
ATOM     21  O   UNL     1      -7.493   4.665  -1.904  0.00  0.00    -0.265 OA
ATOM     22  H   UNL     1      -4.494   4.231  -2.491  0.00  0.00    +0.149 HD
BRANCH  20  23
ATOM     23  C   UNL     1      -6.651   3.030  -3.364  0.00  0.00    +0.303 C 
ATOM     24  O   UNL     1      -5.665   2.529  -3.864  0.00  0.00    -0.265 OA
ATOM     25  N   UNL     1      -7.876   2.562  -3.676  0.00  0.00    -0.278 N 
ATOM     26  H   UNL     1      -8.659   2.915  -3.225  0.00  0.00    +0.155 HD
BRANCH  25  27
ATOM     27  C   UNL     1      -8.018   1.569  -4.649  0.00  0.00    +0.034 A 
ATOM     28  C   UNL     1      -9.126   1.569  -5.487  0.00  0.00    +0.025 A 
ATOM     29  C   UNL     1      -9.261   0.589  -6.451  0.00  0.00    +0.022 A 
ATOM     30  C   UNL     1      -8.300  -0.399  -6.575  0.00  0.00    +0.041 A 
ATOM     31  C   UNL     1      -7.197  -0.404  -5.739  0.00  0.00    +0.022 A 
ATOM     32  C   UNL     1      -7.054   0.576  -4.777  0.00  0.00    +0.025 A 
ATOM     33 CL   UNL     1      -8.476  -1.633  -7.784  0.00  0.00    -0.084 Cl
ENDBRANCH  25  27
ENDBRANCH  20  23
ENDBRANCH  18  19
ENDBRANCH   1  18
TORSDOF 6
