REMARK  Name = ZINC28628417
REMARK  8 active torsions:
REMARK  status: ('A' for Active; 'I' for Inactive)
REMARK    1  A    between atoms: C_1  and  C_2
REMARK    2  A    between atoms: C_5  and  S_8
REMARK    3  A    between atoms: S_8  and  N_11
REMARK    4  A    between atoms: N_11  and  C_12
REMARK    5  A    between atoms: C_14  and  C_31
REMARK    6  A    between atoms: C_15  and  C_17
REMARK    7  A    between atoms: N_19  and  N_20
REMARK    8  A    between atoms: C_21  and  C_22
REMARK                            x       y       z     vdW  Elec       q    Type
REMARK                         _______ _______ _______ _____ _____    ______ ____
ROOT
ATOM      1  C   UNL     1       1.974  -6.340  -0.043  0.00  0.00    +0.202 A 
ATOM      2  N   UNL     1       3.174  -6.891  -0.048  0.00  0.00    -0.227 NA
ATOM      3  C   UNL     1       3.329  -8.191  -0.056  0.00  0.00    +0.060 A 
ATOM      4  C   UNL     1       2.167  -8.951  -0.061  0.00  0.00    +0.100 A 
ATOM      5  S   UNL     1       0.932  -7.661  -0.044  0.00  0.00    -0.044 S 
ATOM      6  C   UNL     1       4.695  -8.829  -0.062  0.00  0.00    +0.067 C 
ENDROOT
BRANCH   4   7
ATOM      7  C   UNL     1       2.001 -10.403  -0.071  0.00  0.00    +0.272 C 
ATOM      8  O   UNL     1       2.980 -11.128  -0.077  0.00  0.00    -0.268 OA
ATOM      9  N   UNL     1       0.765 -10.940  -0.074  0.00  0.00    -0.202 N 
ATOM     10  H   UNL     1      -0.015 -10.362  -0.069  0.00  0.00    +0.178 HD
BRANCH   9  11
ATOM     11  N   UNL     1       0.606 -12.332  -0.083  0.00  0.00    -0.187 NA
ATOM     12  C   UNL     1      -0.585 -12.849  -0.086  0.00  0.00    +0.138 C 
BRANCH  12  13
ATOM     13  C   UNL     1      -0.753 -14.313  -0.096  0.00  0.00    -0.002 A 
ATOM     14  C   UNL     1       0.368 -15.147  -0.097  0.00  0.00    +0.013 A 
ATOM     15  C   UNL     1       0.209 -16.516  -0.106  0.00  0.00    +0.050 A 
ATOM     16  C   UNL     1      -1.062 -17.072  -0.116  0.00  0.00    +0.166 A 
ATOM     17  C   UNL     1      -2.186 -16.245  -0.115  0.00  0.00    +0.167 A 
ATOM     18  C   UNL     1      -2.033 -14.872  -0.099  0.00  0.00    +0.059 A 
ATOM     19  O   UNL     1      -3.304 -17.030  -0.125  0.00  0.00    -0.453 OA
ATOM     20  C   UNL     1      -2.855 -18.332  -0.544  0.00  0.00    +0.466 C 
ATOM     21  O   UNL     1      -1.478 -18.372  -0.126  0.00  0.00    -0.453 OA
ENDBRANCH  12  13
ENDBRANCH   9  11
ENDBRANCH   4   7
BRANCH   1  22
ATOM     22  N   UNL     1       1.651  -4.999  -0.034  0.00  0.00    -0.070 NA
BRANCH  22  23
ATOM     23  S   UNL     1       0.063  -4.530  -0.023  0.00  0.00    +0.093 S 
ATOM     24  O   UNL     1      -0.476  -4.950   1.223  0.00  0.00    -0.148 OA
ATOM     25  O   UNL     1      -0.490  -4.937  -1.267  0.00  0.00    -0.148 OA
BRANCH  23  30
ATOM     26  C   UNL     1      -0.018   1.503   0.010  0.00  0.00    +0.044 C 
ATOM     27  C   UNL     1       0.002  -0.004   0.002  0.00  0.00    -0.050 A 
ATOM     28  C   UNL     1       0.006  -0.689  -1.199  0.00  0.00    +0.005 A 
ATOM     29  C   UNL     1       0.025  -2.071  -1.206  0.00  0.00    +0.029 A 
ATOM     30  C   UNL     1       0.040  -2.768  -0.013  0.00  0.00    +0.110 A 
ATOM     31  C   UNL     1       0.037  -2.084   1.188  0.00  0.00    +0.029 A 
ATOM     32  C   UNL     1       0.023  -0.702   1.195  0.00  0.00    +0.005 A 
ENDBRANCH  23  30
ENDBRANCH  22  23
ENDBRANCH   1  22
TORSDOF 6
