REMARK  Name = ZINC67610731
REMARK  6 active torsions:
REMARK  status: ('A' for Active; 'I' for Inactive)
REMARK    1  A    between atoms: C_1  and  C_2
REMARK    2  A    between atoms: C_4  and  C_7
REMARK    3  A    between atoms: C_7  and  N_8
REMARK    4  A    between atoms: N_11  and  C_12
REMARK    5  A    between atoms: C_12  and  C_14
REMARK    6  A    between atoms: C_12  and  C_24
REMARK                            x       y       z     vdW  Elec       q    Type
REMARK                         _______ _______ _______ _____ _____    ______ ____
ROOT
ATOM      1  C   UNL     1      -3.435  -6.533  -3.171  0.00  0.00    +0.108 C 
ENDROOT
BRANCH   1   2
ATOM      2  C   UNL     1      -3.007  -7.151  -4.478  0.00  0.00    -0.023 A 
ATOM      3  C   UNL     1      -2.683  -6.342  -5.551  0.00  0.00    +0.009 A 
ATOM      4  C   UNL     1      -2.292  -6.905  -6.750  0.00  0.00    +0.050 A 
ATOM      5  C   UNL     1      -2.223  -8.284  -6.881  0.00  0.00    +0.162 A 
ATOM      6  C   UNL     1      -2.546  -9.098  -5.801  0.00  0.00    +0.162 A 
ATOM      7  C   UNL     1      -2.934  -8.526  -4.599  0.00  0.00    +0.055 A 
ATOM      8  O   UNL     1      -2.478 -10.453  -5.905  0.00  0.00    -0.485 OA
ATOM      9  C   UNL     1      -2.440 -10.996  -7.229  0.00  0.00    +0.270 C 
ATOM     10  C   UNL     1      -1.420 -10.194  -8.049  0.00  0.00    +0.270 C 
ATOM     11  O   UNL     1      -1.839  -8.825  -8.070  0.00  0.00    -0.485 OA
ENDBRANCH   1   2
BRANCH   1  15
ATOM     12  N   UNL     1      -1.691  -3.832  -1.387  0.00  0.00    -0.294 N 
ATOM     13  C   UNL     1      -2.442  -4.923  -1.635  0.00  0.00    +0.300 C 
ATOM     14  O   UNL     1      -2.961  -5.526  -0.715  0.00  0.00    -0.253 OA
ATOM     15  N   UNL     1      -2.619  -5.346  -2.902  0.00  0.00    -0.292 N 
ATOM     16  H   UNL     1      -1.278  -3.351  -2.121  0.00  0.00    +0.151 HD
ATOM     17  H   UNL     1      -2.205  -4.865  -3.636  0.00  0.00    +0.151 HD
BRANCH  12  18
ATOM     18  C   UNL     1      -1.500  -3.372  -0.010  0.00  0.00    +0.164 C 
BRANCH  18  22
ATOM     19  C   UNL     1      -0.018   1.503   0.010  0.00  0.00    +0.089 C 
ATOM     20  C   UNL     1       0.002  -0.004   0.002  0.00  0.00    +0.135 A 
ATOM     21  C   UNL     1      -1.077  -0.810   0.003  0.00  0.00    +0.072 A 
ATOM     22  C   UNL     1      -0.627  -2.143  -0.007  0.00  0.00    +0.101 A 
ATOM     23  N   UNL     1       0.676  -2.130  -0.013  0.00  0.00    -0.081 NA
ATOM     24  O   UNL     1       1.098  -0.778  -0.013  0.00  0.00    -0.360 OA
ENDBRANCH  18  22
ENDBRANCH  12  18
ENDBRANCH   1  15
BRANCH   1  25
ATOM     25  C   UNL     1      -4.908  -6.129  -3.256  0.00  0.00    +0.014 C 
ATOM     26  C   UNL     1      -5.232  -4.634  -3.261  0.00  0.00    +0.006 C 
ATOM     27  C   UNL     1      -5.535  -5.479  -2.022  0.00  0.00    +0.006 C 
ENDBRANCH   1  25
TORSDOF 5
