REMARK  Name = ZINC04321046
REMARK  4 active torsions:
REMARK  status: ('A' for Active; 'I' for Inactive)
REMARK    1  A    between atoms: C_1  and  C_2
REMARK    2  A    between atoms: C_2  and  C_5
REMARK    3  A    between atoms: N_3  and  O_4
REMARK    4  A    between atoms: C_8  and  N_11
REMARK                            x       y       z     vdW  Elec       q    Type
REMARK                         _______ _______ _______ _____ _____    ______ ____
ROOT
ATOM      1  N   UNL     1       0.354  -1.904  -5.303  0.00  0.00    -0.210 N 
ATOM      2  C   UNL     1       0.699  -1.120  -6.331  0.00  0.00    +0.231 C 
ATOM      3  O   UNL     1       0.971   0.059  -6.252  0.00  0.00    -0.274 OA
ATOM      4  C   UNL     1       0.700  -1.932  -7.606  0.00  0.00    +0.095 C 
ATOM      5  C   UNL     1       2.178  -2.103  -8.077  0.00  0.00    +0.025 C 
ATOM      6  C   UNL     1       2.115  -3.545  -8.701  0.00  0.00    +0.016 C 
ATOM      7  C   UNL     1       1.598  -4.198  -7.367  0.00  0.00    +0.025 C 
ATOM      8  C   UNL     1       0.283  -3.353  -7.125  0.00  0.00    +0.095 C 
ATOM      9  C   UNL     1       0.104  -3.176  -5.634  0.00  0.00    +0.231 C 
ATOM     10  O   UNL     1      -0.219  -4.050  -4.859  0.00  0.00    -0.274 OA
ATOM     11  C   UNL     1       2.616  -3.616  -6.379  0.00  0.00    -0.027 C 
ATOM     12  C   UNL     1       2.953  -2.387  -6.785  0.00  0.00    -0.027 C 
ENDROOT
BRANCH   1  16
ATOM     13  C   UNL     1       0.094  -0.501  -1.384  0.00  0.00    -0.001 A 
ATOM     14  C   UNL     1      -0.834  -0.082  -2.341  0.00  0.00    +0.011 A 
ATOM     15  C   UNL     1      -0.745  -0.547  -3.634  0.00  0.00    +0.024 A 
ATOM     16  C   UNL     1       0.267  -1.433  -3.988  0.00  0.00    +0.044 A 
ATOM     17  C   UNL     1       1.191  -1.853  -3.039  0.00  0.00    +0.024 A 
ATOM     18  C   UNL     1       1.112  -1.387  -1.745  0.00  0.00    +0.011 A 
BRANCH  13  20
ATOM     19  C   UNL     1       1.257   0.315   0.773  0.00  0.00    +0.069 C 
ATOM     20  C   UNL     1       0.002  -0.004   0.002  0.00  0.00    +0.084 C 
ATOM     21  N   UNL     1      -1.156   0.156   0.556  0.00  0.00    -0.092 NA
BRANCH  21  22
ATOM     22  O   UNL     1      -2.328  -0.266  -0.117  0.00  0.00    -0.409 OA
ATOM     23  H   UNL     1      -3.144  -0.105   0.376  0.00  0.00    +0.328 HD
ENDBRANCH  21  22
ENDBRANCH  13  20
ENDBRANCH   1  16
TORSDOF 3
