REMARK  Name = ZINC12833788
REMARK  9 active torsions:
REMARK  status: ('A' for Active; 'I' for Inactive)
REMARK    1  A    between atoms: C_1  and  C_2
REMARK    2  A    between atoms: C_4  and  C_17
REMARK    3  A    between atoms: C_6  and  C_12
REMARK    4  A    between atoms: N_9  and  C_11
REMARK    5  A    between atoms: C_17  and  O_19
REMARK    6  A    between atoms: O_19  and  C_20
REMARK    7  A    between atoms: C_20  and  C_22
REMARK    8  A    between atoms: C_20  and  C_23
REMARK    9  A    between atoms: N_25  and  C_26
REMARK                            x       y       z     vdW  Elec       q    Type
REMARK                         _______ _______ _______ _____ _____    ______ ____
ROOT
ATOM      1  C   UNL     1       4.493   6.715   0.133  0.00  0.00    +0.341 C 
ATOM      2  O   UNL     1       4.798   7.887   0.028  0.00  0.00    -0.245 OA
ENDROOT
BRANCH   1   6
ATOM      3  C   UNL     1       3.409   9.185   1.718  0.00  0.00    +0.068 C 
ATOM      4  C   UNL     1       2.163   8.372   1.481  0.00  0.00    +0.070 A 
ATOM      5  C   UNL     1       2.101   7.140   0.798  0.00  0.00    +0.055 A 
ATOM      6  C   UNL     1       3.069   6.322   0.166  0.00  0.00    +0.073 A 
ATOM      7  C   UNL     1       2.639   5.140  -0.424  0.00  0.00    +0.044 A 
ATOM      8  C   UNL     1       1.280   4.804  -0.371  0.00  0.00    +0.081 A 
ATOM      9  N   UNL     1       0.397   5.592   0.224  0.00  0.00    -0.227 NA
ATOM     10  C   UNL     1       0.753   6.728   0.806  0.00  0.00    +0.160 A 
ATOM     11  N   UNL     1       0.056   7.699   1.477  0.00  0.00    -0.249 N 
ATOM     12  N   UNL     1       0.962   8.690   1.874  0.00  0.00    -0.174 NA
ATOM     13  C   UNL     1      -1.386   7.699   1.735  0.00  0.00    +0.174 C 
BRANCH   8  14
ATOM     14  C   UNL     1       0.821   3.548  -0.997  0.00  0.00    +0.038 A 
ATOM     15  C   UNL     1      -0.446   3.029  -1.064  0.00  0.00    +0.017 A 
ATOM     16  C   UNL     1      -0.636   1.830  -1.712  0.00  0.00    +0.008 A 
ATOM     17  C   UNL     1       0.435   1.194  -2.256  0.00  0.00    +0.046 A 
ATOM     18  S   UNL     1       1.772   2.311  -1.864  0.00  0.00    -0.095 S 
ENDBRANCH   8  14
ENDBRANCH   1   6
BRANCH   1  19
ATOM     19  O   UNL     1       5.453   5.775   0.220  0.00  0.00    -0.449 OA
BRANCH  19  20
ATOM     20  C   UNL     1       6.830   6.233   0.181  0.00  0.00    +0.259 C 
ATOM     21  C   UNL     1       7.317   6.264  -1.269  0.00  0.00    +0.062 C 
BRANCH  20  22
ATOM     22  C   UNL     1       7.695   5.294   0.981  0.00  0.00    +0.258 C 
ATOM     23  O   UNL     1       7.218   4.284   1.454  0.00  0.00    -0.271 OA
ATOM     24  N   UNL     1       9.000   5.575   1.171  0.00  0.00    -0.282 N 
ATOM     25  H   UNL     1       9.363   6.420   0.863  0.00  0.00    +0.155 HD
BRANCH  24  26
ATOM     26  C   UNL     1       9.830   4.647   1.813  0.00  0.00    +0.037 A 
ATOM     27  C   UNL     1      10.863   5.089   2.630  0.00  0.00    +0.027 A 
ATOM     28  C   UNL     1      11.681   4.175   3.267  0.00  0.00    +0.051 A 
ATOM     29  C   UNL     1      11.478   2.816   3.086  0.00  0.00    +0.166 A 
ATOM     30  C   UNL     1      10.446   2.371   2.264  0.00  0.00    +0.168 A 
ATOM     31  C   UNL     1       9.624   3.287   1.629  0.00  0.00    +0.072 A 
ATOM     32  O   UNL     1      10.457   1.006   2.251  0.00  0.00    -0.453 OA
ATOM     33  C   UNL     1      11.755   0.627   2.744  0.00  0.00    +0.466 C 
ATOM     34  O   UNL     1      12.136   1.730   3.588  0.00  0.00    -0.453 OA
ENDBRANCH  24  26
ENDBRANCH  20  22
ENDBRANCH  19  20
ENDBRANCH   1  19
TORSDOF 6
