REMARK  Name = ZINC36538529
REMARK  11 active torsions:
REMARK  status: ('A' for Active; 'I' for Inactive)
REMARK    1  A    between atoms: C_1  and  C_2
REMARK    2  A    between atoms: C_5  and  S_8
REMARK    3  A    between atoms: S_8  and  C_11
REMARK    4  A    between atoms: C_11  and  N_12
REMARK    5  A    between atoms: C_13  and  C_15
REMARK    6  A    between atoms: C_15  and  C_17
REMARK    7  A    between atoms: C_15  and  N_29
REMARK    8  A    between atoms: C_26  and  O_27
REMARK    9  A    between atoms: O_27  and  C_28
REMARK   10  A    between atoms: N_29  and  C_30
REMARK   11  A    between atoms: C_31  and  C_33
REMARK                            x       y       z     vdW  Elec       q    Type
REMARK                         _______ _______ _______ _____ _____    ______ ____
ROOT
ATOM      1  C   UNL     1       3.091  -4.914   3.555  0.00  0.00    +0.196 C 
ENDROOT
BRANCH   1   2
ATOM      2  C   UNL     1       4.435  -4.358   3.162  0.00  0.00    +0.031 A 
ATOM      3  C   UNL     1       5.328  -3.906   4.147  0.00  0.00    -0.009 A 
ATOM      4  C   UNL     1       4.996  -3.960   5.512  0.00  0.00    +0.009 A 
ATOM      5  C   UNL     1       5.886  -3.514   6.440  0.00  0.00    +0.001 A 
ATOM      6  C   UNL     1       7.125  -3.003   6.058  0.00  0.00    +0.001 A 
ATOM      7  C   UNL     1       7.481  -2.935   4.746  0.00  0.00    +0.008 A 
ATOM      8  C   UNL     1       6.588  -3.387   3.759  0.00  0.00    -0.017 A 
ATOM      9  C   UNL     1       6.923  -3.332   2.394  0.00  0.00    +0.012 A 
ATOM     10  C   UNL     1       6.036  -3.777   1.465  0.00  0.00    +0.046 A 
ATOM     11  C   UNL     1       4.794  -4.295   1.846  0.00  0.00    +0.126 A 
BRANCH  11  12
ATOM     12  O   UNL     1       3.931  -4.737   0.894  0.00  0.00    -0.495 OA
ATOM     13  C   UNL     1       4.403  -4.748  -0.455  0.00  0.00    +0.277 C 
ENDBRANCH  11  12
ENDBRANCH   1   2
BRANCH   1  15
ATOM     14  N   UNL     1       1.700  -4.253   1.619  0.00  0.00    -0.294 N 
ATOM     15  C   UNL     1       2.299  -5.240   2.315  0.00  0.00    +0.239 C 
ATOM     16  O   UNL     1       2.202  -6.390   1.942  0.00  0.00    -0.273 OA
ATOM     17  H   UNL     1       1.840  -3.327   1.872  0.00  0.00    +0.150 HD
BRANCH  14  18
ATOM     18  C   UNL     1       0.836  -4.579   0.482  0.00  0.00    +0.278 C 
BRANCH  18  19
ATOM     19  S   UNL     1      -0.893  -4.627   1.030  0.00  0.00    +0.013 S 
ATOM     20  O   UNL     1      -1.007  -5.389   2.225  0.00  0.00    -0.168 OA
ATOM     21  O   UNL     1      -1.750  -4.880  -0.074  0.00  0.00    -0.168 OA
BRANCH  19  26
ATOM     22  C   UNL     1      -2.155   1.035   2.691  0.00  0.00    +0.044 C 
ATOM     23  C   UNL     1      -1.839  -0.380   2.276  0.00  0.00    -0.050 A 
ATOM     24  C   UNL     1      -2.054  -0.781   0.971  0.00  0.00    +0.005 A 
ATOM     25  C   UNL     1      -1.765  -2.078   0.591  0.00  0.00    +0.027 A 
ATOM     26  C   UNL     1      -1.260  -2.974   1.515  0.00  0.00    +0.090 A 
ATOM     27  C   UNL     1      -1.045  -2.572   2.820  0.00  0.00    +0.027 A 
ATOM     28  C   UNL     1      -1.330  -1.273   3.199  0.00  0.00    +0.005 A 
ENDBRANCH  19  26
ENDBRANCH  18  19
ENDBRANCH  14  18
ENDBRANCH   1  15
BRANCH   1  29
ATOM     29  N   UNL     1       3.279  -6.131   4.348  0.00  0.00    -0.285 N 
ATOM     30  C   UNL     1       4.102  -7.225   3.827  0.00  0.00    +0.133 C 
ATOM     31  C   UNL     1       2.695  -6.245   5.558  0.00  0.00    +0.249 C 
ATOM     32  O   UNL     1       1.944  -5.375   5.954  0.00  0.00    -0.270 OA
BRANCH  31  33
ATOM     33  C   UNL     1       2.967  -7.427   6.402  0.00  0.00    +0.055 A 
ATOM     34  C   UNL     1       4.229  -8.034   6.391  0.00  0.00    +0.016 A 
ATOM     35  C   UNL     1       4.432  -9.138   7.200  0.00  0.00    +0.020 A 
ATOM     36  C   UNL     1       3.392  -9.602   7.987  0.00  0.00    +0.111 A 
ATOM     37  N   UNL     1       2.213  -9.010   7.976  0.00  0.00    -0.263 NA
ATOM     38  C   UNL     1       1.973  -7.953   7.228  0.00  0.00    +0.123 A 
ENDBRANCH  31  33
ENDBRANCH   1  29
TORSDOF 8
