REMARK  Name = ZINC56124812
REMARK  5 active torsions:
REMARK  status: ('A' for Active; 'I' for Inactive)
REMARK    1  A    between atoms: C_3  and  N_23
REMARK    2  A    between atoms: C_6  and  C_7
REMARK    3  A    between atoms: C_7  and  N_8
REMARK    4  A    between atoms: N_8  and  S_9
REMARK    5  A    between atoms: S_9  and  C_12
REMARK                            x       y       z     vdW  Elec       q    Type
REMARK                         _______ _______ _______ _____ _____    ______ ____
ROOT
ATOM      1  S   UNL     1      -2.898  -2.144  -1.682  0.00  0.00    +0.059 S 
ATOM      2  O   UNL     1      -3.112  -2.127  -3.087  0.00  0.00    -0.153 OA
ATOM      3  O   UNL     1      -2.525  -3.324  -0.983  0.00  0.00    -0.153 OA
ENDROOT
BRANCH   1   4
ATOM      4  C   UNL     1      -4.387  -1.568  -0.938  0.00  0.00    +0.106 A 
ATOM      5  C   UNL     1      -4.685  -1.913   0.367  0.00  0.00    +0.030 A 
ATOM      6  C   UNL     1      -5.851  -1.463   0.954  0.00  0.00    +0.025 A 
ATOM      7  C   UNL     1      -6.725  -0.662   0.231  0.00  0.00    +0.037 A 
ATOM      8  C   UNL     1      -6.423  -0.317  -1.080  0.00  0.00    -0.024 A 
ATOM      9  C   UNL     1      -5.253  -0.766  -1.659  0.00  0.00    +0.034 A 
ATOM     10  C   UNL     1      -7.371   0.553  -1.864  0.00  0.00    +0.046 C 
ATOM     11  C   UNL     1      -8.810   0.245  -1.447  0.00  0.00    +0.101 C 
ATOM     12  C   UNL     1      -8.920   0.246   0.054  0.00  0.00    +0.218 C 
ATOM     13  O   UNL     1      -9.933   0.655   0.580  0.00  0.00    -0.275 OA
ATOM     14  N   UNL     1      -7.908  -0.202   0.819  0.00  0.00    -0.285 N 
ATOM     15  H   UNL     1      -7.999  -0.207   1.784  0.00  0.00    +0.155 HD
ENDBRANCH   1   4
BRANCH   1  16
ATOM     16  N   UNL     1      -1.725  -1.018  -1.368  0.00  0.00    -0.186 NA
ATOM     17  H   UNL     1      -1.325  -0.518  -2.097  0.00  0.00    +0.148 HD
BRANCH  16  18
ATOM     18  C   UNL     1      -1.293  -0.775   0.010  0.00  0.00    +0.141 C 
BRANCH  18  24
ATOM     19  C   UNL     1      -0.017   1.378   0.010  0.00  0.00    +0.007 A 
ATOM     20  C   UNL     1       1.171   2.086   0.002  0.00  0.00    +0.033 A 
ATOM     21  C   UNL     1       2.377   1.411  -0.013  0.00  0.00    +0.126 A 
ATOM     22  C   UNL     1       2.396   0.029  -0.020  0.00  0.00    +0.033 A 
ATOM     23  C   UNL     1       1.208  -0.679  -0.012  0.00  0.00    +0.007 A 
ATOM     24  C   UNL     1       0.002  -0.004   0.002  0.00  0.00    -0.032 A 
BRANCH  21  25
ATOM     25  N   UNL     1       3.649   2.168  -0.022  0.00  0.00    +0.056 N 
ATOM     26  O   UNL     1       3.633   3.377  -0.016  0.00  0.00    -0.126 OA
ATOM     27  O   UNL     1       4.704   1.578  -0.035  0.00  0.00    -0.126 OA
ENDBRANCH  21  25
ENDBRANCH  18  24
ENDBRANCH  16  18
ENDBRANCH   1  16
TORSDOF 5
