REMARK  Name = ZINC14142132
REMARK  7 active torsions:
REMARK  status: ('A' for Active; 'I' for Inactive)
REMARK    1  A    between atoms: C_1  and  C_2
REMARK    2  A    between atoms: C_8  and  C_10
REMARK    3  A    between atoms: C_10  and  C_12
REMARK    4  A    between atoms: C_10  and  O_13
REMARK    5  A    between atoms: O_13  and  C_14
REMARK    6  A    between atoms: C_14  and  C_16
REMARK    7  A    between atoms: C_21  and  O_22
REMARK                            x       y       z     vdW  Elec       q    Type
REMARK                         _______ _______ _______ _____ _____    ______ ____
ROOT
ATOM      1  C   UNL     1       1.625   5.462   0.015  0.00  0.00    +0.259 C 
ATOM      2  C   UNL     1       2.370   5.710  -1.299  0.00  0.00    +0.062 C 
ENDROOT
BRANCH   1  10
ATOM      3  C   UNL     1      -1.194  -0.921   0.008  0.00  0.00    +0.089 C 
ATOM      4  C   UNL     1       0.002  -0.004   0.002  0.00  0.00    +0.136 A 
ATOM      5  C   UNL     1      -0.016   1.348   0.009  0.00  0.00    +0.091 A 
ATOM      6  C   UNL     1       1.357   1.710  -0.002  0.00  0.00    +0.168 A 
ATOM      7  N   UNL     1       2.029   0.589  -0.014  0.00  0.00    -0.063 NA
ATOM      8  O   UNL     1       1.292  -0.370  -0.012  0.00  0.00    -0.358 OA
ATOM      9  N   UNL     1       1.883   3.002  -0.000  0.00  0.00    -0.265 N 
ATOM     10  C   UNL     1       1.057   4.066   0.013  0.00  0.00    +0.259 C 
ATOM     11  O   UNL     1      -0.145   3.900   0.024  0.00  0.00    -0.271 OA
ATOM     12  H   UNL     1       2.844   3.134  -0.009  0.00  0.00    +0.156 HD
ENDBRANCH   1  10
BRANCH   1  13
ATOM     13  O   UNL     1       0.546   6.423   0.149  0.00  0.00    -0.449 OA
BRANCH  13  14
ATOM     14  C   UNL     1       0.834   7.584   0.770  0.00  0.00    +0.343 C 
ATOM     15  O   UNL     1       1.957   7.786   1.188  0.00  0.00    -0.245 OA
BRANCH  14  16
ATOM     16  C   UNL     1      -0.212   8.608   0.943  0.00  0.00    +0.101 A 
ATOM     17  C   UNL     1      -1.503   8.381   0.458  0.00  0.00    +0.034 A 
ATOM     18  C   UNL     1      -2.478   9.341   0.626  0.00  0.00    +0.019 A 
ATOM     19  C   UNL     1      -2.181  10.535   1.266  0.00  0.00    +0.019 A 
ATOM     20  C   UNL     1      -0.908  10.773   1.745  0.00  0.00    +0.047 A 
ATOM     21  C   UNL     1       0.084   9.816   1.588  0.00  0.00    +0.131 A 
ATOM     22 BR   UNL     1      -4.227   9.031  -0.024  0.00  0.00    -0.050 Br
BRANCH  21  23
ATOM     23  O   UNL     1       1.335  10.049   2.058  0.00  0.00    -0.506 OA
ATOM     24  H   UNL     1       1.922  10.476   1.419  0.00  0.00    +0.292 HD
ENDBRANCH  21  23
ENDBRANCH  14  16
ENDBRANCH  13  14
ENDBRANCH   1  13
TORSDOF 5
