REMARK  Name = ZINC15130585
REMARK  6 active torsions:
REMARK  status: ('A' for Active; 'I' for Inactive)
REMARK    1  A    between atoms: C_4  and  C_7
REMARK    2  A    between atoms: C_12  and  N_16
REMARK    3  A    between atoms: N_16  and  C_17
REMARK    4  A    between atoms: C_17  and  C_18
REMARK    5  A    between atoms: C_18  and  C_19
REMARK    6  A    between atoms: C_19  and  N_20
REMARK                            x       y       z     vdW  Elec       q    Type
REMARK                         _______ _______ _______ _____ _____    ______ ____
ROOT
ATOM      1  N   UNL     1       1.860   3.021  -2.334  0.00  0.00    -0.328 N 
ATOM      2  H   UNL     1       1.508   2.385  -1.692  0.00  0.00    +0.147 HD
ENDROOT
BRANCH   1   8
ATOM      3  C   UNL     1       3.436   2.561   0.239  0.00  0.00    +0.002 A 
ATOM      4  C   UNL     1       4.290   2.493   1.287  0.00  0.00    +0.056 A 
ATOM      5  S   UNL     1       5.671   3.491   0.765  0.00  0.00    -0.076 S 
ATOM      6  C   UNL     1       5.075   3.982  -0.832  0.00  0.00    +0.114 A 
ATOM      7  C   UNL     1       3.816   3.354  -0.925  0.00  0.00    +0.055 A 
ATOM      8  C   UNL     1       3.107   3.587  -2.134  0.00  0.00    +0.131 A 
ATOM      9  N   UNL     1       3.652   4.352  -3.066  0.00  0.00    -0.220 NA
ATOM     10  C   UNL     1       4.839   4.910  -2.911  0.00  0.00    +0.224 A 
ATOM     11  N   UNL     1       5.545   4.730  -1.811  0.00  0.00    -0.228 NA
BRANCH   3  15
ATOM     12  C   UNL     1      -0.288   0.515   0.342  0.00  0.00    +0.000 A 
ATOM     13  C   UNL     1      -0.263   1.893   0.221  0.00  0.00    +0.001 A 
ATOM     14  C   UNL     1       0.944   2.562   0.188  0.00  0.00    +0.008 A 
ATOM     15  C   UNL     1       2.138   1.848   0.275  0.00  0.00    -0.017 A 
ATOM     16  C   UNL     1       2.105   0.459   0.398  0.00  0.00    +0.008 A 
ATOM     17  C   UNL     1       0.893  -0.200   0.431  0.00  0.00    +0.001 A 
ENDBRANCH   3  15
ENDBRANCH   1   8
BRANCH   1  18
ATOM     18  C   UNL     1       1.074   3.381  -3.517  0.00  0.00    +0.104 C 
BRANCH  18  19
ATOM     19  C   UNL     1      -0.253   2.620  -3.497  0.00  0.00    +0.038 C 
BRANCH  19  20
ATOM     20  C   UNL     1      -1.075   2.996  -4.732  0.00  0.00    +0.119 C 
BRANCH  20  21
ATOM     21  N   UNL     1      -2.346   2.267  -4.714  0.00  0.00    -0.224 N 
ATOM     22  C   UNL     1      -3.476   2.726  -4.135  0.00  0.00    +0.246 C 
ATOM     23  O   UNL     1      -3.630   3.779  -3.554  0.00  0.00    -0.273 OA
ATOM     24  C   UNL     1      -4.507   1.650  -4.366  0.00  0.00    +0.113 C 
ATOM     25  C   UNL     1      -5.696   2.190  -5.171  0.00  0.00    +0.035 C 
ATOM     26  C   UNL     1      -6.918   1.433  -4.588  0.00  0.00    +0.003 C 
ATOM     27  C   UNL     1      -6.580   1.346  -3.078  0.00  0.00    +0.003 C 
ATOM     28  C   UNL     1      -5.054   1.111  -3.042  0.00  0.00    +0.035 C 
ATOM     29  N   UNL     1      -3.792   0.612  -5.111  0.00  0.00    -0.285 N 
ATOM     30  C   UNL     1      -2.532   1.065  -5.274  0.00  0.00    +0.309 C 
ATOM     31  O   UNL     1      -1.663   0.449  -5.859  0.00  0.00    -0.252 OA
ATOM     32  H   UNL     1      -4.153  -0.230  -5.429  0.00  0.00    +0.151 HD
ENDBRANCH  20  21
ENDBRANCH  19  20
ENDBRANCH  18  19
ENDBRANCH   1  18
TORSDOF 6
