REMARK  Name = ZINC13305502
REMARK  8 active torsions:
REMARK  status: ('A' for Active; 'I' for Inactive)
REMARK    1  A    between atoms: C_1  and  C_2
REMARK    2  A    between atoms: C_2  and  N_3
REMARK    3  A    between atoms: C_7  and  C_24
REMARK    4  A    between atoms: C_9  and  C_17
REMARK    5  A    between atoms: C_11  and  C_12
REMARK    6  A    between atoms: C_11  and  O_16
REMARK    7  A    between atoms: C_17  and  C_19
REMARK    8  A    between atoms: C_29  and  N_30
REMARK                            x       y       z     vdW  Elec       q    Type
REMARK                         _______ _______ _______ _____ _____    ______ ____
ROOT
ATOM      1  N   UNL     1       0.123   4.330  -0.045  0.00  0.00    -0.250 N 
ATOM      2  C   UNL     1      -0.006   4.196  -1.373  0.00  0.00    +0.305 C 
ATOM      3  O   UNL     1      -0.809   4.899  -1.956  0.00  0.00    -0.253 OA
ATOM      4  N   UNL     1       0.715   3.317  -2.085  0.00  0.00    -0.291 N 
ATOM      5  C   UNL     1       1.706   2.450  -1.445  0.00  0.00    +0.122 C 
ATOM      6  C   UNL     1       1.278   2.179   0.002  0.00  0.00    +0.145 C 
ATOM      7  C   UNL     1       1.081   3.523   0.712  0.00  0.00    +0.246 C 
ATOM      8  H   UNL     1       0.576   3.253  -3.043  0.00  0.00    +0.151 HD
ENDROOT
BRANCH   5   9
ATOM      9  C   UNL     1       1.796   1.147  -2.196  0.00  0.00    +0.004 A 
ATOM     10  C   UNL     1       0.760   0.753  -3.023  0.00  0.00    +0.008 A 
ATOM     11  C   UNL     1       0.845  -0.440  -3.716  0.00  0.00    +0.000 A 
ATOM     12  C   UNL     1       1.960  -1.244  -3.574  0.00  0.00    +0.002 A 
ATOM     13  C   UNL     1       2.993  -0.853  -2.743  0.00  0.00    +0.033 A 
ATOM     14  C   UNL     1       2.911   0.343  -2.054  0.00  0.00    +0.131 A 
BRANCH  14  15
ATOM     15  N   UNL     1       4.017   0.762  -1.163  0.00  0.00    +0.057 N 
ATOM     16  O   UNL     1       4.999   0.053  -1.038  0.00  0.00    -0.126 OA
ATOM     17  O   UNL     1       3.944   1.815  -0.556  0.00  0.00    -0.126 OA
ENDBRANCH  14  15
ENDBRANCH   5   9
BRANCH   7  18
ATOM     18  C   UNL     1       2.420   4.259   0.794  0.00  0.00    +0.436 C 
ATOM     19  F   UNL     1       2.909   4.482  -0.498  0.00  0.00    -0.166 F 
ATOM     20  F   UNL     1       2.239   5.485   1.442  0.00  0.00    -0.166 F 
ATOM     21  F   UNL     1       3.336   3.482   1.511  0.00  0.00    -0.166 F 
ENDBRANCH   7  18
BRANCH   1  23
ATOM     22  C   UNL     1      -2.012   4.634   1.109  0.00  0.00    +0.024 C 
ATOM     23  C   UNL     1      -0.711   5.305   0.662  0.00  0.00    +0.109 C 
ENDBRANCH   1  23
BRANCH   7  24
ATOM     24  O   UNL     1       0.578   3.297   2.030  0.00  0.00    -0.364 OA
ATOM     25  H   UNL     1       0.429   4.106   2.539  0.00  0.00    +0.212 HD
ENDBRANCH   7  24
BRANCH   6  26
ATOM     26  C   UNL     1      -0.017   1.408   0.010  0.00  0.00    +0.180 C 
ATOM     27  O   UNL     1      -1.077   2.001   0.018  0.00  0.00    -0.291 OA
BRANCH  26  28
ATOM     28  C   UNL     1       0.002  -0.004   0.002  0.00  0.00    +0.055 A 
ATOM     29  C   UNL     1      -1.066  -0.896   0.007  0.00  0.00    +0.019 A 
ATOM     30  C   UNL     1      -0.761  -2.232  -0.003  0.00  0.00    +0.008 A 
ATOM     31  C   UNL     1       0.544  -2.616  -0.018  0.00  0.00    +0.046 A 
ATOM     32  S   UNL     1       1.402  -1.110  -0.025  0.00  0.00    -0.094 S 
ENDBRANCH  26  28
ENDBRANCH   6  26
TORSDOF 7
