REMARK  Name = ZINC32115436
REMARK  7 active torsions:
REMARK  status: ('A' for Active; 'I' for Inactive)
REMARK    1  A    between atoms: C_1  and  C_2
REMARK    2  A    between atoms: C_4  and  N_20
REMARK    3  A    between atoms: C_7  and  N_8
REMARK    4  A    between atoms: C_9  and  C_11
REMARK    5  A    between atoms: N_20  and  C_21
REMARK    6  A    between atoms: C_21  and  N_23
REMARK    7  A    between atoms: C_24  and  C_26
REMARK                            x       y       z     vdW  Elec       q    Type
REMARK                         _______ _______ _______ _____ _____    ______ ____
ROOT
ATOM      1  C   UNL     1      -6.703   6.097  -0.909  0.00  0.00    +0.046 C 
ATOM      2  C   UNL     1      -7.500   4.885  -0.502  0.00  0.00    -0.027 A 
ATOM      3  C   UNL     1      -8.877   4.903  -0.589  0.00  0.00    +0.028 A 
ATOM      4  C   UNL     1      -9.612   3.788  -0.208  0.00  0.00    +0.033 A 
ATOM      5  C   UNL     1      -8.960   2.651   0.254  0.00  0.00    +0.025 A 
ATOM      6  C   UNL     1      -7.583   2.631   0.335  0.00  0.00    +0.025 A 
ATOM      7  C   UNL     1      -6.848   3.747  -0.045  0.00  0.00    +0.037 A 
ENDROOT
BRANCH   7   8
ATOM      8  N   UNL     1      -5.450   3.726   0.037  0.00  0.00    -0.279 N 
ATOM      9  C   UNL     1      -4.836   2.834   0.839  0.00  0.00    +0.284 C 
ATOM     10  O   UNL     1      -5.493   2.135   1.588  0.00  0.00    -0.266 OA
ATOM     11  H   UNL     1      -4.854   4.437  -0.553  0.00  0.00    +0.155 HD
BRANCH   9  12
ATOM     12  C   UNL     1      -3.372   2.705   0.809  0.00  0.00    +0.191 A 
ATOM     13  C   UNL     1      -2.648   1.844   1.569  0.00  0.00    +0.063 A 
ATOM     14  C   UNL     1      -1.248   2.064   1.208  0.00  0.00    +0.021 A 
ATOM     15  C   UNL     1      -0.036   1.507   1.623  0.00  0.00    +0.011 A 
ATOM     16  C   UNL     1       1.135   1.942   1.068  0.00  0.00    +0.001 A 
ATOM     17  C   UNL     1       1.127   2.938   0.101  0.00  0.00    +0.004 A 
ATOM     18  C   UNL     1      -0.057   3.505  -0.317  0.00  0.00    +0.047 A 
ATOM     19  C   UNL     1      -1.261   3.079   0.232  0.00  0.00    +0.136 A 
ATOM     20  O   UNL     1      -2.544   3.434   0.031  0.00  0.00    -0.450 OA
ENDBRANCH   9  12
ENDBRANCH   7   8
BRANCH   4  21
ATOM     21  N   UNL     1     -11.010   3.808  -0.291  0.00  0.00    -0.297 N 
ATOM     22  H   UNL     1     -11.501   4.187  -1.199  0.00  0.00    +0.154 HD
BRANCH  21  23
ATOM     23  C   UNL     1     -11.753   3.364   0.742  0.00  0.00    +0.141 C 
ATOM     24  S   UNL     1     -10.990   2.666   2.107  0.00  0.00    -0.018 S 
BRANCH  23  25
ATOM     25  N   UNL     1     -13.095   3.470   0.701  0.00  0.00    -0.264 N 
ATOM     26  C   UNL     1     -13.838   3.026   1.734  0.00  0.00    +0.251 C 
ATOM     27  O   UNL     1     -13.297   2.530   2.703  0.00  0.00    -0.270 OA
ATOM     28  H   UNL     1     -13.585   3.919  -0.175  0.00  0.00    +0.157 HD
BRANCH  26  29
ATOM     29  C   UNL     1     -15.310   3.142   1.690  0.00  0.00    +0.057 A 
ATOM     30  C   UNL     1     -15.935   3.716   0.581  0.00  0.00    +0.034 A 
ATOM     31  C   UNL     1     -17.311   3.818   0.543  0.00  0.00    +0.042 A 
ATOM     32  C   UNL     1     -18.071   3.360   1.607  0.00  0.00    +0.021 A 
ATOM     33  C   UNL     1     -17.459   2.795   2.710  0.00  0.00    +0.022 A 
ATOM     34  C   UNL     1     -16.083   2.683   2.759  0.00  0.00    +0.053 A 
ATOM     35 CL   UNL     1     -15.317   1.972   4.145  0.00  0.00    -0.083 Cl
ATOM     36 CL   UNL     1     -18.090   4.526  -0.837  0.00  0.00    -0.084 Cl
ENDBRANCH  26  29
ENDBRANCH  23  25
ENDBRANCH  21  23
ENDBRANCH   4  21
TORSDOF 6
