REMARK  Name = ZINC08328030
REMARK  5 active torsions:
REMARK  status: ('A' for Active; 'I' for Inactive)
REMARK    1  A    between atoms: C_6  and  C_7
REMARK    2  A    between atoms: C_7  and  N_8
REMARK    3  A    between atoms: C_9  and  C_11
REMARK    4  A    between atoms: C_11  and  C_12
REMARK    5  A    between atoms: C_12  and  N_13
REMARK                            x       y       z     vdW  Elec       q    Type
REMARK                         _______ _______ _______ _____ _____    ______ ____
ROOT
ATOM      1  C   UNL     1       8.327  -1.663   0.462  0.00  0.00    +0.115 C 
ENDROOT
BRANCH   1   3
ATOM      2  N   UNL     1       6.051  -1.072   1.229  0.00  0.00    -0.311 N 
ATOM      3  C   UNL     1       7.355  -1.234   1.530  0.00  0.00    +0.215 C 
ATOM      4  O   UNL     1       7.745  -1.036   2.661  0.00  0.00    -0.276 OA
ATOM      5  H   UNL     1       5.739  -1.231   0.324  0.00  0.00    +0.149 HD
BRANCH   2   6
ATOM      6  C   UNL     1       5.106  -0.655   2.267  0.00  0.00    +0.139 C 
BRANCH   6  12
ATOM      7  C   UNL     1       2.886  -1.646   1.677  0.00  0.00    +0.009 A 
ATOM      8  C   UNL     1       1.617  -1.552   1.135  0.00  0.00    +0.050 A 
ATOM      9  C   UNL     1       1.183  -0.356   0.589  0.00  0.00    +0.166 A 
ATOM     10  C   UNL     1       2.029   0.752   0.587  0.00  0.00    +0.167 A 
ATOM     11  C   UNL     1       3.298   0.650   1.131  0.00  0.00    +0.054 A 
ATOM     12  C   UNL     1       3.724  -0.547   1.675  0.00  0.00    -0.027 A 
ATOM     13  O   UNL     1       1.376   1.797  -0.001  0.00  0.00    -0.453 OA
ATOM     14  C   UNL     1      -0.018   1.436   0.010  0.00  0.00    +0.466 C 
ATOM     15  O   UNL     1       0.002  -0.004   0.002  0.00  0.00    -0.453 OA
ENDBRANCH   6  12
ENDBRANCH   2   6
ENDBRANCH   1   3
BRANCH   1  16
ATOM     16  C   UNL     1       9.730  -1.772   1.063  0.00  0.00    +0.127 C 
BRANCH  16  17
ATOM     17  N   UNL     1      10.675  -2.190   0.024  0.00  0.00    -0.224 N 
ATOM     18  C   UNL     1      11.357  -1.336  -0.768  0.00  0.00    +0.247 C 
ATOM     19  O   UNL     1      11.306  -0.125  -0.756  0.00  0.00    -0.273 OA
ATOM     20  C   UNL     1      12.197  -2.208  -1.672  0.00  0.00    +0.113 C 
ATOM     21  C   UNL     1      13.680  -1.925  -1.456  0.00  0.00    +0.035 C 
ATOM     22  C   UNL     1      14.514  -2.837  -2.359  0.00  0.00    +0.003 C 
ATOM     23  C   UNL     1      14.137  -2.587  -3.821  0.00  0.00    +0.000 C 
ATOM     24  C   UNL     1      12.654  -2.899  -4.027  0.00  0.00    +0.003 C 
ATOM     25  C   UNL     1      11.812  -1.988  -3.131  0.00  0.00    +0.035 C 
ATOM     26  N   UNL     1      11.868  -3.577  -1.254  0.00  0.00    -0.285 N 
ATOM     27  C   UNL     1      10.974  -3.465  -0.253  0.00  0.00    +0.309 C 
ATOM     28  O   UNL     1      10.491  -4.415   0.332  0.00  0.00    -0.252 OA
ATOM     29  H   UNL     1      12.227  -4.399  -1.623  0.00  0.00    +0.151 HD
ENDBRANCH  16  17
ENDBRANCH   1  16
TORSDOF 5
