REMARK  Name = ZINC06106727
REMARK  8 active torsions:
REMARK  status: ('A' for Active; 'I' for Inactive)
REMARK    1  A    between atoms: C_1  and  C_2
REMARK    2  A    between atoms: C_5  and  N_9
REMARK    3  A    between atoms: C_6  and  C_8
REMARK    4  A    between atoms: C_13  and  S_14
REMARK    5  A    between atoms: S_14  and  C_15
REMARK    6  A    between atoms: C_15  and  C_16
REMARK    7  A    between atoms: N_21  and  C_22
REMARK    8  A    between atoms: C_28  and  C_30
REMARK                            x       y       z     vdW  Elec       q    Type
REMARK                         _______ _______ _______ _____ _____    ______ ____
ROOT
ATOM      1  C   UNL     1      -6.142   1.080   3.590  0.00  0.00    +0.173 C 
ENDROOT
BRANCH   1   2
ATOM      2  C   UNL     1      -5.436   0.594   2.350  0.00  0.00    +0.231 C 
ATOM      3  O   UNL     1      -6.077   0.303   1.363  0.00  0.00    -0.274 OA
ATOM      4  N   UNL     1      -4.093   0.484   2.339  0.00  0.00    -0.239 N 
ATOM      5  C   UNL     1      -3.462   0.049   1.230  0.00  0.00    +0.306 C 
ATOM      6  O   UNL     1      -4.105  -0.243   0.240  0.00  0.00    -0.252 OA
ATOM      7  N   UNL     1      -2.119  -0.061   1.218  0.00  0.00    -0.296 N 
ATOM      8  H   UNL     1      -3.580   0.717   3.128  0.00  0.00    +0.159 HD
ATOM      9  H   UNL     1      -1.606   0.172   2.008  0.00  0.00    +0.151 HD
BRANCH   7  10
ATOM     10  C   UNL     1      -1.433  -0.534   0.013  0.00  0.00    +0.077 C 
ATOM     11  C   UNL     1      -1.413  -2.063   0.004  0.00  0.00    +0.022 C 
ATOM     12  C   UNL     1      -0.673  -2.570   1.244  0.00  0.00    +0.002 C 
ATOM     13  C   UNL     1       0.763  -2.041   1.233  0.00  0.00    +0.000 C 
ATOM     14  C   UNL     1       0.742  -0.511   1.242  0.00  0.00    +0.005 C 
ATOM     15  C   UNL     1       0.002  -0.004   0.002  0.00  0.00    +0.006 C 
ATOM     16  C   UNL     1      -0.019   1.526   0.010  0.00  0.00    +0.009 C 
ENDBRANCH   7  10
ENDBRANCH   1   2
BRANCH   1  17
ATOM     17  S   UNL     1      -7.927   1.119   3.293  0.00  0.00    -0.076 S 
BRANCH  17  22
ATOM     18  N   UNL     1      -9.782   1.936   5.225  0.00  0.00    -0.277 N 
ATOM     19  C   UNL     1      -9.727   2.380   6.519  0.00  0.00    +0.230 A 
ATOM     20  N   UNL     1      -8.471   2.401   6.868  0.00  0.00    -0.137 NA
ATOM     21  N   UNL     1      -7.735   2.000   5.894  0.00  0.00    -0.122 NA
ATOM     22  C   UNL     1      -8.485   1.706   4.858  0.00  0.00    +0.196 A 
BRANCH  18  27
ATOM     23  C   UNL     1     -14.428   1.205   2.047  0.00  0.00    +0.044 C 
ATOM     24  C   UNL     1     -13.195   1.399   2.890  0.00  0.00    -0.050 A 
ATOM     25  C   UNL     1     -12.837   2.668   3.309  0.00  0.00    +0.005 A 
ATOM     26  C   UNL     1     -11.710   2.848   4.086  0.00  0.00    +0.027 A 
ATOM     27  C   UNL     1     -10.930   1.755   4.439  0.00  0.00    +0.053 A 
ATOM     28  C   UNL     1     -11.291   0.483   4.019  0.00  0.00    -0.026 A 
ATOM     29  C   UNL     1     -12.422   0.308   3.245  0.00  0.00    +0.008 A 
ATOM     30  C   UNL     1     -10.451  -0.707   4.405  0.00  0.00    +0.046 C 
ENDBRANCH  18  27
ENDBRANCH  17  22
ENDBRANCH   1  17
TORSDOF 5
