REMARK  Name = ZINC57390719
REMARK  7 active torsions:
REMARK  status: ('A' for Active; 'I' for Inactive)
REMARK    1  A    between atoms: C_1  and  C_2
REMARK    2  A    between atoms: C_2  and  N_3
REMARK    3  A    between atoms: N_3  and  C_4
REMARK    4  A    between atoms: N_3  and  S_6
REMARK    5  A    between atoms: C_4  and  C_5
REMARK    6  A    between atoms: S_6  and  C_9
REMARK    7  A    between atoms: C_11  and  C_16
REMARK                            x       y       z     vdW  Elec       q    Type
REMARK                         _______ _______ _______ _____ _____    ______ ____
ROOT
ATOM      1  C   UNL     1       3.399   0.817   1.461  0.00  0.00    +0.124 A 
ATOM      2  C   UNL     1       4.119   0.800   2.637  0.00  0.00    +0.043 A 
ATOM      3  C   UNL     1       4.505   2.002   3.233  0.00  0.00    +0.039 A 
ATOM      4  C   UNL     1       4.160   3.215   2.633  0.00  0.00    +0.014 A 
ATOM      5  C   UNL     1       3.440   3.219   1.457  0.00  0.00    +0.023 A 
ATOM      6  C   UNL     1       3.064   2.023   0.868  0.00  0.00    +0.067 A 
ATOM      7 CL   UNL     1       2.163   2.036  -0.616  0.00  0.00    -0.082 Cl
ENDROOT
BRANCH   3   8
ATOM      8  C   UNL     1       5.277   1.992   4.493  0.00  0.00    +0.251 C 
ATOM      9  O   UNL     1       5.032   1.163   5.348  0.00  0.00    -0.270 OA
ATOM     10  N   UNL     1       6.251   2.900   4.695  0.00  0.00    -0.257 N 
ATOM     11  C   UNL     1       6.512   3.964   3.713  0.00  0.00    +0.210 C 
ATOM     12  C   UNL     1       8.002   4.125   3.547  0.00  0.00    +0.235 C 
ATOM     13  O   UNL     1       8.448   4.515   2.489  0.00  0.00    -0.274 OA
ATOM     14  N   UNL     1       8.843   3.841   4.559  0.00  0.00    -0.283 N 
ATOM     15  C   UNL     1       8.359   3.342   5.773  0.00  0.00    +0.055 A 
ATOM     16  C   UNL     1       7.046   2.865   5.850  0.00  0.00    +0.058 A 
ATOM     17  C   UNL     1       6.551   2.368   7.043  0.00  0.00    +0.025 A 
ATOM     18  C   UNL     1       7.359   2.351   8.167  0.00  0.00    +0.002 A 
ATOM     19  C   UNL     1       8.654   2.829   8.099  0.00  0.00    +0.002 A 
ATOM     20  C   UNL     1       9.163   3.320   6.901  0.00  0.00    +0.025 A 
ATOM     21  H   UNL     1       9.796   3.983   4.445  0.00  0.00    +0.155 HD
ENDBRANCH   3   8
BRANCH   1  22
ATOM     22  S   UNL     1       2.912  -0.699   0.707  0.00  0.00    +0.062 S 
ATOM     23  O   UNL     1       3.441  -1.742   1.514  0.00  0.00    -0.153 OA
ATOM     24  O   UNL     1       3.211  -0.579  -0.677  0.00  0.00    -0.153 OA
BRANCH  22  25
ATOM     25  N   UNL     1       1.263  -0.797   0.827  0.00  0.00    -0.177 NA
BRANCH  25  27
ATOM     26  C   UNL     1      -0.234   1.099   0.449  0.00  0.00    +0.022 C 
ATOM     27  C   UNL     1       0.415  -0.140  -0.171  0.00  0.00    +0.106 C 
ENDBRANCH  25  27
BRANCH  25  28
ATOM     28  C   UNL     1       0.652  -1.541   1.932  0.00  0.00    +0.106 C 
ATOM     29  C   UNL     1       0.338  -2.967   1.474  0.00  0.00    +0.022 C 
ENDBRANCH  25  28
ENDBRANCH  22  25
ENDBRANCH   1  22
TORSDOF 5
