REMARK  Name = ZINC58791586
REMARK  6 active torsions:
REMARK  status: ('A' for Active; 'I' for Inactive)
REMARK    1  A    between atoms: C_4  and  C_8
REMARK    2  A    between atoms: C_8  and  C_10
REMARK    3  A    between atoms: C_8  and  N_29
REMARK    4  A    between atoms: C_10  and  N_11
REMARK    5  A    between atoms: N_11  and  S_12
REMARK    6  A    between atoms: S_12  and  C_15
REMARK                            x       y       z     vdW  Elec       q    Type
REMARK                         _______ _______ _______ _____ _____    ______ ____
ROOT
ATOM      1  N   UNL     1       4.130  -0.539  -2.544  0.00  0.00    -0.191 NA
ATOM      2  H   UNL     1       3.890   0.389  -2.398  0.00  0.00    +0.148 HD
ENDROOT
BRANCH   1   3
ATOM      3  S   UNL     1       4.832  -0.998  -3.972  0.00  0.00    +0.058 S 
ATOM      4  O   UNL     1       4.924   0.171  -4.774  0.00  0.00    -0.153 OA
ATOM      5  O   UNL     1       5.970  -1.780  -3.633  0.00  0.00    -0.153 OA
BRANCH   3   6
ATOM      6  C   UNL     1       3.702  -2.079  -4.784  0.00  0.00    +0.106 A 
ATOM      7  C   UNL     1       3.762  -3.444  -4.546  0.00  0.00    +0.030 A 
ATOM      8  C   UNL     1       2.885  -4.306  -5.173  0.00  0.00    +0.028 A 
ATOM      9  C   UNL     1       1.934  -3.805  -6.049  0.00  0.00    +0.056 A 
ATOM     10  C   UNL     1       1.873  -2.422  -6.291  0.00  0.00    +0.065 A 
ATOM     11  C   UNL     1       2.760  -1.562  -5.649  0.00  0.00    +0.043 A 
ATOM     12  C   UNL     1       0.850  -1.923  -7.228  0.00  0.00    +0.262 A 
ATOM     13  O   UNL     1       0.755  -0.736  -7.472  0.00  0.00    -0.267 OA
ATOM     14  N   UNL     1       0.022  -2.818  -7.808  0.00  0.00    -0.275 N 
ATOM     15  H   UNL     1      -0.657  -2.507  -8.427  0.00  0.00    +0.173 HD
ATOM     16  C   UNL     1       0.120  -4.131  -7.544  0.00  0.00    +0.327 A 
ATOM     17  O   UNL     1      -0.650  -4.894  -8.093  0.00  0.00    -0.247 OA
ATOM     18  N   UNL     1       1.034  -4.637  -6.699  0.00  0.00    -0.307 N 
ATOM     19  H   UNL     1       1.065  -5.594  -6.541  0.00  0.00    +0.170 HD
ENDBRANCH   3   6
ENDBRANCH   1   3
BRANCH   1  20
ATOM     20  C   UNL     1       3.873  -1.536  -1.501  0.00  0.00    +0.095 C 
BRANCH  20  21
ATOM     21  C   UNL     1       3.653  -0.828  -0.163  0.00  0.00    -0.018 C 
BRANCH  21  25
ATOM     22  C   UNL     1       0.082   1.513  -0.358  0.00  0.00    +0.004 A 
ATOM     23  C   UNL     1       1.314   2.137  -0.299  0.00  0.00    +0.038 A 
ATOM     24  C   UNL     1       2.472   1.380  -0.235  0.00  0.00    +0.126 A 
ATOM     25  C   UNL     1       2.394  -0.002  -0.231  0.00  0.00    -0.006 A 
ATOM     26  C   UNL     1       1.161  -0.625  -0.291  0.00  0.00    +0.045 A 
ATOM     27  C   UNL     1       0.005   0.133  -0.354  0.00  0.00    +0.020 A 
ATOM     28 CL   UNL     1       1.063  -2.358  -0.286  0.00  0.00    -0.083 Cl
ATOM     29  F   UNL     1       3.676   1.990  -0.178  0.00  0.00    -0.205 F 
ENDBRANCH  21  25
BRANCH  21  30
ATOM     30  N   UNL     1       3.526  -1.828   0.905  0.00  0.00    +0.385 N 
ATOM     31  C   UNL     1       4.831  -2.497   1.140  0.00  0.00    -0.078 C 
ATOM     32  C   UNL     1       4.691  -3.053   2.579  0.00  0.00    -0.020 C 
ATOM     33  C   UNL     1       3.893  -1.944   3.302  0.00  0.00    -0.020 C 
ATOM     34  C   UNL     1       3.175  -1.169   2.182  0.00  0.00    -0.078 C 
ATOM     35  H   UNL     1       2.823  -2.510   0.661  0.00  0.00    -0.081 HD
ENDBRANCH  21  30
ENDBRANCH  20  21
ENDBRANCH   1  20
TORSDOF 6
