REMARK  Name = ZINC09618448
REMARK  7 active torsions:
REMARK  status: ('A' for Active; 'I' for Inactive)
REMARK    1  A    between atoms: C_4  and  N_9
REMARK    2  A    between atoms: C_5  and  C_6
REMARK    3  A    between atoms: C_10  and  C_12
REMARK    4  A    between atoms: C_12  and  S_13
REMARK    5  A    between atoms: S_13  and  C_14
REMARK    6  A    between atoms: N_19  and  C_20
REMARK    7  A    between atoms: C_20  and  C_21
REMARK                            x       y       z     vdW  Elec       q    Type
REMARK                         _______ _______ _______ _____ _____    ______ ____
ROOT
ATOM      1  C   UNL     1      -2.815  -0.076   0.029  0.00  0.00    +0.172 C 
ENDROOT
BRANCH   1   3
ATOM      2  N   UNL     1      -5.273  -0.355   0.052  0.00  0.00    -0.279 N 
ATOM      3  C   UNL     1      -4.055  -0.932   0.037  0.00  0.00    +0.228 C 
ATOM      4  O   UNL     1      -3.957  -2.141   0.029  0.00  0.00    -0.275 OA
ATOM      5  H   UNL     1      -5.351   0.612   0.058  0.00  0.00    +0.155 HD
BRANCH   2   9
ATOM      6  C   UNL     1      -8.740  -1.781   0.078  0.00  0.00    +0.022 A 
ATOM      7  C   UNL     1      -8.299  -3.052   0.067  0.00  0.00    +0.048 A 
ATOM      8  S   UNL     1      -6.527  -2.871   0.050  0.00  0.00    -0.081 S 
ATOM      9  C   UNL     1      -6.414  -1.143   0.059  0.00  0.00    +0.084 A 
ATOM     10  C   UNL     1      -7.743  -0.737   0.080  0.00  0.00    +0.065 A 
BRANCH  10  11
ATOM     11  C   UNL     1      -8.114   0.681   0.099  0.00  0.00    +0.244 C 
ATOM     12  O   UNL     1      -7.248   1.537   0.096  0.00  0.00    -0.270 OA
ATOM     13  N   UNL     1      -9.414   1.037   0.119  0.00  0.00    -0.325 N 
ATOM     14  H   UNL     1     -10.104   0.355   0.121  0.00  0.00    +0.145 HD
ATOM     15  H   UNL     1      -9.659   1.976   0.131  0.00  0.00    +0.145 HD
ENDBRANCH  10  11
ENDBRANCH   2   9
ENDBRANCH   1   3
BRANCH   1  16
ATOM     16  S   UNL     1      -1.346  -1.139   0.009  0.00  0.00    -0.088 S 
BRANCH  16  17
ATOM     17  C   UNL     1       0.002  -0.004   0.002  0.00  0.00    +0.160 A 
ATOM     18  N   UNL     1      -0.016   1.315   0.009  0.00  0.00    -0.133 NA
ATOM     19  N   UNL     1       1.168   2.015   0.002  0.00  0.00    -0.125 NA
ATOM     20  C   UNL     1       2.315   1.365  -0.013  0.00  0.00    +0.182 A 
ATOM     21  S   UNL     1       1.758  -0.332  -0.017  0.00  0.00    -0.025 S 
ATOM     22  N   UNL     1       3.612   1.867  -0.022  0.00  0.00    -0.320 N 
ATOM     23  H   UNL     1       4.367   1.258  -0.031  0.00  0.00    +0.148 HD
BRANCH  22  24
ATOM     24  C   UNL     1       3.837   3.314  -0.016  0.00  0.00    +0.135 C 
BRANCH  24  25
ATOM     25  C   UNL     1       5.341   3.596  -0.028  0.00  0.00    +0.135 C 
ATOM     26  C   UNL     1       5.605   5.112   0.104  0.00  0.00    +0.035 C 
ATOM     27  C   UNL     1       6.823   5.362  -0.814  0.00  0.00    +0.031 C 
ATOM     28  C   UNL     1       7.151   3.968  -1.391  0.00  0.00    +0.160 C 
ATOM     29  O   UNL     1       5.911   3.232  -1.304  0.00  0.00    -0.375 OA
ENDBRANCH  24  25
ENDBRANCH  22  24
ENDBRANCH  16  17
ENDBRANCH   1  16
TORSDOF 7
