REMARK  Name = ZINC09210381
REMARK  8 active torsions:
REMARK  status: ('A' for Active; 'I' for Inactive)
REMARK    1  A    between atoms: C_1  and  C_2
REMARK    2  A    between atoms: C_2  and  C_3
REMARK    3  A    between atoms: C_3  and  C_4
REMARK    4  A    between atoms: C_10  and  C_11
REMARK    5  A    between atoms: C_13  and  C_27
REMARK    6  A    between atoms: N_14  and  C_17
REMARK    7  A    between atoms: C_15  and  C_16
REMARK    8  A    between atoms: C_21  and  N_23
REMARK                            x       y       z     vdW  Elec       q    Type
REMARK                         _______ _______ _______ _____ _____    ______ ____
ROOT
ATOM      1  C   UNL     1       2.353  -7.099  -1.214  0.00  0.00    -0.003 A 
ATOM      2  C   UNL     1       3.045  -5.933  -0.648  0.00  0.00    +0.031 A 
ATOM      3  C   UNL     1       4.331  -6.035  -1.021  0.00  0.00    +0.022 A 
ATOM      4  N   UNL     1       4.493  -7.167  -1.771  0.00  0.00    -0.317 N 
ATOM      5  C   UNL     1       3.321  -7.822  -1.893  0.00  0.00    +0.028 A 
ATOM      6  C   UNL     1       3.101  -9.112  -2.640  0.00  0.00    +0.064 C 
ATOM      7  C   UNL     1       5.422  -5.057  -0.669  0.00  0.00    +0.064 C 
ENDROOT
BRANCH   1  14
ATOM      8  C   UNL     1      -0.173  -3.692   3.358  0.00  0.00    +0.100 C 
ATOM      9  N   UNL     1       0.642  -4.472   2.707  0.00  0.00    -0.169 NA
ATOM     10  N   UNL     1       0.171  -5.479   1.892  0.00  0.00    -0.152 N 
ATOM     11  C   UNL     1       0.962  -6.432   1.216  0.00  0.00    +0.152 C 
ATOM     12  N   UNL     1       2.175  -6.751   1.585  0.00  0.00    -0.283 NA
ATOM     13  C   UNL     1       0.280  -7.038   0.039  0.00  0.00    +0.081 C 
ATOM     14  C   UNL     1       0.978  -7.423  -1.087  0.00  0.00    +0.026 C 
ATOM     15  C   UNL     1      -1.189  -7.207   0.143  0.00  0.00    +0.273 C 
ATOM     16  O   UNL     1      -1.771  -8.061  -0.508  0.00  0.00    -0.268 OA
ATOM     17  N   UNL     1      -1.865  -6.391   0.977  0.00  0.00    -0.152 NA
ATOM     18  C   UNL     1      -1.197  -5.576   1.754  0.00  0.00    +0.181 C 
ATOM     19  S   UNL     1      -1.773  -4.323   2.870  0.00  0.00    -0.038 S 
ATOM     20  H   UNL     1       2.588  -6.296   2.336  0.00  0.00    +0.188 HD
BRANCH   8  21
ATOM     21  C   UNL     1       0.150  -2.553   4.290  0.00  0.00    +0.064 C 
BRANCH  21  23
ATOM     22  C   UNL     1       1.996  -1.237   5.340  0.00  0.00    +0.004 C 
ATOM     23  C   UNL     1       1.668  -2.393   4.393  0.00  0.00    +0.003 C 
ENDBRANCH  21  23
ENDBRANCH   8  21
ENDBRANCH   1  14
BRANCH   4  24
ATOM     24  C   UNL     1       5.707  -7.590  -2.329  0.00  0.00    +0.049 A 
ATOM     25  C   UNL     1       5.862  -7.632  -3.708  0.00  0.00    +0.028 A 
ATOM     26  C   UNL     1       7.059  -8.050  -4.255  0.00  0.00    +0.024 A 
ATOM     27  C   UNL     1       8.105  -8.426  -3.430  0.00  0.00    +0.071 A 
ATOM     28  C   UNL     1       7.953  -8.385  -2.055  0.00  0.00    +0.146 A 
ATOM     29  C   UNL     1       6.760  -7.963  -1.503  0.00  0.00    +0.060 A 
ATOM     30 CL   UNL     1       9.608  -8.950  -4.121  0.00  0.00    -0.081 Cl
BRANCH  28  31
ATOM     31  N   UNL     1       9.073  -8.790  -1.175  0.00  0.00    +0.058 N 
ATOM     32  O   UNL     1       8.941  -8.754   0.026  0.00  0.00    -0.126 OA
ATOM     33  O   UNL     1      10.119  -9.155  -1.658  0.00  0.00    -0.126 OA
ENDBRANCH  28  31
ENDBRANCH   4  24
TORSDOF 5
