REMARK  Name = ZINC63996869
REMARK  5 active torsions:
REMARK  status: ('A' for Active; 'I' for Inactive)
REMARK    1  A    between atoms: C_1  and  C_2
REMARK    2  A    between atoms: C_4  and  C_13
REMARK    3  A    between atoms: N_15  and  C_16
REMARK    4  A    between atoms: C_16  and  C_18
REMARK    5  A    between atoms: C_16  and  C_19
REMARK                            x       y       z     vdW  Elec       q    Type
REMARK                         _______ _______ _______ _____ _____    ______ ____
ROOT
ATOM      1  C   UNL     1       0.343  -0.263  -2.642  0.00  0.00    +0.245 C 
ATOM      2  O   UNL     1       1.016  -0.728  -3.539  0.00  0.00    -0.270 OA
ATOM      3  N   UNL     1      -0.748   0.474  -2.929  0.00  0.00    -0.305 N 
ATOM      4  H   UNL     1      -1.285   0.846  -2.212  0.00  0.00    +0.150 HD
ENDROOT
BRANCH   1   7
ATOM      5  C   UNL     1      -0.019   1.526   0.010  0.00  0.00    +0.057 C 
ATOM      6  C   UNL     1       0.002  -0.004   0.002  0.00  0.00    +0.208 C 
ATOM      7  C   UNL     1       0.723  -0.506  -1.229  0.00  0.00    +0.071 C 
ATOM      8  C   UNL     1       1.784  -1.222  -0.784  0.00  0.00    +0.112 C 
ATOM      9  C   UNL     1       1.783  -1.207   0.691  0.00  0.00    +0.230 C 
ATOM     10  N   UNL     1       2.752  -1.859   1.312  0.00  0.00    -0.203 NA
ATOM     11  C   UNL     1       3.695  -2.506   0.647  0.00  0.00    +0.215 C 
ATOM     12  N   UNL     1       3.778  -2.576  -0.658  0.00  0.00    -0.164 NA
ATOM     13  C   UNL     1       2.876  -1.971  -1.452  0.00  0.00    +0.274 C 
ATOM     14  O   UNL     1       2.953  -2.036  -2.666  0.00  0.00    -0.268 OA
ATOM     15  O   UNL     1       0.734  -0.490   1.131  0.00  0.00    -0.468 OA
ENDBRANCH   1   7
BRANCH   3  16
ATOM     16  C   UNL     1      -1.123   0.714  -4.325  0.00  0.00    +0.100 C 
ATOM     17  C   UNL     1      -0.347   1.919  -4.861  0.00  0.00    +0.033 C 
BRANCH  16  18
ATOM     18  C   UNL     1      -2.602   0.991  -4.407  0.00  0.00    -0.027 A 
ATOM     19  C   UNL     1      -3.207   1.783  -3.433  0.00  0.00    +0.006 A 
ATOM     20  C   UNL     1      -4.540   2.052  -3.478  0.00  0.00    +0.009 A 
ATOM     21  C   UNL     1      -5.321   1.526  -4.521  0.00  0.00    -0.018 A 
ATOM     22  C   UNL     1      -6.701   1.782  -4.601  0.00  0.00    +0.008 A 
ATOM     23  C   UNL     1      -7.425   1.256  -5.626  0.00  0.00    +0.001 A 
ATOM     24  C   UNL     1      -6.819   0.465  -6.601  0.00  0.00    +0.001 A 
ATOM     25  C   UNL     1      -5.486   0.195  -6.556  0.00  0.00    +0.008 A 
ATOM     26  C   UNL     1      -4.705   0.721  -5.512  0.00  0.00    -0.018 A 
ATOM     27  C   UNL     1      -3.325   0.469  -5.435  0.00  0.00    +0.014 A 
ENDBRANCH  16  18
ENDBRANCH   3  16
TORSDOF 3
