REMARK  Name = ZINC51638931
REMARK  5 active torsions:
REMARK  status: ('A' for Active; 'I' for Inactive)
REMARK    1  A    between atoms: C_1  and  C_2
REMARK    2  A    between atoms: C_2  and  C_4
REMARK    3  A    between atoms: C_2  and  N_7
REMARK    4  A    between atoms: C_13  and  C_15
REMARK    5  A    between atoms: N_19  and  C_21
REMARK                            x       y       z     vdW  Elec       q    Type
REMARK                         _______ _______ _______ _____ _____    ______ ____
ROOT
ATOM      1  N   UNL     1       1.020  -0.464  -0.952  0.00  0.00    -0.287 NA
ATOM      2  C   UNL     1       0.774   0.087  -2.291  0.00  0.00    +0.104 C 
ATOM      3  C   UNL     1       1.949  -0.266  -3.209  0.00  0.00    +0.123 C 
ATOM      4  N   UNL     1       2.156  -1.721  -3.164  0.00  0.00    -0.299 N 
ATOM      5  C   UNL     1       2.274  -2.367  -1.849  0.00  0.00    +0.123 C 
ATOM      6  C   UNL     1       1.086  -1.931  -0.984  0.00  0.00    +0.104 C 
ATOM      7  C   UNL     1       2.236  -2.443  -4.299  0.00  0.00    +0.217 C 
ATOM      8  O   UNL     1       2.137  -1.894  -5.376  0.00  0.00    -0.275 OA
ENDROOT
BRANCH   7   9
ATOM      9  C   UNL     1       2.449  -3.934  -4.231  0.00  0.00    +0.057 C 
ATOM     10  C   UNL     1       3.809  -4.252  -3.569  0.00  0.00    -0.008 C 
ATOM     11  C   UNL     1       4.329  -5.449  -4.404  0.00  0.00    -0.079 C 
ATOM     12  N   UNL     1       3.892  -5.116  -5.784  0.00  0.00    +0.378 N 
ATOM     13  C   UNL     1       2.540  -4.527  -5.649  0.00  0.00    -0.067 C 
ATOM     14  C   UNL     1       3.834  -6.333  -6.605  0.00  0.00    -0.096 C 
ATOM     15  H   UNL     1       4.524  -4.446  -6.197  0.00  0.00    -0.082 HD
ENDBRANCH   7   9
BRANCH   1  17
ATOM     16  C   UNL     1       0.228  -0.682   1.355  0.00  0.00    +0.036 C 
ATOM     17  C   UNL     1       0.002  -0.004   0.002  0.00  0.00    +0.168 C 
BRANCH  17  18
ATOM     18  C   UNL     1       0.106   1.490   0.166  0.00  0.00    +0.373 C 
ATOM     19  O   UNL     1       1.123   2.071  -0.174  0.00  0.00    -0.245 OA
ATOM     20  O   UNL     1      -0.826   2.118   0.638  0.00  0.00    -0.245 OA
ENDBRANCH  17  18
ENDBRANCH   1  17
TORSDOF 3
