REMARK  Name = ZINC01700723
REMARK  6 active torsions:
REMARK  status: ('A' for Active; 'I' for Inactive)
REMARK    1  A    between atoms: C_5  and  O_26
REMARK    2  A    between atoms: C_6  and  C_7
REMARK    3  A    between atoms: N_8  and  N_9
REMARK    4  A    between atoms: N_12  and  N_15
REMARK    5  A    between atoms: C_16  and  C_17
REMARK    6  A    between atoms: C_22  and  O_23
REMARK                            x       y       z     vdW  Elec       q    Type
REMARK                         _______ _______ _______ _____ _____    ______ ____
ROOT
ATOM      1  N   UNL     1       2.289   5.620  -0.101  0.00  0.00    -0.252 N 
ATOM      2  C   UNL     1       1.019   6.360  -0.104  0.00  0.00    +0.146 C 
ATOM      3  C   UNL     1       1.062   7.404   1.024  0.00  0.00    +0.146 C 
ATOM      4  N   UNL     1       2.320   8.157   0.918  0.00  0.00    -0.252 N 
ATOM      5  C   UNL     1       3.590   7.417   0.916  0.00  0.00    +0.146 C 
ATOM      6  C   UNL     1       3.547   6.373  -0.207  0.00  0.00    +0.146 C 
ENDROOT
BRANCH   1   8
ATOM      7  C   UNL     1       1.183   3.563  -0.018  0.00  0.00    +0.141 C 
ATOM      8  N   UNL     1       2.300   4.223  -0.003  0.00  0.00    -0.192 NA
BRANCH   7  14
ATOM      9  C   UNL     1      -0.002   1.374  -0.042  0.00  0.00    +0.033 A 
ATOM     10  C   UNL     1       0.019  -0.006  -0.049  0.00  0.00    +0.043 A 
ATOM     11  C   UNL     1       1.225  -0.686  -0.041  0.00  0.00    +0.043 A 
ATOM     12  C   UNL     1       2.420   0.011  -0.026  0.00  0.00    +0.084 A 
ATOM     13  C   UNL     1       2.416   1.397  -0.018  0.00  0.00    +0.144 A 
ATOM     14  C   UNL     1       1.198   2.088  -0.026  0.00  0.00    +0.039 A 
ATOM     15 CL   UNL     1       3.927  -0.852  -0.016  0.00  0.00    -0.080 Cl
ATOM     16 CL   UNL     1      -1.474  -0.893  -0.069  0.00  0.00    -0.083 Cl
BRANCH  13  17
ATOM     17  O   UNL     1       3.590   2.082  -0.003  0.00  0.00    -0.505 OA
ATOM     18  H   UNL     1       3.938   2.286  -0.882  0.00  0.00    +0.292 HD
ENDBRANCH  13  17
ENDBRANCH   7  14
ENDBRANCH   1   8
BRANCH   4  19
ATOM     19  N   UNL     1       2.309   9.554   0.820  0.00  0.00    -0.192 NA
ATOM     20  C   UNL     1       1.191  10.204   0.931  0.00  0.00    +0.141 C 
BRANCH  20  21
ATOM     21  C   UNL     1       1.193  11.678   0.938  0.00  0.00    +0.039 A 
ATOM     22  C   UNL     1      -0.008  12.380   1.056  0.00  0.00    +0.033 A 
ATOM     23  C   UNL     1      -0.001  13.761   1.062  0.00  0.00    +0.043 A 
ATOM     24  C   UNL     1       1.194  14.453   0.950  0.00  0.00    +0.043 A 
ATOM     25  C   UNL     1       2.390  13.767   0.832  0.00  0.00    +0.084 A 
ATOM     26  C   UNL     1       2.399  12.382   0.831  0.00  0.00    +0.144 A 
ATOM     27 CL   UNL     1       3.881  14.644   0.691  0.00  0.00    -0.080 Cl
ATOM     28 CL   UNL     1      -1.494  14.633   1.210  0.00  0.00    -0.083 Cl
BRANCH  26  29
ATOM     29  O   UNL     1       3.574  11.707   0.721  0.00  0.00    -0.505 OA
ATOM     30  H   UNL     1       3.834  11.516  -0.191  0.00  0.00    +0.292 HD
ENDBRANCH  26  29
ENDBRANCH  20  21
ENDBRANCH   4  19
TORSDOF 6
