REMARK  Name = ZINC14977290
REMARK  11 active torsions:
REMARK  status: ('A' for Active; 'I' for Inactive)
REMARK    1  A    between atoms: C_1  and  C_2
REMARK    2  A    between atoms: C_3  and  C_10
REMARK    3  A    between atoms: C_4  and  C_8
REMARK    4  A    between atoms: C_4  and  C_9
REMARK    5  A    between atoms: C_10  and  C_11
REMARK    6  A    between atoms: C_11  and  N_63
REMARK    7  A    between atoms: C_15  and  N_18
REMARK    8  A    between atoms: C_20  and  C_23
REMARK    9  A    between atoms: N_25  and  C_26
REMARK   10  A    between atoms: C_26  and  C_27
REMARK   11  A    between atoms: C_27  and  O_28
REMARK                            x       y       z     vdW  Elec       q    Type
REMARK                         _______ _______ _______ _____ _____    ______ ____
ROOT
ATOM      1  C   UNL     1      -2.873   2.038  -5.399  0.00  0.00    -0.079 C 
ATOM      2  C   UNL     1      -3.515   2.352  -6.753  0.00  0.00    -0.017 C 
ATOM      3  C   UNL     1      -4.424   3.575  -6.610  0.00  0.00    +0.023 C 
ATOM      4  C   UNL     1      -5.480   3.294  -5.537  0.00  0.00    +0.092 C 
ATOM      5  C   UNL     1      -4.781   2.954  -4.219  0.00  0.00    -0.052 C 
ATOM      6  N   UNL     1      -3.941   1.754  -4.417  0.00  0.00    +0.381 N 
ATOM      7  H   UNL     1      -4.528   0.991  -4.775  0.00  0.00    -0.082 HD
ENDROOT
BRANCH   4   8
ATOM      8  N   UNL     1      -6.319   4.481  -5.355  0.00  0.00    -0.250 N 
ATOM      9  C   UNL     1      -5.923   5.767  -5.438  0.00  0.00    +0.143 A 
ATOM     10  C   UNL     1      -7.025   6.537  -5.199  0.00  0.00    +0.167 A 
ATOM     11  N   UNL     1      -8.072   5.724  -4.976  0.00  0.00    -0.125 NA
ATOM     12  N   UNL     1      -7.691   4.498  -5.066  0.00  0.00    -0.065 NA
BRANCH  10  13
ATOM     13  C   UNL     1      -7.061   8.012  -5.189  0.00  0.00    +0.266 C 
ATOM     14  O   UNL     1      -6.046   8.646  -5.407  0.00  0.00    -0.268 OA
ATOM     15  N   UNL     1      -8.218   8.656  -4.940  0.00  0.00    -0.308 N 
ATOM     16  H   UNL     1      -9.027   8.150  -4.766  0.00  0.00    +0.149 HD
BRANCH  15  17
ATOM     17  C   UNL     1      -8.253  10.121  -4.930  0.00  0.00    +0.132 C 
BRANCH  17  18
ATOM     18  C   UNL     1      -9.675  10.594  -4.623  0.00  0.00    +0.174 C 
BRANCH  18  19
ATOM     19  O   UNL     1     -10.034  10.199  -3.298  0.00  0.00    -0.393 OA
ATOM     20  H   UNL     1     -10.925  10.466  -3.035  0.00  0.00    +0.209 HD
ENDBRANCH  18  19
ENDBRANCH  17  18
ENDBRANCH  15  17
ENDBRANCH  10  13
ENDBRANCH   4   8
BRANCH   6  21
ATOM     21  C   UNL     1      -3.345   1.337  -3.131  0.00  0.00    -0.074 C 
BRANCH  21  22
ATOM     22  C   UNL     1      -2.540   2.483  -2.514  0.00  0.00    +0.013 C 
BRANCH  22  25
ATOM     23  C   UNL     1       0.001   1.548  -2.528  0.00  0.00    +0.039 C 
ATOM     24  C   UNL     1      -0.733   1.580  -1.212  0.00  0.00    -0.073 C 
ATOM     25  C   UNL     1      -1.946   2.033  -1.205  0.00  0.00    -0.067 C 
ATOM     26  C   UNL     1      -2.797   2.136   0.027  0.00  0.00    -0.014 C 
ATOM     27  C   UNL     1      -2.217   1.266   1.143  0.00  0.00    +0.011 C 
ATOM     28  C   UNL     1      -0.723   1.577   1.271  0.00  0.00    +0.005 C 
ATOM     29  C   UNL     1      -0.013   1.086   0.008  0.00  0.00    +0.030 C 
ATOM     30  C   UNL     1      -2.843   3.593   0.491  0.00  0.00    +0.015 C 
ATOM     31  C   UNL     1      -4.216   1.662  -0.296  0.00  0.00    +0.015 C 
ENDBRANCH  22  25
ENDBRANCH  21  22
ENDBRANCH   6  21
TORSDOF 8
