REMARK  Name = ZINC20351434
REMARK  4 active torsions:
REMARK  status: ('A' for Active; 'I' for Inactive)
REMARK    1  A    between atoms: C_12  and  C_17
REMARK    2  A    between atoms: C_17  and  N_18
REMARK    3  A    between atoms: N_18  and  C_19
REMARK    4  A    between atoms: C_19  and  C_20
REMARK                            x       y       z     vdW  Elec       q    Type
REMARK                         _______ _______ _______ _____ _____    ______ ____
ROOT
ATOM      1  C   UNL     1      -1.607   9.513  -1.294  0.00  0.00    +0.000 A 
ATOM      2  C   UNL     1      -1.791   8.756  -2.436  0.00  0.00    +0.000 A 
ATOM      3  C   UNL     1      -1.574   7.394  -2.401  0.00  0.00    +0.005 A 
ATOM      4  C   UNL     1      -1.172   6.777  -1.224  0.00  0.00    -0.027 A 
ATOM      5  C   UNL     1      -0.986   7.533  -0.087  0.00  0.00    -0.041 A 
ATOM      6  C   UNL     1      -1.206   8.902  -0.123  0.00  0.00    +0.004 A 
ATOM      7  C   UNL     1      -0.539   6.911   1.212  0.00  0.00    +0.054 C 
ATOM      8  C   UNL     1      -0.753   5.397   1.166  0.00  0.00    +0.111 C 
ATOM      9  N   UNL     1      -0.154   4.878  -0.074  0.00  0.00    -0.310 N 
ATOM     10  C   UNL     1      -0.953   5.287  -1.234  0.00  0.00    +0.141 C 
ATOM     11  C   UNL     1      -0.023   3.495  -0.023  0.00  0.00    +0.123 A 
ATOM     12  C   UNL     1       1.245   2.925   0.023  0.00  0.00    -0.024 A 
ATOM     13  C   UNL     1       1.362   1.548   0.074  0.00  0.00    +0.006 A 
ATOM     14  C   UNL     1       0.201   0.784   0.077  0.00  0.00    +0.020 A 
ATOM     15  C   UNL     1      -1.024   1.417   0.024  0.00  0.00    +0.113 A 
ATOM     16  N   UNL     1      -1.105   2.733  -0.018  0.00  0.00    -0.240 NA
ENDROOT
BRANCH  12  17
ATOM     17  C   UNL     1       2.475   3.795   0.017  0.00  0.00    -0.043 C 
BRANCH  17  18
ATOM     18  N   UNL     1       2.734   4.268  -1.349  0.00  0.00    +0.385 N 
ATOM     19  H   UNL     1       2.808   3.405  -2.028  0.00  0.00    -0.085 HD
ATOM     20  H   UNL     1       1.910   4.920  -1.674  0.00  0.00    -0.085 HD
BRANCH  18  21
ATOM     21  C   UNL     1       3.989   5.028  -1.415  0.00  0.00    -0.027 C 
BRANCH  21  22
ATOM     22  C   UNL     1       4.159   5.599  -2.799  0.00  0.00    +0.009 A 
ATOM     23  C   UNL     1       3.806   6.839  -3.192  0.00  0.00    +0.021 A 
ATOM     24  C   UNL     1       4.138   6.963  -4.556  0.00  0.00    +0.020 A 
ATOM     25  C   UNL     1       4.682   5.793  -4.948  0.00  0.00    +0.093 A 
ATOM     26  N   UNL     1       4.704   4.951  -3.872  0.00  0.00    -0.301 N 
ATOM     27  C   UNL     1       5.197   3.647  -3.870  0.00  0.00    +0.177 A 
ATOM     28  N   UNL     1       5.825   2.998  -4.830  0.00  0.00    -0.231 NA
ATOM     29  C   UNL     1       6.229   1.754  -4.662  0.00  0.00    +0.121 A 
ATOM     30  C   UNL     1       5.986   1.150  -3.473  0.00  0.00    +0.068 A 
ATOM     31  S   UNL     1       5.148   2.465  -2.599  0.00  0.00    -0.058 S 
ENDBRANCH  21  22
ENDBRANCH  18  21
ENDBRANCH  17  18
ENDBRANCH  12  17
TORSDOF 4
