REMARK  Name = ZINC44304713
REMARK  5 active torsions:
REMARK  status: ('A' for Active; 'I' for Inactive)
REMARK    1  A    between atoms: C_1  and  C_2
REMARK    2  A    between atoms: C_2  and  C_4
REMARK    3  A    between atoms: C_2  and  N_9
REMARK    4  A    between atoms: N_9  and  S_10
REMARK    5  A    between atoms: S_10  and  C_13
REMARK                            x       y       z     vdW  Elec       q    Type
REMARK                         _______ _______ _______ _____ _____    ______ ____
ROOT
ATOM      1  S   UNL     1      -0.188  -0.875  -2.551  0.00  0.00    +0.059 S 
ATOM      2  O   UNL     1       0.751  -1.265  -3.545  0.00  0.00    -0.153 OA
ATOM      3  O   UNL     1      -1.236  -1.730  -2.117  0.00  0.00    -0.153 OA
ENDROOT
BRANCH   1   4
ATOM      4  C   UNL     1      -0.951   0.603  -3.133  0.00  0.00    +0.105 A 
ATOM      5  C   UNL     1      -2.203   0.962  -2.670  0.00  0.00    +0.029 A 
ATOM      6  C   UNL     1      -2.801   2.122  -3.126  0.00  0.00    +0.016 A 
ATOM      7  C   UNL     1      -2.148   2.922  -4.045  0.00  0.00    +0.013 A 
ATOM      8  C   UNL     1      -0.895   2.563  -4.507  0.00  0.00    +0.016 A 
ATOM      9  C   UNL     1      -0.294   1.406  -4.047  0.00  0.00    +0.029 A 
ATOM     10  I   UNL     1      -3.055   4.679  -4.737  0.00  0.00    -0.044 I 
ENDBRANCH   1   4
BRANCH   1  11
ATOM     11  N   UNL     1       0.688  -0.476  -1.203  0.00  0.00    -0.180 NA
ATOM     12  H   UNL     1       1.655  -0.556  -1.212  0.00  0.00    +0.149 HD
BRANCH  11  14
ATOM     13  C   UNL     1      -0.019   1.526   0.010  0.00  0.00    +0.034 C 
ATOM     14  C   UNL     1       0.002  -0.004   0.002  0.00  0.00    +0.139 C 
BRANCH  14  15
ATOM     15  C   UNL     1       0.731  -0.503   1.223  0.00  0.00    +0.123 A 
ATOM     16  C   UNL     1       0.156  -0.963   2.349  0.00  0.00    +0.046 A 
ATOM     17  C   UNL     1       1.205  -1.322   3.227  0.00  0.00    +0.041 A 
ATOM     18  C   UNL     1       2.358  -1.060   2.584  0.00  0.00    +0.195 A 
ATOM     19  O   UNL     1       2.064  -0.570   1.369  0.00  0.00    -0.466 OA
ENDBRANCH  14  15
ENDBRANCH  11  14
ENDBRANCH   1  11
TORSDOF 4
