REMARK  Name = ZINC07986399
REMARK  8 active torsions:
REMARK  status: ('A' for Active; 'I' for Inactive)
REMARK    1  A    between atoms: C_1  and  C_2
REMARK    2  A    between atoms: C_2  and  C_3
REMARK    3  A    between atoms: C_3  and  C_4
REMARK    4  A    between atoms: C_4  and  N_5
REMARK    5  A    between atoms: C_6  and  N_28
REMARK    6  A    between atoms: C_7  and  N_14
REMARK    7  A    between atoms: N_14  and  C_15
REMARK    8  A    between atoms: C_16  and  C_18
REMARK                            x       y       z     vdW  Elec       q    Type
REMARK                         _______ _______ _______ _____ _____    ______ ____
ROOT
ATOM      1  N   UNL     1      -2.884  -3.653  -0.104  0.00  0.00    -0.280 N 
ATOM      2  C   UNL     1      -3.641  -3.937   1.009  0.00  0.00    +0.127 A 
ATOM      3  C   UNL     1      -4.773  -3.190   1.262  0.00  0.00    +0.140 A 
ATOM      4  C   UNL     1      -5.119  -2.158   0.370  0.00  0.00    +0.277 A 
ATOM      5  O   UNL     1      -6.114  -1.482   0.570  0.00  0.00    -0.266 OA
ATOM      6  N   UNL     1      -4.343  -1.920  -0.705  0.00  0.00    -0.273 N 
ATOM      7  H   UNL     1      -4.580  -1.209  -1.321  0.00  0.00    +0.173 HD
ATOM      8  C   UNL     1      -3.239  -2.655  -0.933  0.00  0.00    +0.331 A 
ATOM      9  O   UNL     1      -2.554  -2.416  -1.908  0.00  0.00    -0.246 OA
ENDROOT
BRANCH   3  10
ATOM     10  N   UNL     1      -5.571  -3.458   2.394  0.00  0.00    -0.263 N 
ATOM     11  C   UNL     1      -5.032  -3.238   3.738  0.00  0.00    +0.139 C 
ATOM     12  C   UNL     1      -6.830  -3.915   2.239  0.00  0.00    +0.257 C 
ATOM     13  O   UNL     1      -7.295  -4.051   1.122  0.00  0.00    -0.269 OA
BRANCH  12  14
ATOM     14  C   UNL     1      -7.638  -4.248   3.415  0.00  0.00    +0.075 A 
ATOM     15  C   UNL     1      -8.880  -4.848   3.477  0.00  0.00    +0.024 A 
ATOM     16  C   UNL     1      -9.424  -5.048   4.744  0.00  0.00    -0.036 A 
ATOM     17  C   UNL     1      -8.675  -4.627   5.797  0.00  0.00    -0.006 A 
ATOM     18  S   UNL     1      -7.273  -3.992   5.141  0.00  0.00    -0.088 S 
ATOM     19  C   UNL     1      -9.014  -4.708   7.256  0.00  0.00    +0.043 C 
ATOM     20  C   UNL     1      -9.937  -5.908   7.500  0.00  0.00    +0.005 C 
ATOM     21  C   UNL     1     -11.383  -5.450   7.338  0.00  0.00    +0.001 C 
ATOM     22  C   UNL     1     -11.625  -4.926   5.925  0.00  0.00    +0.005 C 
ATOM     23  C   UNL     1     -10.788  -5.707   4.917  0.00  0.00    +0.036 C 
ENDBRANCH  12  14
ENDBRANCH   3  10
BRANCH   2  24
ATOM     24  N   UNL     1      -3.274  -4.954   1.858  0.00  0.00    -0.343 N 
ATOM     25  H   UNL     1      -2.518  -5.520   1.639  0.00  0.00    +0.144 HD
ATOM     26  H   UNL     1      -3.772  -5.104   2.677  0.00  0.00    +0.144 HD
ENDBRANCH   2  24
BRANCH   1  27
ATOM     27  C   UNL     1      -1.679  -4.438  -0.385  0.00  0.00    +0.128 C 
BRANCH  27  28
ATOM     28  C   UNL     1      -0.474  -3.785   0.296  0.00  0.00    +0.021 C 
BRANCH  28  30
ATOM     29  C   UNL     1       1.988  -3.951   0.684  0.00  0.00    +0.004 C 
ATOM     30  C   UNL     1       0.784  -4.605   0.003  0.00  0.00    -0.002 C 
ENDBRANCH  28  30
ENDBRANCH  27  28
ENDBRANCH   1  27
TORSDOF 6
