REMARK  Name = ZINC44698948
REMARK  10 active torsions:
REMARK  status: ('A' for Active; 'I' for Inactive)
REMARK    1  A    between atoms: C_1  and  C_2
REMARK    2  A    between atoms: C_2  and  N_3
REMARK    3  A    between atoms: C_4  and  C_24
REMARK    4  A    between atoms: C_7  and  S_8
REMARK    5  A    between atoms: S_8  and  C_9
REMARK    6  A    between atoms: C_9  and  C_10
REMARK    7  A    between atoms: N_12  and  C_13
REMARK    8  A    between atoms: C_16  and  O_19
REMARK    9  A    between atoms: O_19  and  C_20
REMARK   10  A    between atoms: C_20  and  C_21
REMARK                            x       y       z     vdW  Elec       q    Type
REMARK                         _______ _______ _______ _____ _____    ______ ____
ROOT
ATOM      1  C   UNL     1      -2.971  -1.092   5.122  0.00  0.00    +0.227 C 
ATOM      2  O   UNL     1      -3.865  -0.710   4.396  0.00  0.00    -0.275 OA
ATOM      3  N   UNL     1      -3.240  -1.443   6.395  0.00  0.00    -0.285 N 
ATOM      4  H   UNL     1      -2.539  -1.812   6.955  0.00  0.00    +0.155 HD
ENDROOT
BRANCH   3   5
ATOM      5  C   UNL     1      -4.532  -1.276   6.909  0.00  0.00    +0.034 A 
ATOM      6  C   UNL     1      -4.709  -0.914   8.238  0.00  0.00    +0.027 A 
ATOM      7  C   UNL     1      -5.983  -0.748   8.745  0.00  0.00    +0.047 A 
ATOM      8  C   UNL     1      -7.086  -0.944   7.926  0.00  0.00    +0.121 A 
ATOM      9  C   UNL     1      -6.910  -1.305   6.599  0.00  0.00    +0.047 A 
ATOM     10  C   UNL     1      -5.637  -1.465   6.089  0.00  0.00    +0.027 A 
BRANCH   8  11
ATOM     11  O   UNL     1      -8.340  -0.781   8.426  0.00  0.00    -0.483 OA
BRANCH  11  12
ATOM     12  C   UNL     1      -9.430  -0.998   7.527  0.00  0.00    +0.324 C 
BRANCH  12  13
ATOM     13  C   UNL     1     -10.732  -0.773   8.252  0.00  0.00    +0.248 C 
ATOM     14  O   UNL     1     -10.727  -0.458   9.423  0.00  0.00    -0.272 OA
ATOM     15  N   UNL     1     -11.901  -0.922   7.599  0.00  0.00    -0.327 N 
ATOM     16  H   UNL     1     -11.905  -1.174   6.662  0.00  0.00    +0.145 HD
ATOM     17  H   UNL     1     -12.739  -0.777   8.066  0.00  0.00    +0.145 HD
ENDBRANCH  12  13
ENDBRANCH  11  12
ENDBRANCH   8  11
ENDBRANCH   3   5
BRANCH   1  18
ATOM     18  C   UNL     1      -1.560  -1.175   4.599  0.00  0.00    +0.173 C 
BRANCH  18  19
ATOM     19  S   UNL     1      -1.524  -0.639   2.867  0.00  0.00    -0.077 S 
BRANCH  19  24
ATOM     20  N   UNL     1       0.709  -0.502   1.185  0.00  0.00    -0.302 N 
ATOM     21  C   UNL     1       2.056  -0.766   1.301  0.00  0.00    +0.171 A 
ATOM     22  N   UNL     1       2.261  -1.188   2.530  0.00  0.00    -0.128 NA
ATOM     23  N   UNL     1       1.151  -1.206   3.178  0.00  0.00    -0.122 NA
ATOM     24  C   UNL     1       0.171  -0.791   2.409  0.00  0.00    +0.192 A 
BRANCH  21  25
ATOM     25  C   UNL     1       3.073  -0.606   0.249  0.00  0.00    +0.056 A 
ATOM     26  C   UNL     1       4.440  -0.587   0.364  0.00  0.00    +0.019 A 
ATOM     27  C   UNL     1       5.196  -0.422  -0.774  0.00  0.00    +0.008 A 
ATOM     28  C   UNL     1       4.570  -0.286  -1.972  0.00  0.00    +0.046 A 
ATOM     29  S   UNL     1       2.849  -0.396  -1.509  0.00  0.00    -0.094 S 
ENDBRANCH  21  25
BRANCH  20  31
ATOM     30  C   UNL     1      -0.008   1.521   0.014  0.00  0.00    +0.027 C 
ATOM     31  C   UNL     1       0.002  -0.009   0.001  0.00  0.00    +0.122 C 
ENDBRANCH  20  31
ENDBRANCH  19  24
ENDBRANCH  18  19
ENDBRANCH   1  18
TORSDOF 9
