REMARK  Name = ZINC37538663
REMARK  8 active torsions:
REMARK  status: ('A' for Active; 'I' for Inactive)
REMARK    1  A    between atoms: C_1  and  C_2
REMARK    2  A    between atoms: C_4  and  O_25
REMARK    3  A    between atoms: C_7  and  O_23
REMARK    4  A    between atoms: C_15  and  O_20
REMARK    5  A    between atoms: C_17  and  O_18
REMARK    6  A    between atoms: O_18  and  C_19
REMARK    7  A    between atoms: O_20  and  C_21
REMARK    8  A    between atoms: O_23  and  C_24
REMARK                            x       y       z     vdW  Elec       q    Type
REMARK                         _______ _______ _______ _____ _____    ______ ____
ROOT
ATOM      1  C   UNL     1      -0.018   1.503   0.010  0.00  0.00    +0.043 C 
ATOM      2  C   UNL     1       0.002  -0.004   0.002  0.00  0.00    -0.021 C 
ATOM      3  C   UNL     1       0.005  -0.607  -1.144  0.00  0.00    +0.007 C 
ATOM      4  C   UNL     1       0.035  -2.098  -1.309  0.00  0.00    +0.140 C 
ATOM      5  C   UNL     1      -0.366  -2.784  -0.002  0.00  0.00    +0.072 C 
ATOM      6  C   UNL     1       0.454  -2.171   1.141  0.00  0.00    +0.176 C 
ATOM      7  C   UNL     1       0.024  -0.717   1.321  0.00  0.00    +0.219 C 
ATOM      8  C   UNL     1       0.971  -0.018   2.272  0.00  0.00    +0.220 C 
ATOM      9  O   UNL     1       2.163   0.164   2.133  0.00  0.00    -0.287 OA
ATOM     10  C   UNL     1       0.127   0.391   3.399  0.00  0.00    +0.105 A 
ATOM     11  C   UNL     1      -1.188  -0.026   3.130  0.00  0.00    +0.140 A 
ATOM     12  C   UNL     1      -2.184   0.248   4.057  0.00  0.00    +0.092 A 
ATOM     13  C   UNL     1      -1.884   0.923   5.232  0.00  0.00    +0.127 A 
ATOM     14  C   UNL     1      -0.585   1.335   5.500  0.00  0.00    +0.092 A 
ATOM     15  C   UNL     1       0.423   1.074   4.591  0.00  0.00    +0.138 A 
ATOM     16  O   UNL     1      -1.262  -0.664   1.938  0.00  0.00    -0.470 OA
ENDROOT
BRANCH  15  17
ATOM     17  O   UNL     1       1.693   1.476   4.848  0.00  0.00    -0.494 OA
ATOM     18  C   UNL     1       1.919   2.164   6.080  0.00  0.00    +0.277 C 
ENDBRANCH  15  17
BRANCH  13  19
ATOM     19  O   UNL     1      -2.870   1.183   6.128  0.00  0.00    -0.495 OA
ATOM     20  C   UNL     1      -2.497   1.881   7.318  0.00  0.00    +0.277 C 
ENDBRANCH  13  19
BRANCH   6  21
ATOM     21  O   UNL     1       0.217  -2.899   2.348  0.00  0.00    -0.375 OA
ATOM     22  C   UNL     1       1.114  -3.992   2.553  0.00  0.00    +0.194 C 
ENDBRANCH   6  21
BRANCH   4  23
ATOM     23  O   UNL     1      -0.878  -2.479  -2.340  0.00  0.00    -0.388 OA
ATOM     24  H   UNL     1      -0.680  -2.092  -3.203  0.00  0.00    +0.210 HD
ENDBRANCH   4  23
TORSDOF 4
