REMARK  Name = ZINC47882488
REMARK  7 active torsions:
REMARK  status: ('A' for Active; 'I' for Inactive)
REMARK    1  A    between atoms: C_1  and  C_2
REMARK    2  A    between atoms: C_10  and  C_11
REMARK    3  A    between atoms: C_11  and  C_13
REMARK    4  A    between atoms: C_11  and  N_14
REMARK    5  A    between atoms: N_17  and  C_18
REMARK    6  A    between atoms: C_23  and  C_24
REMARK    7  A    between atoms: C_27  and  C_29
REMARK                            x       y       z     vdW  Elec       q    Type
REMARK                         _______ _______ _______ _____ _____    ______ ____
ROOT
ATOM      1  N   UNL     1      -0.934  -1.142   3.273  0.00  0.00    -0.290 N 
ATOM      2  C   UNL     1      -1.473  -0.636   4.399  0.00  0.00    +0.304 C 
ATOM      3  O   UNL     1      -1.164   0.478   4.774  0.00  0.00    -0.252 OA
ATOM      4  N   UNL     1      -2.355  -1.366   5.111  0.00  0.00    -0.269 N 
ATOM      5  H   UNL     1      -1.180  -2.032   2.974  0.00  0.00    +0.151 HD
ATOM      6  H   UNL     1      -2.653  -2.227   4.778  0.00  0.00    +0.156 HD
ENDROOT
BRANCH   4   7
ATOM      7  C   UNL     1      -2.840  -0.882   6.328  0.00  0.00    +0.047 A 
ATOM      8  C   UNL     1      -3.057   0.477   6.501  0.00  0.00    +0.024 A 
ATOM      9  C   UNL     1      -3.537   0.954   7.705  0.00  0.00    +0.002 A 
ATOM     10  C   UNL     1      -3.806   0.081   8.746  0.00  0.00    +0.001 A 
ATOM     11  C   UNL     1      -3.596  -1.273   8.591  0.00  0.00    +0.015 A 
ATOM     12  C   UNL     1      -3.116  -1.769   7.378  0.00  0.00    +0.060 A 
BRANCH  12  13
ATOM     13  C   UNL     1      -2.895  -3.219   7.204  0.00  0.00    +0.250 A 
ATOM     14  N   UNL     1      -2.439  -3.813   6.125  0.00  0.00    -0.107 NA
ATOM     15  N   UNL     1      -2.376  -5.081   6.333  0.00  0.00    -0.112 NA
ATOM     16  C   UNL     1      -2.785  -5.344   7.543  0.00  0.00    +0.215 A 
ATOM     17  O   UNL     1      -3.116  -4.178   8.124  0.00  0.00    -0.420 OA
ATOM     18  C   UNL     1      -2.865  -6.709   8.177  0.00  0.00    +0.111 C 
ENDBRANCH  12  13
ENDBRANCH   4   7
BRANCH   1  19
ATOM     19  C   UNL     1       0.025  -0.349   2.499  0.00  0.00    +0.138 C 
ATOM     20  C   UNL     1       1.428  -0.536   3.080  0.00  0.00    +0.036 C 
BRANCH  19  30
ATOM     21  C   UNL     1      -0.026   1.516   0.014  0.00  0.00    +0.048 C 
ATOM     22  C   UNL     1      -0.011   0.010  -0.000  0.00  0.00    +0.000 A 
ATOM     23  C   UNL     1      -0.011  -0.860  -1.183  0.00  0.00    +0.023 A 
ATOM     24  C   UNL     1      -0.024  -0.636  -2.558  0.00  0.00    +0.012 A 
ATOM     25  C   UNL     1      -0.020  -1.698  -3.419  0.00  0.00    +0.001 A 
ATOM     26  C   UNL     1      -0.003  -2.997  -2.931  0.00  0.00    +0.004 A 
ATOM     27  C   UNL     1       0.010  -3.239  -1.574  0.00  0.00    +0.047 A 
ATOM     28  C   UNL     1       0.006  -2.173  -0.682  0.00  0.00    +0.136 A 
ATOM     29  O   UNL     1       0.015  -2.089   0.663  0.00  0.00    -0.458 OA
ATOM     30  C   UNL     1       0.011  -0.805   1.063  0.00  0.00    +0.129 A 
ENDBRANCH  19  30
ENDBRANCH   1  19
TORSDOF 4
