REMARK  Name = ZINC41651386
REMARK  4 active torsions:
REMARK  status: ('A' for Active; 'I' for Inactive)
REMARK    1  A    between atoms: C_1  and  C_2
REMARK    2  A    between atoms: C_2  and  N_3
REMARK    3  A    between atoms: C_7  and  C_14
REMARK    4  A    between atoms: C_9  and  C_13
REMARK                            x       y       z     vdW  Elec       q    Type
REMARK                         _______ _______ _______ _____ _____    ______ ____
ROOT
ATOM      1  N   UNL     1       0.688  -0.476  -1.203  0.00  0.00    -0.324 N 
ATOM      2  C   UNL     1       0.830  -1.830  -1.430  0.00  0.00    +0.159 A 
ATOM      3  N   UNL     1       1.412  -2.440  -2.438  0.00  0.00    -0.225 NA
ATOM      4  C   UNL     1       1.478  -3.786  -2.531  0.00  0.00    +0.083 A 
ATOM      5  C   UNL     1       2.070  -4.563  -3.554  0.00  0.00    -0.024 A 
ATOM      6  C   UNL     1       2.049  -5.932  -3.495  0.00  0.00    +0.009 A 
ATOM      7  C   UNL     1       1.451  -6.603  -2.438  0.00  0.00    -0.049 A 
ATOM      8  C   UNL     1       0.863  -5.875  -1.420  0.00  0.00    +0.020 A 
ATOM      9  C   UNL     1       0.879  -4.503  -1.470  0.00  0.00    +0.041 A 
ATOM     10  S   UNL     1       0.277  -3.200  -0.424  0.00  0.00    -0.052 S 
ATOM     11  C   UNL     1       1.443  -8.109  -2.400  0.00  0.00    +0.044 C 
ATOM     12  C   UNL     1       2.730  -3.877  -4.722  0.00  0.00    +0.046 C 
ATOM     13  H   UNL     1       1.042   0.162  -1.842  0.00  0.00    +0.148 HD
ENDROOT
BRANCH   1  15
ATOM     14  C   UNL     1      -0.019   1.526   0.010  0.00  0.00    +0.024 C 
ATOM     15  C   UNL     1       0.002  -0.004   0.002  0.00  0.00    +0.100 C 
ENDBRANCH   1  15
TORSDOF 1
