REMARK  Name = ZINC20487786
REMARK  10 active torsions:
REMARK  status: ('A' for Active; 'I' for Inactive)
REMARK    1  A    between atoms: C_1  and  C_2
REMARK    2  A    between atoms: C_5  and  N_9
REMARK    3  A    between atoms: N_9  and  C_10
REMARK    4  A    between atoms: C_10  and  C_12
REMARK    5  A    between atoms: C_10  and  C_13
REMARK    6  A    between atoms: N_15  and  C_16
REMARK    7  A    between atoms: C_16  and  C_17
REMARK    8  A    between atoms: C_17  and  C_18
REMARK    9  A    between atoms: C_18  and  C_19
REMARK   10  A    between atoms: C_18  and  C_20
REMARK                            x       y       z     vdW  Elec       q    Type
REMARK                         _______ _______ _______ _____ _____    ______ ____
ROOT
ATOM      1  N   UNL     1      -3.611   1.792   0.029  0.00  0.00    -0.331 N 
ATOM      2  H   UNL     1      -3.480   2.805   0.436  0.00  0.00    +0.147 HD
ENDROOT
BRANCH   1   7
ATOM      3  C   UNL     1      -8.255  -0.585  -2.201  0.00  0.00    +0.044 C 
ATOM      4  C   UNL     1      -7.021   0.046  -1.608  0.00  0.00    -0.048 A 
ATOM      5  C   UNL     1      -7.038   0.500  -0.302  0.00  0.00    +0.020 A 
ATOM      6  C   UNL     1      -5.909   1.079   0.244  0.00  0.00    +0.040 A 
ATOM      7  C   UNL     1      -4.755   1.206  -0.520  0.00  0.00    +0.056 A 
ATOM      8  C   UNL     1      -4.744   0.754  -1.834  0.00  0.00    +0.040 A 
ATOM      9  C   UNL     1      -5.875   0.171  -2.372  0.00  0.00    +0.020 A 
ATOM     10 BR   UNL     1      -3.180   0.931  -2.883  0.00  0.00    -0.048 Br
ATOM     11 BR   UNL     1      -5.932   1.698   2.031  0.00  0.00    -0.048 Br
ENDBRANCH   1   7
BRANCH   1  12
ATOM     12  C   UNL     1      -2.482   0.853   0.018  0.00  0.00    +0.154 C 
ATOM     13  C   UNL     1      -2.545  -0.035   1.263  0.00  0.00    +0.038 C 
BRANCH  12  14
ATOM     14  C   UNL     1      -1.187   1.624   0.017  0.00  0.00    +0.233 C 
ATOM     15  O   UNL     1      -1.204   2.837   0.023  0.00  0.00    -0.274 OA
ATOM     16  N   UNL     1      -0.011   0.966   0.007  0.00  0.00    -0.314 N 
ATOM     17  H   UNL     1       0.004  -0.134   0.006  0.00  0.00    +0.149 HD
BRANCH  16  18
ATOM     18  C   UNL     1       1.248   1.716  -0.001  0.00  0.00    +0.104 C 
BRANCH  18  19
ATOM     19  C   UNL     1       2.424   0.737  -0.017  0.00  0.00    +0.022 C 
BRANCH  19  20
ATOM     20  C   UNL     1       3.738   1.520  -0.025  0.00  0.00    -0.016 C 
ATOM     21  C   UNL     1       3.877   2.298   1.285  0.00  0.00    +0.007 C 
ATOM     22  C   UNL     1       4.910   0.547  -0.168  0.00  0.00    +0.007 C 
ENDBRANCH  19  20
ENDBRANCH  18  19
ENDBRANCH  16  18
ENDBRANCH  12  14
ENDBRANCH   1  12
TORSDOF 6
