REMARK  Name = ZINC64283182
REMARK  5 active torsions:
REMARK  status: ('A' for Active; 'I' for Inactive)
REMARK    1  A    between atoms: C_1  and  C_2
REMARK    2  A    between atoms: N_4  and  C_5
REMARK    3  A    between atoms: C_11  and  N_15
REMARK    4  A    between atoms: C_16  and  C_18
REMARK    5  A    between atoms: C_21  and  C_23
REMARK                            x       y       z     vdW  Elec       q    Type
REMARK                         _______ _______ _______ _____ _____    ______ ____
ROOT
ATOM      1  C   UNL     1      -1.230  -2.014  -0.052  0.00  0.00    +0.224 C 
ATOM      2  N   UNL     1      -2.473  -2.716   0.296  0.00  0.00    -0.316 N 
ATOM      3  C   UNL     1      -3.071  -3.499  -0.693  0.00  0.00    +0.043 A 
ATOM      4  C   UNL     1      -4.258  -4.239  -0.543  0.00  0.00    +0.026 A 
ATOM      5  C   UNL     1      -4.770  -4.984  -1.579  0.00  0.00    +0.025 A 
ATOM      6  C   UNL     1      -4.132  -5.029  -2.812  0.00  0.00    +0.035 A 
ATOM      7  C   UNL     1      -2.957  -4.305  -2.986  0.00  0.00    +0.040 A 
ATOM      8  C   UNL     1      -2.450  -3.563  -1.944  0.00  0.00    +0.034 A 
ATOM      9  S   UNL     1      -1.004  -2.536  -1.800  0.00  0.00    -0.082 S 
ATOM     10  H   UNL     1      -2.863  -2.638   1.181  0.00  0.00    +0.149 HD
ENDROOT
BRANCH   1  14
ATOM     11  C   UNL     1      -0.495   1.739   0.099  0.00  0.00    +0.109 C 
ATOM     12  C   UNL     1      -0.322   0.246  -0.003  0.00  0.00    +0.212 C 
ATOM     13  O   UNL     1       0.787  -0.229  -0.130  0.00  0.00    -0.276 OA
ATOM     14  N   UNL     1      -1.399  -0.563   0.047  0.00  0.00    -0.288 N 
ATOM     15  H   UNL     1      -2.286  -0.183   0.148  0.00  0.00    +0.151 HD
ENDBRANCH   1  14
BRANCH   6  16
ATOM     16  N   UNL     1      -4.662  -5.790  -3.860  0.00  0.00    -0.280 N 
ATOM     17  C   UNL     1      -5.997  -5.933  -3.982  0.00  0.00    +0.265 C 
ATOM     18  O   UNL     1      -6.744  -5.323  -3.241  0.00  0.00    -0.268 OA
ATOM     19  H   UNL     1      -4.068  -6.216  -4.498  0.00  0.00    +0.155 HD
BRANCH  17  20
ATOM     20  C   UNL     1      -6.550  -6.825  -5.012  0.00  0.00    +0.131 C 
ATOM     21  N   UNL     1      -5.893  -7.549  -5.875  0.00  0.00    -0.149 NA
ATOM     22  N   UNL     1      -6.630  -8.234  -6.658  0.00  0.00    -0.158 NA
ATOM     23  C   UNL     1      -7.906  -8.092  -6.459  0.00  0.00    +0.050 C 
ATOM     24  C   UNL     1      -8.014  -7.113  -5.301  0.00  0.00    +0.115 C 
BRANCH  23  25
ATOM     25  C   UNL     1      -9.031  -8.756  -7.209  0.00  0.00    +0.036 C 
ATOM     26  C   UNL     1      -9.139 -10.280  -7.117  0.00  0.00    +0.010 C 
ATOM     27  C   UNL     1      -8.662  -9.623  -8.415  0.00  0.00    +0.010 C 
ENDBRANCH  23  25
ENDBRANCH  17  20
ENDBRANCH   6  16
TORSDOF 4
