REMARK  Name = ZINC08140121
REMARK  7 active torsions:
REMARK  status: ('A' for Active; 'I' for Inactive)
REMARK    1  A    between atoms: C_1  and  C_2
REMARK    2  A    between atoms: C_5  and  S_8
REMARK    3  A    between atoms: N_6  and  N_7
REMARK    4  A    between atoms: S_8  and  C_9
REMARK    5  A    between atoms: C_9  and  C_11
REMARK    6  A    between atoms: C_9  and  C_12
REMARK    7  A    between atoms: N_14  and  C_15
REMARK                            x       y       z     vdW  Elec       q    Type
REMARK                         _______ _______ _______ _____ _____    ______ ____
ROOT
ATOM      1  C   UNL     1       0.000   1.080   2.488  0.00  0.00    +0.227 C 
ATOM      2  O   UNL     1       0.757   1.815   3.085  0.00  0.00    -0.275 OA
ATOM      3  N   UNL     1      -0.190  -0.184   2.916  0.00  0.00    -0.309 N 
ATOM      4  H   UNL     1      -0.795  -0.772   2.438  0.00  0.00    +0.149 HD
ENDROOT
BRANCH   3   5
ATOM      5  C   UNL     1       0.519  -0.669   4.103  0.00  0.00    +0.035 C 
ATOM      6  C   UNL     1       0.140   0.191   5.310  0.00  0.00    +0.029 C 
ATOM      7  C   UNL     1       0.880  -0.316   6.550  0.00  0.00    -0.008 C 
ATOM      8  C   UNL     1       0.490  -1.771   6.817  0.00  0.00    +0.007 C 
ATOM      9  C   UNL     1       0.869  -2.631   5.610  0.00  0.00    -0.008 C 
ATOM     10  C   UNL     1       0.129  -2.124   4.371  0.00  0.00    +0.029 C 
ATOM     11  C   UNL     1       2.378  -2.543   5.375  0.00  0.00    +0.007 C 
ATOM     12  C   UNL     1       2.768  -1.088   5.107  0.00  0.00    -0.008 C 
ATOM     13  C   UNL     1       2.389  -0.228   6.314  0.00  0.00    +0.007 C 
ATOM     14  C   UNL     1       2.028  -0.581   3.867  0.00  0.00    +0.029 C 
ENDBRANCH   3   5
BRANCH   1  15
ATOM     15  C   UNL     1      -0.729   1.579   1.267  0.00  0.00    +0.137 C 
ATOM     16  C   UNL     1      -0.013   1.086   0.008  0.00  0.00    +0.029 C 
BRANCH  15  17
ATOM     17  S   UNL     1      -0.753   3.389   1.277  0.00  0.00    -0.072 S 
BRANCH  17  22
ATOM     18  C   UNL     1      -3.570   5.671  -2.610  0.00  0.00    +0.090 C 
ATOM     19  C   UNL     1      -2.914   4.649  -1.717  0.00  0.00    +0.148 A 
ATOM     20  N   UNL     1      -2.983   3.354  -1.845  0.00  0.00    -0.132 NA
ATOM     21  N   UNL     1      -2.308   2.782  -0.913  0.00  0.00    -0.121 NA
ATOM     22  C   UNL     1      -1.766   3.689  -0.134  0.00  0.00    +0.209 A 
ATOM     23  N   UNL     1      -2.141   4.909  -0.619  0.00  0.00    -0.228 N 
BRANCH  23  24
ATOM     24  N   UNL     1      -1.810   6.135  -0.115  0.00  0.00    -0.295 N 
ATOM     25  H   UNL     1      -0.956   6.477  -0.528  0.00  0.00    +0.163 HD
ATOM     26  H   UNL     1      -2.564   6.793  -0.242  0.00  0.00    +0.163 HD
ENDBRANCH  23  24
ENDBRANCH  17  22
ENDBRANCH  15  17
ENDBRANCH   1  15
TORSDOF 5
