REMARK  Name = ZINC60752387
REMARK  5 active torsions:
REMARK  status: ('A' for Active; 'I' for Inactive)
REMARK    1  A    between atoms: C_1  and  N_2
REMARK    2  A    between atoms: C_3  and  C_14
REMARK    3  A    between atoms: C_6  and  S_7
REMARK    4  A    between atoms: S_7  and  C_8
REMARK    5  A    between atoms: C_8  and  C_9
REMARK                            x       y       z     vdW  Elec       q    Type
REMARK                         _______ _______ _______ _____ _____    ______ ____
ROOT
ATOM      1  C   UNL     1       0.013   1.461   0.007  0.00  0.00    +0.153 C 
ATOM      2  N   UNL     1       0.015  -0.004   0.001  0.00  0.00    -0.305 N 
ATOM      3  C   UNL     1      -0.087  -0.831  -1.094  0.00  0.00    +0.165 A 
ATOM      4  N   UNL     1      -0.041  -2.065  -0.650  0.00  0.00    -0.128 NA
ATOM      5  N   UNL     1       0.081  -2.067   0.629  0.00  0.00    -0.122 NA
ATOM      6  C   UNL     1       0.126  -0.834   1.080  0.00  0.00    +0.192 A 
ENDROOT
BRANCH   3   7
ATOM      7  C   UNL     1      -0.223  -0.408  -2.504  0.00  0.00    +0.019 A 
ATOM      8  C   UNL     1       0.143   0.883  -2.888  0.00  0.00    +0.013 A 
ATOM      9  C   UNL     1       0.014   1.271  -4.205  0.00  0.00    +0.021 A 
ATOM     10  C   UNL     1      -0.478   0.383  -5.146  0.00  0.00    +0.041 A 
ATOM     11  C   UNL     1      -0.843  -0.899  -4.772  0.00  0.00    +0.021 A 
ATOM     12  C   UNL     1      -0.713  -1.301  -3.459  0.00  0.00    +0.013 A 
ATOM     13 CL   UNL     1      -0.638   0.879  -6.802  0.00  0.00    -0.084 Cl
ENDBRANCH   3   7
BRANCH   6  14
ATOM     14  S   UNL     1       0.295  -0.342   2.764  0.00  0.00    -0.078 S 
BRANCH  14  15
ATOM     15  C   UNL     1       0.390  -1.910   3.671  0.00  0.00    +0.154 C 
BRANCH  15  16
ATOM     16  C   UNL     1       0.538  -1.629   5.144  0.00  0.00    +0.147 A 
ATOM     17  C   UNL     1      -0.468  -1.490   6.029  0.00  0.00    +0.068 A 
ATOM     18  C   UNL     1       0.092  -1.238   7.293  0.00  0.00    +0.157 A 
ATOM     19  N   UNL     1       1.389  -1.228   7.166  0.00  0.00    -0.086 NA
ATOM     20  O   UNL     1       1.696  -1.480   5.806  0.00  0.00    -0.359 OA
ENDBRANCH  15  16
ENDBRANCH  14  15
ENDBRANCH   6  14
TORSDOF 4
