REMARK  Name = ZINC21810506
REMARK  6 active torsions:
REMARK  status: ('A' for Active; 'I' for Inactive)
REMARK    1  A    between atoms: C_1  and  C_2
REMARK    2  A    between atoms: C_2  and  C_3
REMARK    3  A    between atoms: C_6  and  N_9
REMARK    4  A    between atoms: C_18  and  C_19
REMARK    5  A    between atoms: C_18  and  C_20
REMARK    6  A    between atoms: N_22  and  C_23
REMARK                            x       y       z     vdW  Elec       q    Type
REMARK                         _______ _______ _______ _____ _____    ______ ____
ROOT
ATOM      1  N   UNL     1       1.508   0.842  -4.560  0.00  0.00    -0.250 N 
ATOM      2  C   UNL     1       2.396   0.722  -5.575  0.00  0.00    +0.268 C 
ATOM      3  O   UNL     1       3.597   0.755  -5.383  0.00  0.00    -0.268 OA
ATOM      4  C   UNL     1       1.832   0.550  -6.919  0.00  0.00    +0.109 A 
ATOM      5  C   UNL     1       2.433   0.221  -8.098  0.00  0.00    +0.079 A 
ATOM      6  C   UNL     1       1.432   0.162  -9.079  0.00  0.00    +0.153 A 
ATOM      7  C   UNL     1       0.218   0.464  -8.462  0.00  0.00    +0.088 A 
ATOM      8  N   UNL     1       0.467   0.711  -7.146  0.00  0.00    -0.331 N 
ATOM      9  C   UNL     1      -0.451   1.091  -6.068  0.00  0.00    +0.158 C 
ATOM     10  C   UNL     1       0.088   0.564  -4.739  0.00  0.00    +0.133 C 
ATOM     11  C   UNL     1      -0.128  -0.950  -4.685  0.00  0.00    +0.044 C 
ATOM     12  C   UNL     1      -0.767   0.385  -9.475  0.00  0.00    +0.067 A 
ATOM     13  C   UNL     1      -0.140   0.057 -10.618  0.00  0.00    +0.198 A 
ATOM     14  O   UNL     1       1.176  -0.075 -10.383  0.00  0.00    -0.461 OA
ENDROOT
BRANCH   1  18
ATOM     15  C   UNL     1       2.875   2.042  -0.813  0.00  0.00    -0.048 A 
ATOM     16  C   UNL     1       2.276   0.805  -0.965  0.00  0.00    +0.005 A 
ATOM     17  C   UNL     1       1.822   0.404  -2.206  0.00  0.00    +0.024 A 
ATOM     18  C   UNL     1       1.966   1.245  -3.302  0.00  0.00    +0.038 A 
ATOM     19  C   UNL     1       2.573   2.485  -3.147  0.00  0.00    +0.024 A 
ATOM     20  C   UNL     1       3.020   2.882  -1.902  0.00  0.00    +0.005 A 
BRANCH  15  22
ATOM     21  C   UNL     1       4.824   2.035   0.720  0.00  0.00    +0.009 C 
ATOM     22  C   UNL     1       3.370   2.477   0.542  0.00  0.00    +0.032 C 
ENDBRANCH  15  22
ENDBRANCH   1  18
BRANCH  10  23
ATOM     23  C   UNL     1      -0.680   1.205  -3.613  0.00  0.00    +0.239 C 
ATOM     24  O   UNL     1      -1.546   0.581  -3.036  0.00  0.00    -0.273 OA
ATOM     25  N   UNL     1      -0.406   2.472  -3.246  0.00  0.00    -0.311 N 
ATOM     26  H   UNL     1       0.319   3.067  -3.821  0.00  0.00    +0.149 HD
BRANCH  25  27
ATOM     27  C   UNL     1      -1.073   3.058  -2.080  0.00  0.00    +0.073 C 
ATOM     28  C   UNL     1      -0.192   4.161  -1.489  0.00  0.00    +0.022 C 
ATOM     29  C   UNL     1      -0.888   4.773  -0.272  0.00  0.00    +0.002 C 
ATOM     30  C   UNL     1      -2.231   5.368  -0.699  0.00  0.00    +0.000 C 
ATOM     31  C   UNL     1      -3.112   4.266  -1.290  0.00  0.00    +0.002 C 
ATOM     32  C   UNL     1      -2.416   3.654  -2.507  0.00  0.00    +0.022 C 
ENDBRANCH  25  27
ENDBRANCH  10  23
TORSDOF 4
