REMARK  Name = ZINC32871390
REMARK  8 active torsions:
REMARK  status: ('A' for Active; 'I' for Inactive)
REMARK    1  A    between atoms: C_1  and  C_2
REMARK    2  A    between atoms: C_3  and  C_27
REMARK    3  A    between atoms: C_5  and  S_7
REMARK    4  A    between atoms: S_7  and  C_8
REMARK    5  A    between atoms: C_8  and  C_9
REMARK    6  A    between atoms: N_11  and  C_12
REMARK    7  A    between atoms: C_12  and  C_17
REMARK    8  A    between atoms: C_27  and  C_28
REMARK                            x       y       z     vdW  Elec       q    Type
REMARK                         _______ _______ _______ _____ _____    ______ ____
ROOT
ATOM      1  C   UNL     1       4.987   1.357   0.007  0.00  0.00    +0.224 C 
ATOM      2  O   UNL     1       4.248   1.804  -0.844  0.00  0.00    -0.275 OA
ATOM      3  N   UNL     1       4.770   0.125   0.509  0.00  0.00    -0.305 N 
ATOM      4  H   UNL     1       5.388  -0.248   1.340  0.00  0.00    +0.150 HD
ENDROOT
BRANCH   3   5
ATOM      5  C   UNL     1       3.711  -0.718  -0.051  0.00  0.00    +0.060 C 
ATOM      6  C   UNL     1       3.937  -0.914  -1.564  0.00  0.00    +0.030 C 
ATOM      7  C   UNL     1       4.689  -2.265  -1.663  0.00  0.00    +0.002 C 
ATOM      8  C   UNL     1       4.011  -3.117  -0.561  0.00  0.00    +0.002 C 
ATOM      9  C   UNL     1       3.759  -2.118   0.587  0.00  0.00    +0.030 C 
BRANCH   5  10
ATOM     10  C   UNL     1       2.365  -0.086   0.193  0.00  0.00    -0.020 A 
ATOM     11  C   UNL     1       2.231   0.905   1.148  0.00  0.00    +0.009 A 
ATOM     12  C   UNL     1       0.998   1.486   1.376  0.00  0.00    +0.050 A 
ATOM     13  C   UNL     1      -0.108   1.077   0.647  0.00  0.00    +0.162 A 
ATOM     14  C   UNL     1       0.027   0.084  -0.316  0.00  0.00    +0.162 A 
ATOM     15  C   UNL     1       1.267  -0.497  -0.539  0.00  0.00    +0.055 A 
ATOM     16  O   UNL     1      -1.044  -0.327  -1.049  0.00  0.00    -0.485 OA
ATOM     17  C   UNL     1      -2.339   0.010  -0.540  0.00  0.00    +0.270 C 
ATOM     18  C   UNL     1      -2.322   1.486  -0.120  0.00  0.00    +0.270 C 
ATOM     19  O   UNL     1      -1.318   1.652   0.888  0.00  0.00    -0.485 OA
ENDBRANCH   5  10
ENDBRANCH   3   5
BRANCH   1  20
ATOM     20  C   UNL     1       6.149   2.178   0.504  0.00  0.00    +0.172 C 
BRANCH  20  21
ATOM     21  S   UNL     1       6.172   3.771  -0.356  0.00  0.00    -0.089 S 
BRANCH  21  26
ATOM     22  C   UNL     1      10.316   4.122   2.840  0.00  0.00    +0.066 C 
ATOM     23  C   UNL     1       9.411   4.698   1.782  0.00  0.00    +0.050 A 
ATOM     24  C   UNL     1       9.632   5.937   1.280  0.00  0.00    +0.022 A 
ATOM     25  S   UNL     1       8.289   6.066   0.109  0.00  0.00    -0.065 S 
ATOM     26  C   UNL     1       7.587   4.504   0.397  0.00  0.00    +0.135 A 
ATOM     27  N   UNL     1       8.381   4.010   1.327  0.00  0.00    -0.238 NA
BRANCH  24  28
ATOM     28  C   UNL     1      10.713   6.931   1.617  0.00  0.00    +0.139 C 
BRANCH  28  29
ATOM     29  C   UNL     1      11.902   6.705   0.718  0.00  0.00    +0.215 C 
ATOM     30  O   UNL     1      11.873   5.822  -0.114  0.00  0.00    -0.276 OA
ATOM     31  N   UNL     1      12.996   7.482   0.838  0.00  0.00    -0.329 N 
ATOM     32  H   UNL     1      13.863   7.317   0.182  0.00  0.00    +0.145 HD
ATOM     33  H   UNL     1      13.021   8.282   1.593  0.00  0.00    +0.145 HD
ENDBRANCH  28  29
ENDBRANCH  24  28
ENDBRANCH  21  26
ENDBRANCH  20  21
ENDBRANCH   1  20
TORSDOF 7
