REMARK  Name = ZINC21038228
REMARK  9 active torsions:
REMARK  status: ('A' for Active; 'I' for Inactive)
REMARK    1  A    between atoms: C_4  and  N_7
REMARK    2  A    between atoms: N_7  and  C_8
REMARK    3  A    between atoms: C_14  and  C_16
REMARK    4  A    between atoms: C_16  and  S_17
REMARK    5  A    between atoms: S_17  and  C_18
REMARK    6  A    between atoms: N_23  and  N_24
REMARK    7  A    between atoms: C_25  and  C_26
REMARK    8  A    between atoms: C_30  and  O_32
REMARK    9  A    between atoms: O_32  and  C_33
REMARK                            x       y       z     vdW  Elec       q    Type
REMARK                         _______ _______ _______ _____ _____    ______ ____
ROOT
ATOM      1  C   UNL     1       0.475   0.534   0.284  0.00  0.00    +0.211 A 
ATOM      2  N   UNL     1       0.430   1.899   0.302  0.00  0.00    -0.186 NA
ATOM      3  C   UNL     1       1.715   2.362   0.373  0.00  0.00    +0.232 A 
ATOM      4  N   UNL     1       2.518   1.327   0.399  0.00  0.00    -0.245 N 
ATOM      5  N   UNL     1       1.733   0.168   0.343  0.00  0.00    -0.144 NA
ATOM      6  N   UNL     1       2.100   3.695   0.411  0.00  0.00    -0.205 N 
ATOM      7  H   UNL     1       1.339   4.489   0.384  0.00  0.00    +0.177 HD
ATOM      8  H   UNL     1       3.607   1.477   0.456  0.00  0.00    +0.192 HD
ENDROOT
BRANCH   6   9
ATOM      9  N   UNL     1       3.459   4.029   0.485  0.00  0.00    -0.188 NA
ATOM     10  C   UNL     1       3.819   5.277   0.520  0.00  0.00    +0.138 C 
BRANCH  10  11
ATOM     11  C   UNL     1       5.249   5.629   0.598  0.00  0.00    -0.002 A 
ATOM     12  C   UNL     1       6.218   4.622   0.638  0.00  0.00    +0.010 A 
ATOM     13  C   UNL     1       7.555   4.956   0.705  0.00  0.00    +0.004 A 
ATOM     14  C   UNL     1       7.940   6.284   0.744  0.00  0.00    +0.046 A 
ATOM     15  C   UNL     1       6.984   7.291   0.709  0.00  0.00    +0.129 A 
ATOM     16  C   UNL     1       5.639   6.968   0.636  0.00  0.00    +0.055 A 
BRANCH  15  17
ATOM     17  O   UNL     1       7.369   8.594   0.748  0.00  0.00    -0.456 OA
BRANCH  17  18
ATOM     18  C   UNL     1       8.690   8.864   0.916  0.00  0.00    +0.128 A 
ATOM     19  C   UNL     1       9.158   9.304   2.146  0.00  0.00    +0.046 A 
ATOM     20  C   UNL     1      10.502   9.573   2.316  0.00  0.00    +0.004 A 
ATOM     21  C   UNL     1      11.379   9.415   1.258  0.00  0.00    +0.000 A 
ATOM     22  C   UNL     1      10.915   8.982   0.030  0.00  0.00    +0.004 A 
ATOM     23  C   UNL     1       9.572   8.706  -0.143  0.00  0.00    +0.046 A 
ENDBRANCH  17  18
ENDBRANCH  15  17
ENDBRANCH  10  11
ENDBRANCH   6   9
BRANCH   1  24
ATOM     24  S   UNL     1      -0.915  -0.546   0.200  0.00  0.00    -0.075 S 
BRANCH  24  25
ATOM     25  C   UNL     1      -0.182  -2.205   0.213  0.00  0.00    +0.174 C 
BRANCH  25  27
ATOM     26  N   UNL     1      -0.977  -4.548   0.252  0.00  0.00    -0.240 N 
ATOM     27  C   UNL     1      -1.277  -3.239   0.143  0.00  0.00    +0.234 C 
ATOM     28  O   UNL     1      -2.429  -2.892  -0.010  0.00  0.00    -0.274 OA
BRANCH  26  32
ATOM     29  C   UNL     1       3.006  -5.766   0.394  0.00  0.00    +0.000 A 
ATOM     30  C   UNL     1       2.146  -6.096   1.426  0.00  0.00    +0.002 A 
ATOM     31  C   UNL     1       0.826  -5.693   1.382  0.00  0.00    +0.024 A 
ATOM     32  C   UNL     1       0.362  -4.957   0.300  0.00  0.00    +0.041 A 
ATOM     33  C   UNL     1       1.226  -4.633  -0.738  0.00  0.00    +0.024 A 
ATOM     34  C   UNL     1       2.547  -5.033  -0.685  0.00  0.00    +0.002 A 
ENDBRANCH  26  32
BRANCH  26  35
ATOM     35  C   UNL     1      -2.002  -5.499   0.316  0.00  0.00    +0.041 A 
ATOM     36  C   UNL     1      -2.974  -5.409   1.305  0.00  0.00    +0.024 A 
ATOM     37  C   UNL     1      -3.987  -6.345   1.363  0.00  0.00    +0.002 A 
ATOM     38  C   UNL     1      -4.029  -7.378   0.445  0.00  0.00    +0.000 A 
ATOM     39  C   UNL     1      -3.060  -7.474  -0.537  0.00  0.00    +0.002 A 
ATOM     40  C   UNL     1      -2.047  -6.538  -0.604  0.00  0.00    +0.024 A 
ENDBRANCH  26  35
ENDBRANCH  25  27
ENDBRANCH  24  25
ENDBRANCH   1  24
TORSDOF 9
