REMARK  Name = ZINC03119731
REMARK  5 active torsions:
REMARK  status: ('A' for Active; 'I' for Inactive)
REMARK    1  A    between atoms: C_1  and  C_2
REMARK    2  A    between atoms: C_4  and  C_16
REMARK    3  A    between atoms: C_5  and  C_15
REMARK    4  A    between atoms: N_6  and  C_7
REMARK    5  A    between atoms: C_16  and  C_18
REMARK                            x       y       z     vdW  Elec       q    Type
REMARK                         _______ _______ _______ _____ _____    ______ ____
ROOT
ATOM      1  C   UNL     1      -0.483   6.944   0.731  0.00  0.00    +0.064 C 
ATOM      2  C   UNL     1      -0.758   5.554   1.245  0.00  0.00    +0.022 A 
ATOM      3  C   UNL     1      -0.401   4.413   0.633  0.00  0.00    +0.034 A 
ATOM      4  C   UNL     1      -0.873   3.317   1.490  0.00  0.00    +0.047 A 
ATOM      5  C   UNL     1      -1.495   3.920   2.568  0.00  0.00    +0.032 A 
ATOM      6  N   UNL     1      -1.411   5.255   2.408  0.00  0.00    -0.317 N 
ATOM      7  C   UNL     1      -2.149   3.207   3.724  0.00  0.00    +0.064 C 
ENDROOT
BRANCH   6   8
ATOM      8  C   UNL     1      -1.927   6.202   3.303  0.00  0.00    +0.049 A 
ATOM      9  C   UNL     1      -1.404   6.304   4.585  0.00  0.00    +0.046 A 
ATOM     10  C   UNL     1      -1.911   7.243   5.464  0.00  0.00    +0.044 A 
ATOM     11  C   UNL     1      -2.945   8.073   5.071  0.00  0.00    +0.040 A 
ATOM     12  C   UNL     1      -3.472   7.970   3.795  0.00  0.00    +0.044 A 
ATOM     13  C   UNL     1      -2.965   7.036   2.911  0.00  0.00    +0.046 A 
ATOM     14 CL   UNL     1      -4.770   9.013   3.306  0.00  0.00    -0.083 Cl
ATOM     15 CL   UNL     1      -1.253   7.375   7.065  0.00  0.00    -0.083 Cl
ENDBRANCH   6   8
BRANCH   4  16
ATOM     16  C   UNL     1      -0.722   1.881   1.250  0.00  0.00    +0.267 C 
ATOM     17  O   UNL     1      -1.165   1.082   2.048  0.00  0.00    -0.282 OA
BRANCH  16  18
ATOM     18  C   UNL     1      -0.017   1.395   0.010  0.00  0.00    +0.455 C 
ATOM     19  F   UNL     1       0.002  -0.004   0.002  0.00  0.00    -0.163 F 
ATOM     20  F   UNL     1       1.296   1.879  -0.000  0.00  0.00    -0.163 F 
ATOM     21  F   UNL     1      -0.694   1.858  -1.124  0.00  0.00    -0.163 F 
ENDBRANCH  16  18
ENDBRANCH   4  16
TORSDOF 3
