REMARK  Name = ZINC58226322
REMARK  4 active torsions:
REMARK  status: ('A' for Active; 'I' for Inactive)
REMARK    1  A    between atoms: C_1  and  N_2
REMARK    2  A    between atoms: C_3  and  C_5
REMARK    3  A    between atoms: C_10  and  N_11
REMARK    4  A    between atoms: C_12  and  C_14
REMARK                            x       y       z     vdW  Elec       q    Type
REMARK                         _______ _______ _______ _____ _____    ______ ____
ROOT
ATOM      1  N   UNL     1      -3.496  -2.127   0.204  0.00  0.00    -0.281 N 
ATOM      2  C   UNL     1      -4.659  -2.775   0.408  0.00  0.00    +0.255 C 
ATOM      3  O   UNL     1      -4.661  -3.977   0.591  0.00  0.00    -0.270 OA
ATOM      4  H   UNL     1      -3.488  -1.160   0.117  0.00  0.00    +0.155 HD
ENDROOT
BRANCH   2   5
ATOM      5  C   UNL     1      -5.928  -2.028   0.409  0.00  0.00    +0.122 A 
ATOM      6  C   UNL     1      -7.142  -2.668   0.622  0.00  0.00    +0.031 A 
ATOM      7  C   UNL     1      -8.325  -1.886   0.577  0.00  0.00    +0.018 A 
ATOM      8  C   UNL     1      -9.553  -2.430   0.979  0.00  0.00    +0.011 A 
ATOM      9  C   UNL     1     -10.675  -1.653   0.969  0.00  0.00    +0.001 A 
ATOM     10  C   UNL     1     -10.614  -0.329   0.557  0.00  0.00    +0.004 A 
ATOM     11  C   UNL     1      -9.420   0.222   0.139  0.00  0.00    +0.047 A 
ATOM     12  C   UNL     1      -8.267  -0.552   0.133  0.00  0.00    +0.139 A 
ATOM     13  O   UNL     1      -7.098  -0.036  -0.316  0.00  0.00    -0.422 OA
ATOM     14  C   UNL     1      -5.959  -0.571   0.189  0.00  0.00    +0.350 A 
ATOM     15  O   UNL     1      -4.996   0.125   0.449  0.00  0.00    -0.244 OA
ENDBRANCH   2   5
BRANCH   1  21
ATOM     16  C   UNL     1      -1.358  -2.519  -0.866  0.00  0.00    +0.059 A 
ATOM     17  C   UNL     1      -0.165  -3.243  -0.940  0.00  0.00    +0.035 A 
ATOM     18  C   UNL     1       0.072  -4.271  -0.052  0.00  0.00    +0.042 A 
ATOM     19  C   UNL     1      -0.870  -4.591   0.914  0.00  0.00    +0.022 A 
ATOM     20  C   UNL     1      -2.053  -3.886   0.998  0.00  0.00    +0.025 A 
ATOM     21  C   UNL     1      -2.305  -2.843   0.117  0.00  0.00    +0.046 A 
ATOM     22 CL   UNL     1       1.555  -5.168  -0.145  0.00  0.00    -0.084 Cl
BRANCH  16  25
ATOM     23  C   UNL     1      -0.917   0.061  -3.618  0.00  0.00    +0.128 C 
ATOM     24  N   UNL     1      -0.659  -1.033  -2.678  0.00  0.00    -0.314 N 
ATOM     25  C   UNL     1      -1.618  -1.418  -1.812  0.00  0.00    +0.246 C 
ATOM     26  O   UNL     1      -2.696  -0.857  -1.812  0.00  0.00    -0.270 OA
ATOM     27  H   UNL     1       0.202  -1.481  -2.679  0.00  0.00    +0.149 HD
ENDBRANCH  16  25
ENDBRANCH   1  21
TORSDOF 3
