REMARK  Name = ZINC36555568
REMARK  16 active torsions:
REMARK  status: ('A' for Active; 'I' for Inactive)
REMARK    1  A    between atoms: C_1  and  C_2
REMARK    2  A    between atoms: C_5  and  C_7
REMARK    3  A    between atoms: C_7  and  N_8
REMARK    4  A    between atoms: N_8  and  C_9
REMARK    5  A    between atoms: C_9  and  C_11
REMARK    6  A    between atoms: C_9  and  C_20
REMARK    7  A    between atoms: C_12  and  O_19
REMARK    8  A    between atoms: C_14  and  O_18
REMARK    9  A    between atoms: C_16  and  O_17
REMARK   10  A    between atoms: N_22  and  C_23
REMARK   11  A    between atoms: C_23  and  C_24
REMARK   12  A    between atoms: C_23  and  C_25
REMARK   13  A    between atoms: C_23  and  C_26
REMARK   14  A    between atoms: C_27  and  C_29
REMARK   15  A    between atoms: C_34  and  O_35
REMARK   16  A    between atoms: O_35  and  C_36
REMARK                            x       y       z     vdW  Elec       q    Type
REMARK                         _______ _______ _______ _____ _____    ______ ____
ROOT
ATOM      1  C   UNL     1       2.883  -2.704  -1.702  0.00  0.00    +0.200 C 
ENDROOT
BRANCH   1   2
ATOM      2  C   UNL     1       4.141  -3.429  -2.104  0.00  0.00    +0.065 A 
ATOM      3  C   UNL     1       5.204  -2.723  -2.647  0.00  0.00    +0.129 A 
ATOM      4  C   UNL     1       6.362  -3.390  -3.017  0.00  0.00    +0.091 A 
ATOM      5  C   UNL     1       6.457  -4.763  -2.844  0.00  0.00    +0.124 A 
ATOM      6  C   UNL     1       5.394  -5.468  -2.300  0.00  0.00    +0.091 A 
ATOM      7  C   UNL     1       4.238  -4.801  -1.926  0.00  0.00    +0.129 A 
BRANCH   7   8
ATOM      8  O   UNL     1       3.198  -5.491  -1.389  0.00  0.00    -0.506 OA
ATOM      9  H   UNL     1       2.665  -5.969  -2.039  0.00  0.00    +0.292 HD
ENDBRANCH   7   8
BRANCH   5  10
ATOM     10  O   UNL     1       7.591  -5.417  -3.208  0.00  0.00    -0.507 OA
ATOM     11  H   UNL     1       8.251  -5.481  -2.504  0.00  0.00    +0.292 HD
ENDBRANCH   5  10
BRANCH   3  12
ATOM     12  O   UNL     1       5.111  -1.378  -2.817  0.00  0.00    -0.506 OA
ATOM     13  H   UNL     1       5.485  -0.863  -2.088  0.00  0.00    +0.292 HD
ENDBRANCH   3  12
ENDBRANCH   1   2
BRANCH   1  14
ATOM     14  C   UNL     1       2.055  -2.415  -2.928  0.00  0.00    +0.239 C 
ATOM     15  O   UNL     1       0.887  -2.738  -2.960  0.00  0.00    -0.273 OA
ATOM     16  N   UNL     1       2.614  -1.799  -3.988  0.00  0.00    -0.309 N 
ATOM     17  H   UNL     1       3.577  -1.691  -4.034  0.00  0.00    +0.149 HD
BRANCH  16  18
ATOM     18  C   UNL     1       1.767  -1.290  -5.070  0.00  0.00    +0.026 C 
ATOM     19  C   UNL     1       0.792  -0.253  -4.510  0.00  0.00    +0.031 C 
ATOM     20  C   UNL     1       2.644  -0.640  -6.142  0.00  0.00    +0.031 C 
ATOM     21  C   UNL     1       0.980  -2.448  -5.688  0.00  0.00    +0.031 C 
ENDBRANCH  16  18
ENDBRANCH   1  14
BRANCH   1  22
ATOM     22  N   UNL     1       2.112  -3.540  -0.778  0.00  0.00    -0.274 N 
ATOM     23  C   UNL     1       1.381  -4.569  -1.250  0.00  0.00    +0.251 C 
ATOM     24  O   UNL     1       0.833  -5.330  -0.477  0.00  0.00    -0.270 OA
BRANCH  23  25
ATOM     25  C   UNL     1       1.246  -4.772  -2.705  0.00  0.00    +0.078 A 
ATOM     26  C   UNL     1       2.210  -4.261  -3.578  0.00  0.00    +0.017 A 
ATOM     27  C   UNL     1       2.079  -4.454  -4.936  0.00  0.00    +0.001 A 
ATOM     28  C   UNL     1       0.995  -5.153  -5.441  0.00  0.00    +0.004 A 
ATOM     29  C   UNL     1       0.035  -5.663  -4.590  0.00  0.00    +0.046 A 
ATOM     30  C   UNL     1       0.154  -5.483  -3.220  0.00  0.00    +0.132 A 
BRANCH  30  31
ATOM     31  O   UNL     1      -0.785  -5.988  -2.382  0.00  0.00    -0.494 OA
ATOM     32  C   UNL     1      -1.870  -6.702  -2.979  0.00  0.00    +0.277 C 
ENDBRANCH  30  31
ENDBRANCH  23  25
BRANCH  22  33
ATOM     33  C   UNL     1       2.135  -3.257   0.659  0.00  0.00    +0.183 C 
BRANCH  33  38
ATOM     34  C   UNL     1      -0.666   0.816   1.662  0.00  0.00    +0.086 C 
ATOM     35  C   UNL     1      -0.263  -0.622   1.457  0.00  0.00    +0.102 A 
ATOM     36  C   UNL     1      -1.070  -1.691   1.586  0.00  0.00    +0.045 A 
ATOM     37  C   UNL     1      -0.284  -2.832   1.304  0.00  0.00    +0.046 A 
ATOM     38  C   UNL     1       0.955  -2.393   1.021  0.00  0.00    +0.122 A 
ATOM     39  O   UNL     1       0.960  -1.052   1.109  0.00  0.00    -0.463 OA
ENDBRANCH  33  38
ENDBRANCH  22  33
ENDBRANCH   1  22
TORSDOF 11
