REMARK  Name = ZINC17146938
REMARK  7 active torsions:
REMARK  status: ('A' for Active; 'I' for Inactive)
REMARK    1  A    between atoms: C_1  and  C_2
REMARK    2  A    between atoms: C_2  and  C_3
REMARK    3  A    between atoms: C_2  and  C_4
REMARK    4  A    between atoms: N_7  and  C_8
REMARK    5  A    between atoms: C_11  and  N_14
REMARK    6  A    between atoms: N_14  and  C_15
REMARK    7  A    between atoms: N_14  and  C_16
REMARK                            x       y       z     vdW  Elec       q    Type
REMARK                         _______ _______ _______ _____ _____    ______ ____
ROOT
ATOM      1  C   UNL     1      -0.011   1.392  -0.175  0.00  0.00    +0.004 C 
ATOM      2  C   UNL     1       1.144   2.094  -0.215  0.00  0.00    +0.035 C 
ATOM      3  C   UNL     1       2.414   1.399   0.013  0.00  0.00    +0.065 C 
ATOM      4  N   UNL     1       3.562   2.063  -0.021  0.00  0.00    -0.248 NA
ATOM      5  C   UNL     1       2.394  -0.042   0.281  0.00  0.00    +0.031 C 
ATOM      6  C   UNL     1       1.210  -0.693   0.310  0.00  0.00    +0.053 C 
ATOM      7  C   UNL     1      -0.000   0.003   0.086  0.00  0.00    +0.182 C 
ATOM      8  O   UNL     1      -1.057  -0.609   0.117  0.00  0.00    -0.288 OA
ENDROOT
BRANCH   4   9
ATOM      9  C   UNL     1       4.721   1.400   0.065  0.00  0.00    +0.065 A 
ATOM     10  C   UNL     1       5.653   1.728   1.072  0.00  0.00    +0.029 A 
ATOM     11  C   UNL     1       6.828   1.046   1.157  0.00  0.00    +0.025 A 
ATOM     12  C   UNL     1       7.117   0.030   0.242  0.00  0.00    +0.029 A 
ATOM     13  C   UNL     1       6.202  -0.297  -0.762  0.00  0.00    +0.025 A 
ATOM     14  C   UNL     1       5.020   0.373  -0.855  0.00  0.00    +0.029 A 
BRANCH  12  15
ATOM     15  N   UNL     1       8.316  -0.655   0.331  0.00  0.00    -0.336 N 
ATOM     16  C   UNL     1       8.623  -1.721  -0.626  0.00  0.00    +0.129 C 
ATOM     17  C   UNL     1       9.278  -0.315   1.382  0.00  0.00    +0.129 C 
ENDBRANCH  12  15
ENDBRANCH   4   9
BRANCH   1  19
ATOM     18  C   UNL     1      -2.014   1.482  -1.633  0.00  0.00    +0.012 C 
ATOM     19  C   UNL     1      -1.321   2.096  -0.415  0.00  0.00    +0.017 C 
ATOM     20  C   UNL     1      -2.218   1.939   0.815  0.00  0.00    +0.012 C 
ENDBRANCH   1  19
TORSDOF 3
