REMARK  Name = ZINC35481994
REMARK  3 active torsions:
REMARK  status: ('A' for Active; 'I' for Inactive)
REMARK    1  A    between atoms: C_1  and  N_2
REMARK    2  A    between atoms: C_6  and  C_13
REMARK    3  A    between atoms: C_15  and  C_18
REMARK                            x       y       z     vdW  Elec       q    Type
REMARK                         _______ _______ _______ _____ _____    ______ ____
ROOT
ATOM      1  C   UNL     1      -3.868  -4.081   0.001  0.00  0.00    +0.202 A 
ATOM      2  N   UNL     1      -5.206  -3.967   0.004  0.00  0.00    -0.187 NA
ATOM      3  C   UNL     1      -5.756  -5.159   0.003  0.00  0.00    +0.259 A 
ATOM      4  O   UNL     1      -4.774  -6.076  -0.001  0.00  0.00    -0.332 OA
ATOM      5  N   UNL     1      -3.552  -5.354  -0.008  0.00  0.00    -0.056 NA
ENDROOT
BRANCH   1  11
ATOM      6  C   UNL     1      -0.018   1.461   0.010  0.00  0.00    +0.154 C 
ATOM      7  N   UNL     1       0.002  -0.004   0.002  0.00  0.00    -0.295 N 
ATOM      8  C   UNL     1      -1.115  -0.833   0.003  0.00  0.00    +0.069 A 
ATOM      9  C   UNL     1      -2.482  -0.586   0.011  0.00  0.00    +0.029 A 
ATOM     10  C   UNL     1      -3.373  -1.637   0.010  0.00  0.00    +0.014 A 
ATOM     11  C   UNL     1      -2.905  -2.952   0.001  0.00  0.00    +0.025 A 
ATOM     12  C   UNL     1      -1.536  -3.205  -0.008  0.00  0.00    +0.039 A 
ATOM     13  C   UNL     1      -0.642  -2.148  -0.007  0.00  0.00    +0.068 A 
ATOM     14  N   UNL     1       0.749  -2.075  -0.013  0.00  0.00    -0.306 N 
ATOM     15  H   UNL     1       1.357  -2.830  -0.021  0.00  0.00    +0.170 HD
ATOM     16  C   UNL     1       1.105  -0.776  -0.013  0.00  0.00    +0.327 A 
ATOM     17  O   UNL     1       2.249  -0.363  -0.022  0.00  0.00    -0.247 OA
ENDBRANCH   1  11
BRANCH   3  18
ATOM     18  C   UNL     1      -7.207  -5.442   0.006  0.00  0.00    +0.042 A 
ATOM     19  C   UNL     1      -8.126  -4.392   0.005  0.00  0.00    +0.016 A 
ATOM     20  C   UNL     1      -9.478  -4.661   0.008  0.00  0.00    +0.042 A 
ATOM     21  C   UNL     1      -9.927  -5.972   0.012  0.00  0.00    +0.158 A 
ATOM     22  C   UNL     1      -9.018  -7.021   0.014  0.00  0.00    +0.159 A 
ATOM     23  C   UNL     1      -7.662  -6.762   0.005  0.00  0.00    +0.054 A 
ATOM     24  F   UNL     1      -9.461  -8.298   0.019  0.00  0.00    -0.202 F 
ATOM     25  F   UNL     1     -11.253  -6.230   0.015  0.00  0.00    -0.202 F 
ENDBRANCH   3  18
TORSDOF 2
