REMARK  Name = ZINC03600029
REMARK  7 active torsions:
REMARK  status: ('A' for Active; 'I' for Inactive)
REMARK    1  A    between atoms: C_1  and  C_2
REMARK    2  A    between atoms: C_2  and  C_3
REMARK    3  A    between atoms: C_2  and  C_4
REMARK    4  A    between atoms: C_4  and  N_5
REMARK    5  A    between atoms: C_9  and  C_11
REMARK    6  A    between atoms: C_11  and  O_12
REMARK    7  A    between atoms: O_12  and  C_13
REMARK                            x       y       z     vdW  Elec       q    Type
REMARK                         _______ _______ _______ _____ _____    ______ ____
ROOT
ATOM      1  C   UNL     1      -3.700  -6.214  -0.394  0.00  0.00    +0.326 C 
ENDROOT
BRANCH   1   6
ATOM      2  N   UNL     1      -1.416  -1.993  -0.116  0.00  0.00    -0.299 N 
ATOM      3  C   UNL     1      -2.575  -2.682  -0.130  0.00  0.00    +0.306 C 
ATOM      4  O   UNL     1      -3.634  -2.092  -0.036  0.00  0.00    -0.252 OA
ATOM      5  N   UNL     1      -2.559  -4.024  -0.248  0.00  0.00    -0.237 N 
ATOM      6  C   UNL     1      -3.718  -4.713  -0.262  0.00  0.00    +0.258 C 
ATOM      7  O   UNL     1      -4.774  -4.125  -0.168  0.00  0.00    -0.272 OA
ATOM      8  H   UNL     1      -0.572  -2.463  -0.190  0.00  0.00    +0.150 HD
ATOM      9  H   UNL     1      -1.714  -4.495  -0.323  0.00  0.00    +0.159 HD
BRANCH   2  10
ATOM     10  C   UNL     1      -1.433  -0.534   0.013  0.00  0.00    +0.108 C 
BRANCH  10  12
ATOM     11  C   UNL     1      -0.019   1.526   0.010  0.00  0.00    +0.009 C 
ATOM     12  C   UNL     1       0.002  -0.004   0.002  0.00  0.00    -0.000 C 
ATOM     13  C   UNL     1       0.742  -0.511   1.242  0.00  0.00    +0.009 C 
ENDBRANCH  10  12
ENDBRANCH   2  10
ENDBRANCH   1   6
BRANCH   1  14
ATOM     14  O   UNL     1      -5.041  -6.708  -0.384  0.00  0.00    -0.466 OA
BRANCH  14  15
ATOM     15  C   UNL     1      -5.203  -8.049  -0.495  0.00  0.00    +0.227 A 
ATOM     16  C   UNL     1      -6.503  -8.620  -0.499  0.00  0.00    +0.073 A 
ATOM     17  C   UNL     1      -7.803  -7.936  -0.393  0.00  0.00    -0.023 A 
ATOM     18  C   UNL     1      -8.899  -8.711  -0.422  0.00  0.00    -0.004 A 
ATOM     19  S   UNL     1      -8.289 -10.373  -0.592  0.00  0.00    -0.073 S 
ATOM     20  C   UNL     1      -6.552 -10.021  -0.620  0.00  0.00    +0.116 A 
ATOM     21  N   UNL     1      -5.453 -10.743  -0.720  0.00  0.00    -0.228 NA
ATOM     22  C   UNL     1      -4.272 -10.156  -0.710  0.00  0.00    +0.226 A 
ATOM     23  N   UNL     1      -4.153  -8.844  -0.606  0.00  0.00    -0.201 NA
ATOM     24  C   UNL     1     -10.166  -7.907  -0.302  0.00  0.00    +0.043 C 
ATOM     25  C   UNL     1      -9.706  -6.537   0.242  0.00  0.00    +0.010 C 
ATOM     26  C   UNL     1      -8.248  -6.478  -0.254  0.00  0.00    +0.037 C 
ENDBRANCH  14  15
ENDBRANCH   1  14
TORSDOF 5
