REMARK  Name = ZINC12515352
REMARK  4 active torsions:
REMARK  status: ('A' for Active; 'I' for Inactive)
REMARK    1  A    between atoms: C_1  and  C_2
REMARK    2  A    between atoms: C_2  and  C_3
REMARK    3  A    between atoms: N_10  and  N_13
REMARK    4  A    between atoms: C_14  and  C_16
REMARK                            x       y       z     vdW  Elec       q    Type
REMARK                         _______ _______ _______ _____ _____    ______ ____
ROOT
ATOM      1  C   UNL     1      -4.049  -0.419   1.147  0.00  0.00    +0.040 A 
ATOM      2  C   UNL     1      -4.815  -0.519  -0.018  0.00  0.00    +0.015 A 
ATOM      3  C   UNL     1      -5.988  -1.241  -0.019  0.00  0.00    +0.026 A 
ATOM      4  C   UNL     1      -6.405  -1.881   1.144  0.00  0.00    +0.062 A 
ATOM      5  C   UNL     1      -5.634  -1.789   2.296  0.00  0.00    +0.134 A 
ATOM      6  C   UNL     1      -4.469  -1.069   2.314  0.00  0.00    +0.044 A 
ATOM      7  S   UNL     1      -6.208  -2.658   3.721  0.00  0.00    +0.102 S 
ATOM      8  O   UNL     1      -6.969  -1.737   4.490  0.00  0.00    -0.146 OA
ATOM      9  O   UNL     1      -5.097  -3.369   4.250  0.00  0.00    -0.146 OA
ATOM     10  N   UNL     1      -7.264  -3.784   3.129  0.00  0.00    -0.118 NA
ATOM     11  C   UNL     1      -7.820  -3.661   1.949  0.00  0.00    +0.124 C 
ATOM     12  N   UNL     1      -7.621  -2.592   1.153  0.00  0.00    -0.286 N 
ATOM     13  C   UNL     1      -8.622  -2.018   0.272  0.00  0.00    +0.112 C 
ATOM     14  C   UNL     1     -10.053  -2.136   0.561  0.00  0.00    +0.019 C 
ATOM     15  C   UNL     1     -10.723  -3.371   1.036  0.00  0.00    +0.002 C 
ATOM     16  C   UNL     1     -10.018  -4.693   0.957  0.00  0.00    +0.008 C 
ATOM     17  C   UNL     1      -8.686  -4.777   1.558  0.00  0.00    +0.073 C 
ENDROOT
BRANCH   1  19
ATOM     18  N   UNL     1      -2.392   0.984   0.019  0.00  0.00    -0.215 N 
ATOM     19  C   UNL     1      -2.798   0.364   1.145  0.00  0.00    +0.262 C 
ATOM     20  O   UNL     1      -2.133   0.450   2.159  0.00  0.00    -0.268 OA
ATOM     21  H   UNL     1      -2.922   0.915  -0.790  0.00  0.00    +0.176 HD
BRANCH  18  29
ATOM     22  C   UNL     1       1.397   5.753   0.021  0.00  0.00    -0.008 A 
ATOM     23  C   UNL     1       0.147   5.261   0.029  0.00  0.00    +0.026 A 
ATOM     24  C   UNL     1      -0.048   3.823   0.023  0.00  0.00    +0.074 A 
ATOM     25  C   UNL     1       1.135   3.062   0.008  0.00  0.00    +0.115 A 
ATOM     26  S   UNL     1       2.416   4.290   0.003  0.00  0.00    -0.073 S 
ATOM     27  N   UNL     1       1.116   1.733   0.001  0.00  0.00    -0.228 NA
ATOM     28  C   UNL     1      -0.013   1.076   0.008  0.00  0.00    +0.223 A 
ATOM     29  N   UNL     1      -1.204   1.727   0.017  0.00  0.00    -0.212 N 
ATOM     30  C   UNL     1      -1.268   3.071   0.031  0.00  0.00    +0.279 A 
ATOM     31  O   UNL     1      -2.346   3.640   0.044  0.00  0.00    -0.265 OA
BRANCH  22  33
ATOM     32  C   UNL     1       1.994   7.675   1.468  0.00  0.00    +0.009 C 
ATOM     33  C   UNL     1       1.833   7.195   0.025  0.00  0.00    +0.039 C 
ENDBRANCH  22  33
ENDBRANCH  18  29
ENDBRANCH   1  19
TORSDOF 3
