REMARK  Name = ZINC28054723
REMARK  3 active torsions:
REMARK  status: ('A' for Active; 'I' for Inactive)
REMARK    1  A    between atoms: C_1  and  C_2
REMARK    2  A    between atoms: C_10  and  C_18
REMARK    3  A    between atoms: C_25  and  C_28
REMARK                            x       y       z     vdW  Elec       q    Type
REMARK                         _______ _______ _______ _____ _____    ______ ____
ROOT
ATOM      1  C   UNL     1       2.468   3.928  -0.001  0.00  0.00    +0.044 C 
ATOM      2  C   UNL     1       1.166   3.170   0.008  0.00  0.00    -0.050 A 
ATOM      3  C   UNL     1       1.175   1.786   0.000  0.00  0.00    +0.007 A 
ATOM      4  C   UNL     1      -0.013   1.076   0.008  0.00  0.00    +0.046 A 
ATOM      5  C   UNL     1      -1.218   1.753   0.017  0.00  0.00    +0.131 A 
ATOM      6  C   UNL     1      -1.228   3.154   0.030  0.00  0.00    +0.038 A 
ATOM      7  C   UNL     1      -0.032   3.860   0.023  0.00  0.00    +0.016 A 
ATOM      8  C   UNL     1      -2.537   3.850   0.045  0.00  0.00    +0.050 C 
ATOM      9  C   UNL     1      -3.624   3.151   0.379  0.00  0.00    +0.025 C 
ATOM     10  C   UNL     1      -5.002   3.764   0.404  0.00  0.00    +0.174 C 
ATOM     11  N   UNL     1      -4.905   5.215   0.338  0.00  0.00    -0.201 N 
ATOM     12  C   UNL     1      -3.769   5.884   0.009  0.00  0.00    +0.240 A 
ATOM     13  N   UNL     1      -4.044   7.156   0.038  0.00  0.00    -0.092 NA
ATOM     14  N   UNL     1      -5.278   7.338   0.367  0.00  0.00    -0.021 NA
ATOM     15  N   UNL     1      -5.864   6.202   0.567  0.00  0.00    -0.042 NA
ATOM     16  N   UNL     1      -2.594   5.210  -0.280  0.00  0.00    -0.282 N 
ATOM     17  C   UNL     1      -3.475   1.695   0.759  0.00  0.00    +0.234 C 
ATOM     18  O   UNL     1      -2.404   1.093   0.034  0.00  0.00    -0.479 OA
ATOM     19  H   UNL     1      -1.727   5.701  -0.746  0.00  0.00    +0.155 HD
ENDROOT
BRANCH  10  20
ATOM     20  C   UNL     1      -5.792   3.261  -0.777  0.00  0.00    -0.019 A 
ATOM     21  C   UNL     1      -5.350   3.515  -2.062  0.00  0.00    +0.009 A 
ATOM     22  C   UNL     1      -6.070   3.049  -3.146  0.00  0.00    +0.039 A 
ATOM     23  C   UNL     1      -7.242   2.339  -2.944  0.00  0.00    +0.123 A 
ATOM     24  C   UNL     1      -7.687   2.091  -1.657  0.00  0.00    +0.039 A 
ATOM     25  C   UNL     1      -6.962   2.553  -0.574  0.00  0.00    +0.009 A 
ATOM     26  F   UNL     1      -7.950   1.889  -4.003  0.00  0.00    -0.205 F 
ENDBRANCH  10  20
BRANCH  17  27
ATOM     27  C   UNL     1      -3.193   1.593   2.236  0.00  0.00    -0.003 A 
ATOM     28  C   UNL     1      -1.914   1.810   2.712  0.00  0.00    +0.007 A 
ATOM     29  C   UNL     1      -1.656   1.721   4.067  0.00  0.00    +0.000 A 
ATOM     30  C   UNL     1      -2.676   1.406   4.945  0.00  0.00    +0.000 A 
ATOM     31  C   UNL     1      -3.954   1.185   4.469  0.00  0.00    +0.000 A 
ATOM     32  C   UNL     1      -4.213   1.278   3.114  0.00  0.00    +0.007 A 
ENDBRANCH  17  27
TORSDOF 2
