REMARK  Name = ZINC53813973
REMARK  7 active torsions:
REMARK  status: ('A' for Active; 'I' for Inactive)
REMARK    1  A    between atoms: C_1  and  C_2
REMARK    2  A    between atoms: C_2  and  C_3
REMARK    3  A    between atoms: C_6  and  C_15
REMARK    4  A    between atoms: C_13  and  O_14
REMARK    5  A    between atoms: C_15  and  N_16
REMARK    6  A    between atoms: C_23  and  S_25
REMARK    7  A    between atoms: S_25  and  N_28
REMARK                            x       y       z     vdW  Elec       q    Type
REMARK                         _______ _______ _______ _____ _____    ______ ____
ROOT
ATOM      1  C   UNL     1      -3.204  -1.871  -3.687  0.00  0.00    +0.141 C 
ENDROOT
BRANCH   1   5
ATOM      2  C   UNL     1      -7.366  -2.898  -3.106  0.00  0.00    -0.005 A 
ATOM      3  C   UNL     1      -6.052  -2.572  -3.280  0.00  0.00    +0.019 A 
ATOM      4  C   UNL     1      -5.271  -2.219  -2.173  0.00  0.00    +0.023 A 
ATOM      5  C   UNL     1      -3.859  -1.865  -2.329  0.00  0.00    -0.013 A 
ATOM      6  C   UNL     1      -3.154  -1.531  -1.217  0.00  0.00    +0.097 A 
ATOM      7  C   UNL     1      -3.789  -1.533   0.042  0.00  0.00    +0.338 A 
ATOM      8  O   UNL     1      -3.146  -1.232   1.032  0.00  0.00    -0.245 OA
ATOM      9  O   UNL     1      -5.084  -1.859   0.179  0.00  0.00    -0.422 OA
ATOM     10  C   UNL     1      -5.840  -2.201  -0.886  0.00  0.00    +0.143 A 
ATOM     11  C   UNL     1      -7.177  -2.534  -0.728  0.00  0.00    +0.092 A 
ATOM     12  C   UNL     1      -7.937  -2.876  -1.835  0.00  0.00    +0.124 A 
BRANCH   2  14
ATOM     13  C   UNL     1      -8.333  -4.801  -4.367  0.00  0.00    +0.009 C 
ATOM     14  C   UNL     1      -8.207  -3.278  -4.298  0.00  0.00    +0.035 C 
ENDBRANCH   2  14
BRANCH  12  15
ATOM     15  O   UNL     1      -9.246  -3.197  -1.680  0.00  0.00    -0.506 OA
ATOM     16  H   UNL     1      -9.405  -4.137  -1.520  0.00  0.00    +0.292 HD
ENDBRANCH  12  15
ENDBRANCH   1   5
BRANCH   1  17
ATOM     17  N   UNL     1      -3.440  -0.585  -4.348  0.00  0.00    -0.325 N 
ATOM     18  C   UNL     1      -4.598  -0.273  -5.189  0.00  0.00    +0.110 C 
ATOM     19  C   UNL     1      -4.387   1.181  -5.642  0.00  0.00    +0.056 C 
ATOM     20  C   UNL     1      -3.082   1.593  -5.000  0.00  0.00    -0.023 A 
ATOM     21  C   UNL     1      -2.596   0.524  -4.263  0.00  0.00    +0.033 A 
ATOM     22  C   UNL     1      -1.393   0.670  -3.570  0.00  0.00    +0.025 A 
ATOM     23  C   UNL     1      -0.704   1.863  -3.615  0.00  0.00    +0.030 A 
ATOM     24  C   UNL     1      -1.200   2.925  -4.350  0.00  0.00    +0.105 A 
ATOM     25  C   UNL     1      -2.385   2.785  -5.047  0.00  0.00    +0.034 A 
BRANCH  24  26
ATOM     26  S   UNL     1      -0.316   4.449  -4.405  0.00  0.00    +0.056 S 
ATOM     27  O   UNL     1      -1.267   5.458  -4.717  0.00  0.00    -0.153 OA
ATOM     28  O   UNL     1       0.488   4.495  -3.235  0.00  0.00    -0.153 OA
BRANCH  26  29
ATOM     29  N   UNL     1       0.724   4.365  -5.691  0.00  0.00    -0.204 NA
ATOM     30  H   UNL     1       0.752   3.567  -6.241  0.00  0.00    +0.144 HD
ATOM     31  H   UNL     1       1.306   5.114  -5.893  0.00  0.00    +0.144 HD
ENDBRANCH  26  29
ENDBRANCH  24  26
ENDBRANCH   1  17
TORSDOF 6
