REMARK  Name = ZINC63515523
REMARK  7 active torsions:
REMARK  status: ('A' for Active; 'I' for Inactive)
REMARK    1  A    between atoms: C_1  and  O_2
REMARK    2  A    between atoms: O_2  and  C_3
REMARK    3  A    between atoms: C_6  and  N_9
REMARK    4  A    between atoms: C_11  and  C_14
REMARK    5  A    between atoms: N_16  and  C_17
REMARK    6  A    between atoms: C_17  and  C_18
REMARK    7  A    between atoms: C_18  and  C_19
REMARK                            x       y       z     vdW  Elec       q    Type
REMARK                         _______ _______ _______ _____ _____    ______ ____
ROOT
ATOM      1  C   UNL     1       3.561  -5.327  -6.228  0.00  0.00    +0.260 C 
ATOM      2  O   UNL     1       3.234  -6.350  -5.653  0.00  0.00    -0.269 OA
ATOM      3  N   UNL     1       4.228  -5.395  -7.397  0.00  0.00    -0.310 N 
ATOM      4  H   UNL     1       4.488  -4.581  -7.855  0.00  0.00    +0.149 HD
ENDROOT
BRANCH   1   7
ATOM      5  N   UNL     1       2.458  -2.457  -4.300  0.00  0.00    -0.225 N 
ATOM      6  C   UNL     1       2.569  -3.812  -4.492  0.00  0.00    +0.124 C 
ATOM      7  C   UNL     1       3.230  -4.026  -5.650  0.00  0.00    +0.120 C 
ATOM      8  N   UNL     1       3.543  -2.764  -6.201  0.00  0.00    -0.259 N 
ATOM      9  N   UNL     1       3.050  -1.816  -5.350  0.00  0.00    -0.156 NA
ATOM     10  H   UNL     1       4.017  -2.601  -7.032  0.00  0.00    +0.168 HD
ATOM     11  H   UNL     1       2.393  -1.211  -5.820  0.00  0.00    +0.168 HD
BRANCH   5  15
ATOM     12  C   UNL     1       0.606  -0.608  -1.056  0.00  0.00    +0.120 A 
ATOM     13  C   UNL     1       1.173   0.162  -2.062  0.00  0.00    +0.047 A 
ATOM     14  C   UNL     1       1.787  -0.450  -3.137  0.00  0.00    +0.028 A 
ATOM     15  C   UNL     1       1.837  -1.836  -3.211  0.00  0.00    +0.051 A 
ATOM     16  C   UNL     1       1.269  -2.606  -2.203  0.00  0.00    +0.028 A 
ATOM     17  C   UNL     1       0.660  -1.992  -1.127  0.00  0.00    +0.047 A 
BRANCH  12  19
ATOM     18  C   UNL     1      -0.017   1.425   0.010  0.00  0.00    +0.277 C 
ATOM     19  O   UNL     1       0.002  -0.004   0.002  0.00  0.00    -0.495 OA
ENDBRANCH  12  19
ENDBRANCH   5  15
ENDBRANCH   1   7
BRANCH   3  20
ATOM     20  C   UNL     1       4.560  -6.699  -7.976  0.00  0.00    +0.109 C 
BRANCH  20  21
ATOM     21  C   UNL     1       5.311  -6.496  -9.294  0.00  0.00    +0.052 C 
BRANCH  21  22
ATOM     22  C   UNL     1       5.652  -7.838  -9.890  0.00  0.00    -0.040 C 
ATOM     23  C   UNL     1       4.946  -8.517 -10.821  0.00  0.00    +0.002 A 
ATOM     24  C   UNL     1       3.695  -8.222 -11.531  0.00  0.00    +0.048 A 
ATOM     25  C   UNL     1       3.223  -9.118 -12.430  0.00  0.00    +0.124 A 
ATOM     26  C   UNL     1       3.898 -10.319 -12.698  0.00  0.00    +0.040 A 
ATOM     27  C   UNL     1       5.052 -10.658 -12.085  0.00  0.00    +0.029 A 
ATOM     28  C   UNL     1       5.638  -9.790 -11.123  0.00  0.00    +0.043 A 
ATOM     29  N   UNL     1       6.730  -9.894 -10.406  0.00  0.00    -0.380 N 
ATOM     30  C   UNL     1       6.858  -8.693  -9.572  0.00  0.00    +0.144 C 
ATOM     31  F   UNL     1       2.072  -8.849 -13.084  0.00  0.00    -0.205 F 
ATOM     32  H   UNL     1       7.352 -10.638 -10.426  0.00  0.00    +0.160 HD
ENDBRANCH  21  22
ENDBRANCH  20  21
ENDBRANCH   3  20
TORSDOF 6
