REMARK  Name = ZINC13077365
REMARK  7 active torsions:
REMARK  status: ('A' for Active; 'I' for Inactive)
REMARK    1  A    between atoms: C_1  and  C_2
REMARK    2  A    between atoms: C_5  and  C_8
REMARK    3  A    between atoms: C_11  and  C_18
REMARK    4  A    between atoms: C_21  and  O_24
REMARK    5  A    between atoms: O_24  and  C_25
REMARK    6  A    between atoms: C_25  and  C_27
REMARK    7  A    between atoms: C_25  and  C_28
REMARK                            x       y       z     vdW  Elec       q    Type
REMARK                         _______ _______ _______ _____ _____    ______ ____
ROOT
ATOM      1  C   UNL     1      -4.698  -1.999   6.669  0.00  0.00    +0.167 C 
ATOM      2  C   UNL     1      -3.762  -1.661   5.540  0.00  0.00    +0.028 C 
ATOM      3  C   UNL     1      -2.445  -1.799   5.617  0.00  0.00    +0.039 C 
ATOM      4  N   UNL     1      -1.813  -2.260   6.780  0.00  0.00    -0.282 N 
ATOM      5  C   UNL     1      -2.582  -2.325   7.932  0.00  0.00    +0.240 A 
ATOM      6  N   UNL     1      -3.934  -2.199   7.895  0.00  0.00    -0.202 N 
ATOM      7  N   UNL     1      -4.355  -2.307   9.219  0.00  0.00    -0.042 NA
ATOM      8  N   UNL     1      -3.289  -2.488   9.930  0.00  0.00    -0.021 NA
ATOM      9  N   UNL     1      -2.243  -2.501   9.177  0.00  0.00    -0.092 NA
ATOM     10  H   UNL     1      -0.879  -2.520   6.779  0.00  0.00    +0.155 HD
ENDROOT
BRANCH   1  15
ATOM     11  C   UNL     1      -7.606  -6.829   5.402  0.00  0.00    +0.044 C 
ATOM     12  C   UNL     1      -6.847  -5.569   5.732  0.00  0.00    -0.050 A 
ATOM     13  C   UNL     1      -7.532  -4.389   5.954  0.00  0.00    +0.004 A 
ATOM     14  C   UNL     1      -6.836  -3.233   6.258  0.00  0.00    +0.006 A 
ATOM     15  C   UNL     1      -5.456  -3.258   6.339  0.00  0.00    -0.019 A 
ATOM     16  C   UNL     1      -4.772  -4.438   6.112  0.00  0.00    +0.006 A 
ATOM     17  C   UNL     1      -5.468  -5.594   5.814  0.00  0.00    +0.004 A 
ENDBRANCH   1  15
BRANCH   3  18
ATOM     18  C   UNL     1      -1.617  -1.450   4.441  0.00  0.00    -0.004 A 
ATOM     19  C   UNL     1      -0.229  -1.581   4.500  0.00  0.00    +0.013 A 
ATOM     20  C   UNL     1       0.539  -1.255   3.402  0.00  0.00    +0.046 A 
ATOM     21  C   UNL     1      -0.067  -0.798   2.239  0.00  0.00    +0.122 A 
ATOM     22  C   UNL     1      -1.447  -0.661   2.179  0.00  0.00    +0.046 A 
ATOM     23  C   UNL     1      -2.222  -0.990   3.272  0.00  0.00    +0.013 A 
BRANCH  21  24
ATOM     24  O   UNL     1       0.693  -0.477   1.160  0.00  0.00    -0.478 OA
BRANCH  24  25
ATOM     25  C   UNL     1       2.111  -0.520   1.329  0.00  0.00    +0.282 C 
ATOM     26  C   UNL     1       2.609  -1.950   1.108  0.00  0.00    +0.064 C 
BRANCH  25  27
ATOM     27  C   UNL     1       2.765   0.399   0.330  0.00  0.00    +0.395 C 
ATOM     28  O   UNL     1       2.094   0.957  -0.506  0.00  0.00    -0.242 OA
ATOM     29  O   UNL     1       4.092   0.598   0.368  0.00  0.00    -0.242 OA
ENDBRANCH  25  27
ENDBRANCH  24  25
ENDBRANCH  21  24
ENDBRANCH   3  18
TORSDOF 5
