REMARK  Name = ZINC48332066
REMARK  4 active torsions:
REMARK  status: ('A' for Active; 'I' for Inactive)
REMARK    1  A    between atoms: C_3  and  C_20
REMARK    2  A    between atoms: C_6  and  C_7
REMARK    3  A    between atoms: C_7  and  N_8
REMARK    4  A    between atoms: C_15  and  C_17
REMARK                            x       y       z     vdW  Elec       q    Type
REMARK                         _______ _______ _______ _____ _____    ______ ____
ROOT
ATOM      1  N   UNL     1      -1.728  -1.014  -1.368  0.00  0.00    -0.295 N 
ATOM      2  C   UNL     1      -2.870  -1.688  -1.607  0.00  0.00    +0.306 C 
ATOM      3  O   UNL     1      -3.541  -2.095  -0.679  0.00  0.00    -0.252 OA
ATOM      4  N   UNL     1      -3.269  -1.910  -2.876  0.00  0.00    -0.247 N 
ATOM      5  C   UNL     1      -4.448  -2.605  -3.122  0.00  0.00    +0.189 A 
ATOM      6  N   UNL     1      -5.307  -3.117  -2.263  0.00  0.00    -0.126 NA
ATOM      7  N   UNL     1      -6.346  -3.728  -2.641  0.00  0.00    -0.144 NA
ATOM      8  C   UNL     1      -6.579  -3.859  -3.931  0.00  0.00    +0.107 A 
ATOM      9  S   UNL     1      -5.155  -3.008  -4.598  0.00  0.00    -0.035 S 
ATOM     10  H   UNL     1      -1.192  -0.688  -2.109  0.00  0.00    +0.151 HD
ATOM     11  H   UNL     1      -2.733  -1.585  -3.616  0.00  0.00    +0.158 HD
ENDROOT
BRANCH   8  12
ATOM     12  C   UNL     1      -7.724  -4.532  -4.643  0.00  0.00    +0.047 C 
ATOM     13  C   UNL     1      -8.907  -5.000  -3.794  0.00  0.00    +0.011 C 
ATOM     14  C   UNL     1      -7.937  -6.025  -4.384  0.00  0.00    +0.011 C 
ENDBRANCH   8  12
BRANCH   1  15
ATOM     15  C   UNL     1      -1.294  -0.772   0.010  0.00  0.00    +0.141 C 
BRANCH  15  21
ATOM     16  C   UNL     1      -0.017   1.379   0.010  0.00  0.00    +0.006 A 
ATOM     17  C   UNL     1       1.167   2.088   0.002  0.00  0.00    +0.010 A 
ATOM     18  C   UNL     1       2.384   1.407  -0.013  0.00  0.00    -0.000 A 
ATOM     19  C   UNL     1       2.397   0.012  -0.021  0.00  0.00    +0.010 A 
ATOM     20  C   UNL     1       1.206  -0.685  -0.013  0.00  0.00    +0.006 A 
ATOM     21  C   UNL     1       0.002  -0.004   0.002  0.00  0.00    -0.030 A 
BRANCH  18  22
ATOM     22  C   UNL     1       3.658   2.161  -0.022  0.00  0.00    +0.066 A 
ATOM     23  C   UNL     1       4.915   1.627  -0.042  0.00  0.00    +0.049 A 
ATOM     24  C   UNL     1       5.828   2.682  -0.043  0.00  0.00    +0.135 A 
ATOM     25  N   UNL     1       5.163   3.809  -0.025  0.00  0.00    -0.182 NA
ATOM     26  N   UNL     1       3.793   3.518  -0.017  0.00  0.00    -0.277 N 
ATOM     27  H   UNL     1       3.070   4.165  -0.007  0.00  0.00    +0.189 HD
ENDBRANCH  18  22
ENDBRANCH  15  21
ENDBRANCH   1  15
TORSDOF 4
