REMARK  Name = ZINC40124272
REMARK  11 active torsions:
REMARK  status: ('A' for Active; 'I' for Inactive)
REMARK    1  A    between atoms: C_1  and  C_2
REMARK    2  A    between atoms: C_4  and  C_14
REMARK    3  A    between atoms: C_6  and  C_13
REMARK    4  A    between atoms: C_7  and  O_8
REMARK    5  A    between atoms: O_8  and  C_9
REMARK    6  A    between atoms: C_9  and  C_10
REMARK    7  A    between atoms: C_10  and  C_11
REMARK    8  A    between atoms: C_10  and  C_12
REMARK    9  A    between atoms: C_14  and  C_16
REMARK   10  A    between atoms: C_21  and  C_23
REMARK   11  A    between atoms: C_28  and  N_29
REMARK                            x       y       z     vdW  Elec       q    Type
REMARK                         _______ _______ _______ _____ _____    ______ ____
ROOT
ATOM      1  C   UNL     1       0.317  -4.383  -2.576  0.00  0.00    +0.076 C 
ATOM      2  C   UNL     1       1.335  -5.213  -2.252  0.00  0.00    +0.249 C 
ATOM      3  C   UNL     1       0.858  -6.611  -2.310  0.00  0.00    +0.285 C 
ATOM      4  O   UNL     1       1.538  -7.590  -2.071  0.00  0.00    -0.267 OA
ATOM      5  N   UNL     1      -0.439  -6.639  -2.664  0.00  0.00    -0.298 N 
ATOM      6  C   UNL     1      -0.885  -5.254  -2.853  0.00  0.00    +0.144 C 
ATOM      7  O   UNL     1       2.591  -4.826  -1.928  0.00  0.00    -0.282 OA
ATOM      8  H   UNL     1      -0.984  -7.434  -2.773  0.00  0.00    +0.150 HD
ENDROOT
BRANCH   6   9
ATOM      9  C   UNL     1      -1.355  -5.053  -4.271  0.00  0.00    +0.008 A 
ATOM     10  C   UNL     1      -0.959  -5.933  -5.262  0.00  0.00    +0.008 A 
ATOM     11  C   UNL     1      -1.389  -5.749  -6.562  0.00  0.00    +0.000 A 
ATOM     12  C   UNL     1      -2.216  -4.685  -6.872  0.00  0.00    +0.002 A 
ATOM     13  C   UNL     1      -2.613  -3.806  -5.882  0.00  0.00    +0.033 A 
ATOM     14  C   UNL     1      -2.186  -3.993  -4.580  0.00  0.00    +0.131 A 
BRANCH  14  15
ATOM     15  N   UNL     1      -2.615  -3.055  -3.519  0.00  0.00    +0.057 N 
ATOM     16  O   UNL     1      -3.253  -2.069  -3.805  0.00  0.00    -0.126 OA
ATOM     17  O   UNL     1      -2.327  -3.275  -2.365  0.00  0.00    -0.126 OA
ENDBRANCH  14  15
ENDBRANCH   6   9
BRANCH   1  18
ATOM     18  C   UNL     1       0.370  -2.918  -2.639  0.00  0.00    +0.195 C 
ATOM     19  O   UNL     1       0.418  -2.357  -3.718  0.00  0.00    -0.287 OA
BRANCH  18  23
ATOM     20  C   UNL     1       0.701   1.493  -0.338  0.00  0.00    +0.047 C 
ATOM     21  C   UNL     1       0.523  -0.002  -0.283  0.00  0.00    -0.008 A 
ATOM     22  C   UNL     1       0.529  -0.738  -1.446  0.00  0.00    +0.018 A 
ATOM     23  C   UNL     1       0.364  -2.126  -1.394  0.00  0.00    +0.023 A 
ATOM     24  C   UNL     1       0.193  -2.760  -0.160  0.00  0.00    +0.018 A 
ATOM     25  C   UNL     1       0.188  -2.016   0.999  0.00  0.00    -0.008 A 
ATOM     26  C   UNL     1       0.358  -0.637   0.943  0.00  0.00    +0.126 A 
ATOM     27  C   UNL     1       0.004  -2.699   2.330  0.00  0.00    +0.047 C 
BRANCH  26  28
ATOM     28  O   UNL     1       0.358   0.091   2.088  0.00  0.00    -0.491 OA
BRANCH  28  29
ATOM     29  C   UNL     1      -0.903   0.586   2.542  0.00  0.00    +0.232 C 
BRANCH  29  30
ATOM     30  C   UNL     1      -0.704   1.377   3.836  0.00  0.00    +0.020 C 
ATOM     31  C   UNL     1      -2.032   2.011   4.255  0.00  0.00    +0.010 C 
ATOM     32  C   UNL     1      -0.218   0.436   4.940  0.00  0.00    +0.010 C 
ENDBRANCH  29  30
ENDBRANCH  28  29
ENDBRANCH  26  28
ENDBRANCH  18  23
ENDBRANCH   1  18
TORSDOF 7
