REMARK  Name = ZINC23762829
REMARK  10 active torsions:
REMARK  status: ('A' for Active; 'I' for Inactive)
REMARK    1  A    between atoms: C_1  and  C_2
REMARK    2  A    between atoms: C_2  and  C_3
REMARK    3  A    between atoms: C_3  and  N_4
REMARK    4  A    between atoms: C_5  and  O_24
REMARK    5  A    between atoms: C_8  and  S_9
REMARK    6  A    between atoms: S_9  and  C_10
REMARK    7  A    between atoms: C_10  and  C_12
REMARK    8  A    between atoms: C_10  and  C_13
REMARK    9  A    between atoms: N_15  and  C_16
REMARK   10  A    between atoms: C_21  and  C_22
REMARK                            x       y       z     vdW  Elec       q    Type
REMARK                         _______ _______ _______ _____ _____    ______ ____
ROOT
ATOM      1  C   UNL     1       4.854   1.479  -0.263  0.00  0.00    +0.137 C 
ATOM      2  C   UNL     1       5.306   1.005   1.120  0.00  0.00    +0.029 C 
ENDROOT
BRANCH   1   3
ATOM      3  C   UNL     1       3.545   2.215  -0.139  0.00  0.00    +0.230 C 
ATOM      4  O   UNL     1       3.530   3.428  -0.132  0.00  0.00    -0.274 OA
ATOM      5  N   UNL     1       2.391   1.526  -0.035  0.00  0.00    -0.284 N 
ATOM      6  H   UNL     1       2.410   0.429   0.034  0.00  0.00    +0.155 HD
BRANCH   5   7
ATOM      7  C   UNL     1       1.169   2.207  -0.015  0.00  0.00    +0.039 A 
ATOM      8  C   UNL     1       1.075   3.450   0.598  0.00  0.00    +0.062 A 
ATOM      9  C   UNL     1      -0.134   4.120   0.616  0.00  0.00    +0.125 A 
ATOM     10  C   UNL     1      -1.250   3.552   0.024  0.00  0.00    +0.039 A 
ATOM     11  C   UNL     1      -1.157   2.318  -0.591  0.00  0.00    +0.008 A 
ATOM     12  C   UNL     1       0.048   1.642  -0.607  0.00  0.00    -0.029 A 
ATOM     13  C   UNL     1       0.146   0.293  -1.273  0.00  0.00    +0.045 C 
ATOM     14  F   UNL     1      -0.227   5.329   1.212  0.00  0.00    -0.205 F 
ENDBRANCH   5   7
ENDBRANCH   1   3
BRANCH   1  15
ATOM     15  S   UNL     1       6.108   2.588  -0.961  0.00  0.00    -0.073 S 
BRANCH  15  20
ATOM     16  N   UNL     1       8.725   1.938  -1.689  0.00  0.00    -0.272 N 
ATOM     17  C   UNL     1       9.546   0.848  -1.698  0.00  0.00    +0.317 A 
ATOM     18  N   UNL     1       8.878  -0.168  -1.215  0.00  0.00    -0.091 NA
ATOM     19  N   UNL     1       7.592   0.279  -0.881  0.00  0.00    -0.119 NA
ATOM     20  C   UNL     1       7.518   1.553  -1.179  0.00  0.00    +0.195 A 
BRANCH  17  21
ATOM     21  O   UNL     1      10.832   0.822  -2.131  0.00  0.00    -0.479 OA
ATOM     22  H   UNL     1      11.406  -0.115  -2.093  0.00  0.00    +0.295 HD
ENDBRANCH  17  21
BRANCH  16  23
ATOM     23  C   UNL     1       9.077   3.285  -2.146  0.00  0.00    +0.128 C 
BRANCH  23  25
ATOM     24  C   UNL     1      10.021   5.492  -1.454  0.00  0.00    +0.005 C 
ATOM     25  C   UNL     1       9.654   4.086  -0.977  0.00  0.00    +0.018 C 
ENDBRANCH  23  25
ENDBRANCH  16  23
ENDBRANCH  15  20
ENDBRANCH   1  15
TORSDOF 7
