REMARK  Name = ZINC36437943
REMARK  6 active torsions:
REMARK  status: ('A' for Active; 'I' for Inactive)
REMARK    1  A    between atoms: C_6  and  O_25
REMARK    2  A    between atoms: C_7  and  C_11
REMARK    3  A    between atoms: N_13  and  N_14
REMARK    4  A    between atoms: N_14  and  C_15
REMARK    5  A    between atoms: C_15  and  N_17
REMARK    6  A    between atoms: N_17  and  C_18
REMARK                            x       y       z     vdW  Elec       q    Type
REMARK                         _______ _______ _______ _____ _____    ______ ____
ROOT
ATOM      1  C   UNL     1       2.578  -4.197  -0.044  0.00  0.00    +0.264 C 
ATOM      2  O   UNL     1       3.655  -4.760  -0.058  0.00  0.00    -0.269 OA
ATOM      3  N   UNL     1       1.440  -4.919  -0.037  0.00  0.00    -0.231 N 
ATOM      4  H   UNL     1       0.581  -4.470  -0.026  0.00  0.00    +0.173 HD
ENDROOT
BRANCH   1  11
ATOM      5  C   UNL     1      -0.016   1.356   0.009  0.00  0.00    +0.001 A 
ATOM      6  C   UNL     1       1.169   2.090   0.002  0.00  0.00    +0.001 A 
ATOM      7  C   UNL     1       2.379   1.467  -0.013  0.00  0.00    +0.008 A 
ATOM      8  C   UNL     1       2.440   0.063  -0.021  0.00  0.00    -0.014 A 
ATOM      9  C   UNL     1       3.675  -0.607  -0.037  0.00  0.00    +0.054 A 
ATOM     10  C   UNL     1       3.710  -1.970  -0.044  0.00  0.00    +0.130 A 
ATOM     11  C   UNL     1       2.516  -2.722  -0.036  0.00  0.00    +0.080 A 
ATOM     12  C   UNL     1       1.286  -2.085  -0.021  0.00  0.00    +0.025 A 
ATOM     13  C   UNL     1       1.234  -0.684  -0.013  0.00  0.00    -0.017 A 
ATOM     14  C   UNL     1       0.002  -0.004   0.002  0.00  0.00    +0.008 A 
BRANCH  10  15
ATOM     15  O   UNL     1       4.907  -2.611  -0.059  0.00  0.00    -0.506 OA
ATOM     16  H   UNL     1       5.263  -2.801   0.820  0.00  0.00    +0.292 HD
ENDBRANCH  10  15
ENDBRANCH   1  11
BRANCH   3  17
ATOM     17  N   UNL     1       1.499  -6.319  -0.045  0.00  0.00    -0.246 N 
ATOM     18  H   UNL     1       2.358  -6.768  -0.055  0.00  0.00    +0.172 HD
BRANCH  17  19
ATOM     19  C   UNL     1       0.361  -7.041  -0.037  0.00  0.00    +0.147 C 
ATOM     20  S   UNL     1       0.433  -8.752  -0.047  0.00  0.00    -0.017 S 
BRANCH  19  21
ATOM     21  N   UNL     1      -0.833  -6.417  -0.023  0.00  0.00    -0.322 N 
ATOM     22  H   UNL     1      -0.874  -5.448  -0.017  0.00  0.00    +0.148 HD
BRANCH  21  23
ATOM     23  C   UNL     1      -2.070  -7.202  -0.015  0.00  0.00    +0.075 C 
ATOM     24  C   UNL     1      -2.508  -7.503   1.437  0.00  0.00    +0.026 C 
ATOM     25  C   UNL     1      -3.906  -6.827   1.575  0.00  0.00    -0.009 C 
ATOM     26  C   UNL     1      -4.850  -7.697   0.690  0.00  0.00    +0.004 C 
ATOM     27  C   UNL     1      -4.412  -7.396  -0.761  0.00  0.00    +0.005 C 
ATOM     28  C   UNL     1      -3.245  -6.372  -0.617  0.00  0.00    +0.010 C 
ATOM     29  C   UNL     1      -3.715  -5.573   0.650  0.00  0.00    +0.009 C 
ENDBRANCH  21  23
ENDBRANCH  19  21
ENDBRANCH  17  19
ENDBRANCH   3  17
TORSDOF 6
