REMARK  Name = ZINC48752439
REMARK  7 active torsions:
REMARK  status: ('A' for Active; 'I' for Inactive)
REMARK    1  A    between atoms: C_1  and  N_2
REMARK    2  A    between atoms: N_2  and  C_3
REMARK    3  A    between atoms: N_2  and  C_4
REMARK    4  A    between atoms: C_4  and  C_9
REMARK    5  A    between atoms: C_9  and  N_10
REMARK    6  A    between atoms: C_11  and  C_13
REMARK    7  A    between atoms: N_15  and  C_16
REMARK                            x       y       z     vdW  Elec       q    Type
REMARK                         _______ _______ _______ _____ _____    ______ ____
ROOT
ATOM      1  C   UNL     1      -3.481   3.439   1.669  0.00  0.00    +0.303 C 
ATOM      2  O   UNL     1      -2.965   4.042   0.752  0.00  0.00    -0.265 OA
ATOM      3  N   UNL     1      -4.261   4.093   2.553  0.00  0.00    -0.278 N 
ATOM      4  H   UNL     1      -4.615   3.627   3.326  0.00  0.00    +0.155 HD
ENDROOT
BRANCH   3   5
ATOM      5  C   UNL     1      -4.561   5.445   2.353  0.00  0.00    +0.038 A 
ATOM      6  C   UNL     1      -4.719   6.289   3.445  0.00  0.00    +0.027 A 
ATOM      7  C   UNL     1      -5.016   7.625   3.250  0.00  0.00    +0.051 A 
ATOM      8  C   UNL     1      -5.157   8.124   1.967  0.00  0.00    +0.167 A 
ATOM      9  C   UNL     1      -4.998   7.279   0.869  0.00  0.00    +0.169 A 
ATOM     10  C   UNL     1      -4.696   5.943   1.063  0.00  0.00    +0.073 A 
ATOM     11  O   UNL     1      -5.185   8.015  -0.272  0.00  0.00    -0.447 OA
ATOM     12  C   UNL     1      -5.936   9.154   0.174  0.00  0.00    +0.254 C 
ATOM     13  O   UNL     1      -5.446   9.382   1.503  0.00  0.00    -0.448 OA
ATOM     14  C   UNL     1      -7.440   8.860   0.179  0.00  0.00    +0.093 C 
ATOM     15  C   UNL     1      -8.086  10.213  -0.217  0.00  0.00    +0.008 C 
ATOM     16  C   UNL     1      -7.091  10.780  -1.262  0.00  0.00    +0.008 C 
ATOM     17  C   UNL     1      -5.702  10.367  -0.726  0.00  0.00    +0.093 C 
ENDBRANCH   3   5
BRANCH   1  19
ATOM     18  N   UNL     1      -2.472   1.316   0.938  0.00  0.00    -0.309 N 
ATOM     19  C   UNL     1      -3.252   1.971   1.820  0.00  0.00    +0.299 C 
ATOM     20  O   UNL     1      -3.768   1.367   2.738  0.00  0.00    -0.265 OA
ATOM     21  H   UNL     1      -2.060   1.799   0.204  0.00  0.00    +0.149 HD
BRANCH  18  22
ATOM     22  C   UNL     1      -2.248  -0.124   1.085  0.00  0.00    +0.093 C 
BRANCH  22  23
ATOM     23  C   UNL     1      -1.429  -0.637  -0.101  0.00  0.00    -0.050 C 
ATOM     24  C   UNL     1      -2.211  -0.426  -1.414  0.00  0.00    -0.010 C 
ATOM     25  C   UNL     1      -1.877  -1.679  -2.261  0.00  0.00    -0.001 C 
ATOM     26  C   UNL     1      -1.847  -2.809  -1.202  0.00  0.00    -0.001 C 
ATOM     27  C   UNL     1      -1.198  -2.152   0.034  0.00  0.00    -0.010 C 
BRANCH  23  29
ATOM     28  C   UNL     1       0.629  -0.212   1.056  0.00  0.00    -0.096 C 
ATOM     29  N   UNL     1      -0.140   0.065  -0.164  0.00  0.00    +0.381 N 
ATOM     30  C   UNL     1       0.614  -0.401  -1.335  0.00  0.00    -0.096 C 
ATOM     31  H   UNL     1      -0.302   1.058  -0.242  0.00  0.00    -0.082 HD
ENDBRANCH  23  29
ENDBRANCH  22  23
ENDBRANCH  18  22
ENDBRANCH   1  19
TORSDOF 5
