REMARK  Name = ZINC49877013
REMARK  8 active torsions:
REMARK  status: ('A' for Active; 'I' for Inactive)
REMARK    1  A    between atoms: C_1  and  C_2
REMARK    2  A    between atoms: N_4  and  C_21
REMARK    3  A    between atoms: C_7  and  C_19
REMARK    4  A    between atoms: C_8  and  C_9
REMARK    5  A    between atoms: C_12  and  C_15
REMARK    6  A    between atoms: C_15  and  C_16
REMARK    7  A    between atoms: C_15  and  C_17
REMARK    8  A    between atoms: C_15  and  C_18
REMARK                            x       y       z     vdW  Elec       q    Type
REMARK                         _______ _______ _______ _____ _____    ______ ____
ROOT
ATOM      1  C   UNL     1      -0.018   1.503   0.010  0.00  0.00    +0.046 C 
ATOM      2  C   UNL     1       0.002  -0.004   0.002  0.00  0.00    -0.025 A 
ATOM      3  C   UNL     1       0.006  -0.674  -1.173  0.00  0.00    +0.092 A 
ATOM      4  N   UNL     1       0.024  -2.031  -1.213  0.00  0.00    -0.317 N 
ATOM      5  C   UNL     1       0.040  -2.764  -0.084  0.00  0.00    +0.269 A 
ATOM      6  O   UNL     1       0.057  -3.982  -0.148  0.00  0.00    -0.266 OA
ATOM      7  C   UNL     1       0.037  -2.119   1.178  0.00  0.00    +0.124 A 
ATOM      8  C   UNL     1       0.023  -0.715   1.217  0.00  0.00    +0.009 A 
ATOM      9  C   UNL     1       0.027  -2.711  -2.510  0.00  0.00    +0.152 C 
ENDROOT
BRANCH   8  10
ATOM     10  C   UNL     1       0.025   0.003   2.511  0.00  0.00    -0.016 A 
ATOM     11  C   UNL     1      -1.079   0.769   2.889  0.00  0.00    +0.009 A 
ATOM     12  C   UNL     1      -1.071   1.436   4.097  0.00  0.00    +0.005 A 
ATOM     13  C   UNL     1       0.029   1.347   4.932  0.00  0.00    -0.042 A 
ATOM     14  C   UNL     1       1.126   0.589   4.563  0.00  0.00    +0.005 A 
ATOM     15  C   UNL     1       1.129  -0.087   3.361  0.00  0.00    +0.009 A 
BRANCH  13  16
ATOM     16  C   UNL     1       0.031   2.078   6.250  0.00  0.00    -0.013 C 
ATOM     17  C   UNL     1      -1.132   1.582   7.111  0.00  0.00    +0.015 C 
ATOM     18  C   UNL     1       1.352   1.817   6.976  0.00  0.00    +0.015 C 
ATOM     19  C   UNL     1      -0.125   3.580   5.999  0.00  0.00    +0.015 C 
ENDBRANCH  13  16
ENDBRANCH   8  10
BRANCH   7  20
ATOM     20  C   UNL     1       0.053  -2.884   2.388  0.00  0.00    +0.105 C 
ATOM     21  N   UNL     1       0.066  -3.490   3.349  0.00  0.00    -0.191 NA
ENDBRANCH   7  20
TORSDOF 3
