REMARK  Name = ZINC66492474
REMARK  4 active torsions:
REMARK  status: ('A' for Active; 'I' for Inactive)
REMARK    1  A    between atoms: C_1  and  C_2
REMARK    2  A    between atoms: C_5  and  C_26
REMARK    3  A    between atoms: N_13  and  C_14
REMARK    4  A    between atoms: C_14  and  C_15
REMARK                            x       y       z     vdW  Elec       q    Type
REMARK                         _______ _______ _______ _____ _____    ______ ____
ROOT
ATOM      1  C   UNL     1      -0.120   1.347  -0.480  0.00  0.00    +0.028 C 
ATOM      2  C   UNL     1      -0.008  -0.113  -0.036  0.00  0.00    +0.072 C 
ATOM      3  C   UNL     1      -1.410  -0.699   0.181  0.00  0.00    +0.039 C 
ATOM      4  C   UNL     1      -1.275  -2.175   0.555  0.00  0.00    +0.108 C 
ATOM      5  C   UNL     1      -0.302  -2.344   1.692  0.00  0.00    -0.014 A 
ATOM      6  C   UNL     1      -0.356  -3.499   2.454  0.00  0.00    +0.006 A 
ATOM      7  C   UNL     1       0.525  -3.684   3.502  0.00  0.00    +0.000 A 
ATOM      8  C   UNL     1       1.468  -2.716   3.796  0.00  0.00    +0.002 A 
ATOM      9  C   UNL     1       1.528  -1.562   3.042  0.00  0.00    +0.023 A 
ATOM     10  C   UNL     1       0.642  -1.373   1.988  0.00  0.00    +0.034 A 
ATOM     11  N   UNL     1       0.715  -0.192   1.240  0.00  0.00    -0.321 N 
ENDROOT
BRANCH   4  12
ATOM     12  C   UNL     1      -2.621  -2.707   0.974  0.00  0.00    +0.218 C 
ATOM     13  O   UNL     1      -3.380  -2.006   1.609  0.00  0.00    -0.275 OA
ATOM     14  N   UNL     1      -2.982  -3.963   0.644  0.00  0.00    -0.329 N 
ATOM     15  H   UNL     1      -2.348  -4.549   0.201  0.00  0.00    +0.145 HD
ATOM     16  H   UNL     1      -3.875  -4.281   0.849  0.00  0.00    +0.145 HD
ENDBRANCH   4  12
BRANCH  11  17
ATOM     17  C   UNL     1       1.499   0.948   1.723  0.00  0.00    +0.158 C 
BRANCH  17  18
ATOM     18  C   UNL     1       2.868   0.919   1.092  0.00  0.00    +0.040 A 
ATOM     19  C   UNL     1       3.250   1.914   0.259  0.00  0.00    +0.095 A 
ATOM     20  C   UNL     1       4.530   1.884  -0.329  0.00  0.00    +0.275 A 
ATOM     21  O   UNL     1       4.879   2.778  -1.079  0.00  0.00    -0.266 OA
ATOM     22  N   UNL     1       5.368   0.864  -0.059  0.00  0.00    -0.180 N 
ATOM     23  C   UNL     1       4.976  -0.137   0.782  0.00  0.00    +0.138 A 
ATOM     24  N   UNL     1       3.722  -0.106   1.364  0.00  0.00    -0.342 N 
ATOM     25  H   UNL     1       3.449  -0.818   1.964  0.00  0.00    +0.167 HD
ATOM     26  C   UNL     1       6.008  -1.022   0.872  0.00  0.00    +0.068 A 
ATOM     27  C   UNL     1       7.048  -0.550   0.069  0.00  0.00    +0.137 A 
ATOM     28  N   UNL     1       6.669   0.574  -0.487  0.00  0.00    -0.170 NA
ENDBRANCH  17  18
ENDBRANCH  11  17
TORSDOF 3
