REMARK  Name = ZINC67188972
REMARK  10 active torsions:
REMARK  status: ('A' for Active; 'I' for Inactive)
REMARK    1  A    between atoms: C_1  and  C_2
REMARK    2  A    between atoms: N_5  and  C_8
REMARK    3  A    between atoms: C_8  and  C_9
REMARK    4  A    between atoms: C_9  and  C_10
REMARK    5  A    between atoms: C_10  and  C_11
REMARK    6  A    between atoms: C_11  and  N_12
REMARK    7  A    between atoms: N_12  and  C_13
REMARK    8  A    between atoms: C_13  and  C_14
REMARK    9  A    between atoms: N_16  and  C_23
REMARK   10  A    between atoms: N_19  and  C_22
REMARK                            x       y       z     vdW  Elec       q    Type
REMARK                         _______ _______ _______ _____ _____    ______ ____
ROOT
ATOM      1  N   UNL     1       3.762  -7.756   2.306  0.00  0.00    +0.382 N 
ATOM      2  H   UNL     1       2.854  -8.186   2.389  0.00  0.00    -0.085 HD
ATOM      3  H   UNL     1       4.194  -8.045   1.441  0.00  0.00    -0.085 HD
ENDROOT
BRANCH   1   4
ATOM      4  C   UNL     1       3.614  -6.294   2.315  0.00  0.00    -0.082 C 
BRANCH   4   5
ATOM      5  C   UNL     1       2.736  -5.863   1.138  0.00  0.00    -0.021 C 
BRANCH   5   6
ATOM      6  C   UNL     1       2.582  -4.341   1.147  0.00  0.00    -0.020 C 
BRANCH   6   7
ATOM      7  C   UNL     1       1.704  -3.911  -0.029  0.00  0.00    -0.079 C 
BRANCH   7  12
ATOM      8  C   UNL     1      -0.019   1.526   0.010  0.00  0.00    +0.007 C 
ATOM      9  C   UNL     1       0.002  -0.004   0.002  0.00  0.00    -0.018 C 
ATOM     10  C   UNL     1       0.727  -0.499  -1.252  0.00  0.00    -0.016 C 
ATOM     11  C   UNL     1       0.814  -2.027  -1.215  0.00  0.00    -0.079 C 
ATOM     12  N   UNL     1       1.556  -2.449  -0.021  0.00  0.00    +0.380 N 
ATOM     13  C   UNL     1       0.829  -2.040   1.187  0.00  0.00    -0.079 C 
ATOM     14  C   UNL     1       0.743  -0.513   1.242  0.00  0.00    -0.016 C 
ATOM     15  H   UNL     1       2.469  -2.020  -0.024  0.00  0.00    -0.082 HD
ENDBRANCH   7  12
ENDBRANCH   6   7
ENDBRANCH   5   6
ENDBRANCH   4   5
ENDBRANCH   1   4
BRANCH   1  16
ATOM     16  C   UNL     1       4.605  -8.169   3.436  0.00  0.00    -0.040 C 
BRANCH  16  17
ATOM     17  C   UNL     1       4.757  -9.668   3.426  0.00  0.00    +0.016 A 
ATOM     18  C   UNL     1       5.830 -10.244   2.843  0.00  0.00    +0.097 A 
ATOM     19  N   UNL     1       5.953 -11.607   2.844  0.00  0.00    -0.303 N 
ATOM     20  C   UNL     1       5.014 -12.379   3.420  0.00  0.00    +0.331 A 
ATOM     21  O   UNL     1       5.142 -13.588   3.409  0.00  0.00    -0.246 OA
ATOM     22  N   UNL     1       3.934 -11.832   4.009  0.00  0.00    -0.264 N 
ATOM     23  C   UNL     1       3.780 -10.492   4.035  0.00  0.00    +0.258 A 
ATOM     24  O   UNL     1       2.806  -9.996   4.572  0.00  0.00    -0.267 OA
ATOM     25  C   UNL     1       2.926 -12.694   4.630  0.00  0.00    +0.157 C 
ATOM     26  C   UNL     1       7.117 -12.231   2.211  0.00  0.00    +0.153 C 
ENDBRANCH  16  17
ENDBRANCH   1  16
TORSDOF 7
