REMARK  Name = ZINC28642070
REMARK  6 active torsions:
REMARK  status: ('A' for Active; 'I' for Inactive)
REMARK    1  A    between atoms: C_1  and  C_2
REMARK    2  A    between atoms: C_8  and  C_10
REMARK    3  A    between atoms: N_15  and  C_20
REMARK    4  A    between atoms: C_18  and  C_19
REMARK    5  A    between atoms: C_20  and  C_21
REMARK    6  A    between atoms: C_20  and  C_22
REMARK                            x       y       z     vdW  Elec       q    Type
REMARK                         _______ _______ _______ _____ _____    ______ ____
ROOT
ATOM      1  C   UNL     1      -3.507  -1.353  -0.218  0.00  0.00    +0.059 A 
ATOM      2  C   UNL     1      -3.287  -2.726  -0.338  0.00  0.00    +0.028 A 
ATOM      3  C   UNL     1      -4.356  -3.585  -0.076  0.00  0.00    +0.039 A 
ATOM      4  C   UNL     1      -4.520  -5.036  -0.088  0.00  0.00    +0.144 A 
ATOM      5  N   UNL     1      -5.754  -5.295   0.237  0.00  0.00    -0.177 NA
ATOM      6  N   UNL     1      -6.449  -4.105   0.473  0.00  0.00    -0.244 N 
ATOM      7  C   UNL     1      -5.608  -3.045   0.286  0.00  0.00    +0.159 A 
ATOM      8  N   UNL     1      -5.766  -1.729   0.381  0.00  0.00    -0.232 NA
ATOM      9  C   UNL     1      -4.781  -0.894   0.146  0.00  0.00    +0.053 A 
ATOM     10  C   UNL     1      -5.023   0.588   0.271  0.00  0.00    +0.066 C 
ENDROOT
BRANCH   1  18
ATOM     11  C   UNL     1       3.443   0.507  -1.692  0.00  0.00    +0.066 C 
ATOM     12  C   UNL     1       1.990   0.795  -1.413  0.00  0.00    +0.047 A 
ATOM     13  C   UNL     1       1.531   2.070  -1.376  0.00  0.00    +0.071 A 
ATOM     14  S   UNL     1      -0.197   1.790  -1.017  0.00  0.00    -0.060 S 
ATOM     15  C   UNL     1      -0.136   0.056  -0.954  0.00  0.00    +0.165 A 
ATOM     16  N   UNL     1       1.137  -0.187  -1.199  0.00  0.00    -0.230 NA
ATOM     17  N   UNL     1      -1.165  -0.846  -0.710  0.00  0.00    -0.261 N 
ATOM     18  C   UNL     1      -2.414  -0.396  -0.479  0.00  0.00    +0.251 C 
ATOM     19  O   UNL     1      -2.641   0.799  -0.485  0.00  0.00    -0.270 OA
ATOM     20  H   UNL     1      -0.960  -1.926  -0.704  0.00  0.00    +0.157 HD
ENDBRANCH   1  18
BRANCH   6  21
ATOM     21  C   UNL     1      -7.859  -4.010   0.861  0.00  0.00    +0.103 C 
ATOM     22  C   UNL     1      -8.730  -4.648  -0.223  0.00  0.00    +0.032 C 
ATOM     23  C   UNL     1      -8.074  -4.744   2.186  0.00  0.00    +0.032 C 
ENDBRANCH   6  21
TORSDOF 2
