REMARK  Name = ZINC08640102
REMARK  4 active torsions:
REMARK  status: ('A' for Active; 'I' for Inactive)
REMARK    1  A    between atoms: C_3  and  N_8
REMARK    2  A    between atoms: C_9  and  C_11
REMARK    3  A    between atoms: C_11  and  S_12
REMARK    4  A    between atoms: S_12  and  C_13
REMARK                            x       y       z     vdW  Elec       q    Type
REMARK                         _______ _______ _______ _____ _____    ______ ____
ROOT
ATOM      1  C   UNL     1       3.765   3.030  -0.009  0.00  0.00    +0.170 A 
ATOM      2  N   UNL     1       4.378   1.814  -0.020  0.00  0.00    -0.301 N 
ATOM      3  H   UNL     1       5.347   1.784  -0.030  0.00  0.00    +0.171 HD
ATOM      4  C   UNL     1       3.695   0.645  -0.018  0.00  0.00    +0.261 A 
ATOM      5  O   UNL     1       4.261  -0.435  -0.026  0.00  0.00    -0.267 OA
ATOM      6  C   UNL     1       2.266   0.755  -0.003  0.00  0.00    +0.075 A 
ATOM      7  C   UNL     1       1.311  -0.341   0.002  0.00  0.00    -0.023 A 
ATOM      8  C   UNL     1       0.001  -0.004   0.015  0.00  0.00    -0.004 A 
ATOM      9  S   UNL     1      -0.023   1.771   0.022  0.00  0.00    -0.073 S 
ATOM     10  C   UNL     1       1.719   2.058   0.007  0.00  0.00    +0.117 A 
ATOM     11  N   UNL     1       2.446   3.168   0.004  0.00  0.00    -0.216 NA
ATOM     12  C   UNL     1      -1.175  -0.931   0.021  0.00  0.00    +0.043 C 
ATOM     13  C   UNL     1      -0.688  -2.336  -0.363  0.00  0.00    +0.005 C 
ATOM     14  C   UNL     1       0.559  -2.665   0.463  0.00  0.00    +0.005 C 
ATOM     15  C   UNL     1       1.734  -1.808  -0.007  0.00  0.00    +0.037 C 
ENDROOT
BRANCH   1  16
ATOM     16  S   UNL     1       4.766   4.480  -0.013  0.00  0.00    -0.078 S 
BRANCH  16  17
ATOM     17  C   UNL     1       3.478   5.752   0.004  0.00  0.00    +0.173 C 
BRANCH  17  19
ATOM     18  N   UNL     1       3.348   8.222   0.016  0.00  0.00    -0.270 N 
ATOM     19  C   UNL     1       4.118   7.116   0.004  0.00  0.00    +0.229 C 
ATOM     20  O   UNL     1       5.326   7.218  -0.007  0.00  0.00    -0.275 OA
ATOM     21  H   UNL     1       2.383   8.142  -0.050  0.00  0.00    +0.156 HD
BRANCH  18  24
ATOM     22  C   UNL     1       3.732  11.852   0.352  0.00  0.00    +0.025 A 
ATOM     23  C   UNL     1       3.134  10.609   0.241  0.00  0.00    +0.045 A 
ATOM     24  C   UNL     1       3.937   9.481   0.122  0.00  0.00    +0.125 A 
ATOM     25  N   UNL     1       5.256   9.591   0.104  0.00  0.00    -0.239 NA
ATOM     26  C   UNL     1       5.855  10.762   0.202  0.00  0.00    +0.132 A 
ATOM     27  C   UNL     1       5.119  11.925   0.329  0.00  0.00    +0.059 A 
ATOM     28 CL   UNL     1       5.919  13.460   0.458  0.00  0.00    -0.082 Cl
ENDBRANCH  18  24
ENDBRANCH  17  19
ENDBRANCH  16  17
ENDBRANCH   1  16
TORSDOF 4
