REMARK  Name = ZINC01445436
REMARK  12 active torsions:
REMARK  status: ('A' for Active; 'I' for Inactive)
REMARK    1  A    between atoms: C_1  and  C_2
REMARK    2  A    between atoms: C_2  and  C_29
REMARK    3  A    between atoms: C_4  and  C_6
REMARK    4  A    between atoms: C_4  and  C_14
REMARK    5  A    between atoms: C_4  and  N_60
REMARK    6  A    between atoms: C_6  and  O_7
REMARK    7  A    between atoms: O_7  and  C_8
REMARK    8  A    between atoms: C_14  and  C_15
REMARK    9  A    between atoms: C_14  and  C_16
REMARK   10  A    between atoms: C_14  and  C_17
REMARK   11  A    between atoms: N_21  and  C_22
REMARK   12  A    between atoms: C_22  and  C_23
REMARK                            x       y       z     vdW  Elec       q    Type
REMARK                         _______ _______ _______ _____ _____    ______ ____
ROOT
ATOM      1  C   UNL     1      -0.717   6.503   2.408  0.00  0.00    +0.039 C 
ATOM      2  C   UNL     1      -0.982   5.541   1.248  0.00  0.00    +0.085 C 
ATOM      3  C   UNL     1       0.250   4.705   0.959  0.00  0.00    +0.097 C 
ATOM      4  N   UNL     1      -0.136   3.401   1.176  0.00  0.00    -0.285 N 
ATOM      5  C   UNL     1      -1.419   3.336   1.552  0.00  0.00    +0.139 C 
ATOM      6  S   UNL     1      -2.231   1.871   1.905  0.00  0.00    -0.018 S 
ATOM      7  N   UNL     1      -2.002   4.546   1.618  0.00  0.00    -0.296 N 
ATOM      8  C   UNL     1      -1.415   6.309  -0.001  0.00  0.00    +0.039 C 
ATOM      9  H   UNL     1       0.445   2.632   1.070  0.00  0.00    +0.155 HD
ATOM     10  N   UNL     1       1.423   5.196   0.580  0.00  0.00    -0.368 N 
ATOM     11  H   UNL     1       1.542   6.209   0.465  0.00  0.00    +0.161 HD
ENDROOT
BRANCH  10  12
ATOM     12  C   UNL     1       2.577   4.268   0.320  0.00  0.00    +0.123 C 
BRANCH  12  13
ATOM     13  C   UNL     1       3.721   4.648   1.263  0.00  0.00    -0.014 C 
ATOM     14  C   UNL     1       3.328   4.310   2.703  0.00  0.00    +0.013 C 
ATOM     15  C   UNL     1       4.978   3.865   0.881  0.00  0.00    +0.013 C 
ATOM     16  C   UNL     1       3.999   6.148   1.149  0.00  0.00    +0.013 C 
ENDBRANCH  12  13
BRANCH  12  17
ATOM     17  C   UNL     1       3.028   4.456  -1.130  0.00  0.00    +0.254 C 
BRANCH  17  18
ATOM     18  O   UNL     1       3.453   5.806  -1.325  0.00  0.00    -0.490 OA
BRANCH  18  19
ATOM     19  C   UNL     1       3.888   6.143  -2.568  0.00  0.00    +0.121 A 
ATOM     20  C   UNL     1       3.910   5.191  -3.577  0.00  0.00    +0.045 A 
ATOM     21  C   UNL     1       4.347   5.537  -4.841  0.00  0.00    +0.004 A 
ATOM     22  C   UNL     1       4.773   6.827  -5.098  0.00  0.00    +0.000 A 
ATOM     23  C   UNL     1       4.757   7.776  -4.092  0.00  0.00    +0.004 A 
ATOM     24  C   UNL     1       4.316   7.437  -2.828  0.00  0.00    +0.045 A 
ENDBRANCH  18  19
ENDBRANCH  17  18
ENDBRANCH  12  17
ENDBRANCH  10  12
BRANCH   7  25
ATOM     25  C   UNL     1      -3.391   4.822   1.990  0.00  0.00    +0.142 C 
BRANCH  25  26
ATOM     26  C   UNL     1      -3.481   5.030   3.480  0.00  0.00    -0.030 A 
ATOM     27  C   UNL     1      -3.719   3.955   4.315  0.00  0.00    +0.005 A 
ATOM     28  C   UNL     1      -3.797   4.145   5.682  0.00  0.00    +0.000 A 
ATOM     29  C   UNL     1      -3.645   5.412   6.213  0.00  0.00    +0.000 A 
ATOM     30  C   UNL     1      -3.411   6.488   5.378  0.00  0.00    +0.000 A 
ATOM     31  C   UNL     1      -3.329   6.297   4.011  0.00  0.00    +0.005 A 
ENDBRANCH  25  26
ENDBRANCH   7  25
TORSDOF 7
