REMARK  Name = ZINC40456730
REMARK  3 active torsions:
REMARK  status: ('A' for Active; 'I' for Inactive)
REMARK    1  A    between atoms: C_13  and  S_16
REMARK    2  A    between atoms: S_16  and  C_17
REMARK    3  A    between atoms: C_17  and  C_18
REMARK                            x       y       z     vdW  Elec       q    Type
REMARK                         _______ _______ _______ _____ _____    ______ ____
ROOT
ATOM      1  C   UNL     1      -0.017   1.383   0.010  0.00  0.00    +0.017 A 
ATOM      2  C   UNL     1       1.161   2.099   0.002  0.00  0.00    +0.027 A 
ATOM      3  C   UNL     1       2.382   1.434  -0.013  0.00  0.00    +0.050 A 
ATOM      4  C   UNL     1       2.400   0.030  -0.021  0.00  0.00    +0.030 A 
ATOM      5  C   UNL     1       1.203  -0.682  -0.014  0.00  0.00    +0.027 A 
ATOM      6  C   UNL     1       0.002  -0.004   0.002  0.00  0.00    +0.019 A 
ATOM      7 BR   UNL     1      -1.624  -0.969   0.012  0.00  0.00    -0.050 Br
ATOM      8  C   UNL     1       3.818  -0.367  -0.036  0.00  0.00    +0.137 A 
ATOM      9  C   UNL     1       4.565   0.830  -0.037  0.00  0.00    +0.162 A 
ATOM     10  N   UNL     1       3.691   1.888  -0.023  0.00  0.00    -0.338 N 
ATOM     11  H   UNL     1       3.953   2.822  -0.021  0.00  0.00    +0.167 HD
ATOM     12  N   UNL     1       5.892   0.746  -0.051  0.00  0.00    -0.201 NA
ATOM     13  C   UNL     1       6.466  -0.450  -0.064  0.00  0.00    +0.212 A 
ATOM     14  N   UNL     1       5.741  -1.563  -0.063  0.00  0.00    -0.122 NA
ATOM     15  N   UNL     1       4.453  -1.530  -0.049  0.00  0.00    -0.143 NA
ENDROOT
BRANCH  13  16
ATOM     16  S   UNL     1       8.225  -0.563  -0.084  0.00  0.00    -0.075 S 
BRANCH  16  17
ATOM     17  C   UNL     1       8.549  -2.348  -0.097  0.00  0.00    +0.173 C 
BRANCH  17  18
ATOM     18  C   UNL     1      10.037  -2.588  -0.114  0.00  0.00    +0.229 C 
ATOM     19  O   UNL     1      10.803  -1.648  -0.117  0.00  0.00    -0.275 OA
ATOM     20  N   UNL     1      10.516  -3.848  -0.126  0.00  0.00    -0.264 N 
ATOM     21  C   UNL     1      11.888  -4.069  -0.142  0.00  0.00    +0.164 A 
ATOM     22  N   UNL     1      12.859  -3.182  -0.141  0.00  0.00    -0.233 NA
ATOM     23  C   UNL     1      14.125  -3.556  -0.158  0.00  0.00    +0.120 A 
ATOM     24  C   UNL     1      14.374  -4.889  -0.175  0.00  0.00    +0.068 A 
ATOM     25  S   UNL     1      12.710  -5.537  -0.159  0.00  0.00    -0.061 S 
ATOM     26  H   UNL     1       9.903  -4.600  -0.124  0.00  0.00    +0.157 HD
ENDBRANCH  17  18
ENDBRANCH  16  17
ENDBRANCH  13  16
TORSDOF 3
