REMARK  Name = ZINC12711600
REMARK  12 active torsions:
REMARK  status: ('A' for Active; 'I' for Inactive)
REMARK    1  A    between atoms: C_1  and  C_2
REMARK    2  A    between atoms: C_2  and  O_3
REMARK    3  A    between atoms: O_3  and  C_4
REMARK    4  A    between atoms: C_8  and  C_10
REMARK    5  A    between atoms: C_10  and  N_68
REMARK    6  A    between atoms: C_11  and  C_12
REMARK    7  A    between atoms: C_11  and  N_68
REMARK    8  A    between atoms: C_12  and  O_13
REMARK    9  A    between atoms: O_13  and  C_14
REMARK   10  A    between atoms: C_15  and  C_16
REMARK   11  A    between atoms: C_15  and  N_68
REMARK   12  A    between atoms: C_22  and  N_70
REMARK                            x       y       z     vdW  Elec       q    Type
REMARK                         _______ _______ _______ _____ _____    ______ ____
ROOT
ATOM      1  C   UNL     1       0.975   5.566   1.582  0.00  0.00    -0.077 C 
ENDROOT
BRANCH   1   2
ATOM      2  C   UNL     1       0.743   5.924   3.051  0.00  0.00    -0.044 C 
ATOM      3  C   UNL     1      -0.472   5.156   3.579  0.00  0.00    -0.002 C 
ATOM      4  C   UNL     1      -0.733   5.566   5.031  0.00  0.00    -0.018 C 
ATOM      5  C   UNL     1      -0.950   7.079   5.098  0.00  0.00    -0.078 C 
ATOM      6  C   UNL     1       0.484   7.428   3.176  0.00  0.00    -0.077 C 
ATOM      7  N   UNL     1       0.264   7.760   4.599  0.00  0.00    +0.382 N 
ATOM      8  H   UNL     1       1.073   7.441   5.145  0.00  0.00    -0.081 HD
BRANCH   7   9
ATOM      9  C   UNL     1       0.124   9.222   4.760  0.00  0.00    -0.060 C 
ATOM     10  C   UNL     1       1.486   9.913   4.532  0.00  0.00    +0.020 C 
ATOM     11  C   UNL     1       1.514  11.061   5.523  0.00  0.00    -0.046 A 
ATOM     12  C   UNL     1       2.318  12.188   5.565  0.00  0.00    +0.004 A 
ATOM     13  C   UNL     1       2.162  13.117   6.575  0.00  0.00    +0.000 A 
ATOM     14  C   UNL     1       1.199  12.921   7.548  0.00  0.00    +0.000 A 
ATOM     15  C   UNL     1       0.396  11.799   7.508  0.00  0.00    +0.004 A 
ATOM     16  C   UNL     1       0.552  10.866   6.495  0.00  0.00    -0.046 A 
ATOM     17  C   UNL     1      -0.189   9.573   6.230  0.00  0.00    +0.020 C 
ENDBRANCH   7   9
ENDBRANCH   1   2
BRANCH   1  18
ATOM     18  N   UNL     1       1.262   4.120   1.482  0.00  0.00    +0.384 N 
ATOM     19  H   UNL     1       0.481   3.595   1.893  0.00  0.00    -0.081 HD
BRANCH  18  20
ATOM     20  C   UNL     1       1.407   3.731   0.063  0.00  0.00    -0.043 C 
BRANCH  20  25
ATOM     21  C   UNL     1       0.385   0.105  -0.233  0.00  0.00    +0.121 A 
ATOM     22  C   UNL     1       1.616  -0.532  -0.183  0.00  0.00    +0.045 A 
ATOM     23  C   UNL     1       2.772   0.211  -0.054  0.00  0.00    +0.004 A 
ATOM     24  C   UNL     1       2.704   1.590   0.026  0.00  0.00    +0.002 A 
ATOM     25  C   UNL     1       1.478   2.228  -0.024  0.00  0.00    -0.060 A 
ATOM     26  C   UNL     1       0.318   1.488  -0.153  0.00  0.00    +0.047 A 
BRANCH  21  27
ATOM     27  O   UNL     1      -0.755  -0.625  -0.361  0.00  0.00    -0.492 OA
BRANCH  27  29
ATOM     28  C   UNL     1      -1.991  -2.690  -0.578  0.00  0.00    +0.048 C 
ATOM     29  C   UNL     1      -0.611  -2.044  -0.438  0.00  0.00    +0.225 C 
ENDBRANCH  27  29
ENDBRANCH  21  27
ENDBRANCH  20  25
ENDBRANCH  18  20
BRANCH  18  30
ATOM     30  C   UNL     1       2.500   3.798   2.223  0.00  0.00    -0.050 C 
BRANCH  30  31
ATOM     31  C   UNL     1       3.716   4.415   1.529  0.00  0.00    +0.141 C 
BRANCH  31  32
ATOM     32  O   UNL     1       3.650   5.839   1.630  0.00  0.00    -0.385 OA
ATOM     33  C   UNL     1       4.799   6.512   1.111  0.00  0.00    +0.193 C 
ENDBRANCH  31  32
ENDBRANCH  30  31
ENDBRANCH  18  30
ENDBRANCH   1  18
TORSDOF 10
