REMARK  Name = ZINC04145314
REMARK  4 active torsions:
REMARK  status: ('A' for Active; 'I' for Inactive)
REMARK    1  A    between atoms: C_1  and  N_2
REMARK    2  A    between atoms: C_5  and  C_10
REMARK    3  A    between atoms: N_17  and  C_19
REMARK    4  A    between atoms: C_19  and  C_20
REMARK                            x       y       z     vdW  Elec       q    Type
REMARK                         _______ _______ _______ _____ _____    ______ ____
ROOT
ATOM      1  C   UNL     1      -7.690   0.458   2.231  0.00  0.00    +0.139 C 
ATOM      2  N   UNL     1      -7.724   1.496   1.198  0.00  0.00    -0.260 N 
ATOM      3  C   UNL     1      -6.646   1.617   0.368  0.00  0.00    +0.042 C 
ATOM      4  C   UNL     1      -6.614   2.551  -0.604  0.00  0.00    +0.058 C 
ATOM      5  C   UNL     1      -7.815   3.465  -0.743  0.00  0.00    +0.142 C 
ATOM      6  N   UNL     1      -8.926   3.255   0.200  0.00  0.00    -0.288 N 
ATOM      7  C   UNL     1      -8.810   2.276   1.120  0.00  0.00    +0.307 C 
ATOM      8  O   UNL     1      -9.722   2.095   1.904  0.00  0.00    -0.252 OA
ATOM      9  C   UNL     1      -5.402   2.472  -1.320  0.00  0.00    +0.247 C 
ATOM     10  O   UNL     1      -5.105   3.196  -2.252  0.00  0.00    -0.270 OA
ATOM     11  N   UNL     1      -4.617   1.492  -0.839  0.00  0.00    -0.290 N 
ATOM     12  C   UNL     1      -5.342   0.858   0.272  0.00  0.00    +0.159 C 
ATOM     13  H   UNL     1      -9.722   3.808   0.161  0.00  0.00    +0.151 HD
ENDROOT
BRANCH   5  14
ATOM     14  C   UNL     1      -8.357   3.310  -2.141  0.00  0.00    -0.016 A 
ATOM     15  C   UNL     1      -8.056   4.241  -3.117  0.00  0.00    +0.013 A 
ATOM     16  C   UNL     1      -8.560   4.071  -4.364  0.00  0.00    +0.045 A 
ATOM     17  S   UNL     1      -9.492   2.559  -4.184  0.00  0.00    -0.105 S 
ATOM     18  C   UNL     1      -9.142   2.252  -2.461  0.00  0.00    +0.051 A 
ENDBRANCH   5  14
BRANCH  11  19
ATOM     19  C   UNL     1      -3.289   1.120  -1.334  0.00  0.00    +0.140 C 
BRANCH  19  20
ATOM     20  C   UNL     1      -2.223   1.924  -0.587  0.00  0.00    +0.136 C 
ATOM     21  C   UNL     1      -0.833   1.634  -1.185  0.00  0.00    +0.035 C 
ATOM     22  C   UNL     1      -0.013   1.086   0.008  0.00  0.00    +0.031 C 
ATOM     23  C   UNL     1      -0.810   1.621   1.224  0.00  0.00    +0.160 C 
ATOM     24  O   UNL     1      -2.186   1.524   0.793  0.00  0.00    -0.375 OA
ENDBRANCH  19  20
ENDBRANCH  11  19
TORSDOF 3
