REMARK  Name = ZINC33657756
REMARK  7 active torsions:
REMARK  status: ('A' for Active; 'I' for Inactive)
REMARK    1  A    between atoms: C_1  and  C_2
REMARK    2  A    between atoms: C_2  and  C_4
REMARK    3  A    between atoms: C_7  and  O_10
REMARK    4  A    between atoms: O_10  and  C_11
REMARK    5  A    between atoms: C_13  and  O_33
REMARK    6  A    between atoms: C_15  and  O_32
REMARK    7  A    between atoms: C_24  and  C_27
REMARK                            x       y       z     vdW  Elec       q    Type
REMARK                         _______ _______ _______ _____ _____    ______ ____
ROOT
ATOM      1  C   UNL     1       2.166   1.450  -1.210  0.00  0.00    +0.339 C 
ATOM      2  C   UNL     1       1.431   2.031  -0.001  0.00  0.00    +0.214 C 
ATOM      3  C   UNL     1      -0.021   1.537   0.007  0.00  0.00    +0.180 C 
ATOM      4  C   UNL     1      -0.013   0.008  -0.005  0.00  0.00    +0.184 C 
ATOM      5  C   UNL     1       0.744  -0.467  -1.252  0.00  0.00    +0.179 C 
ATOM      6  O   UNL     1       2.083   0.021  -1.194  0.00  0.00    -0.331 OA
ATOM      7  C   UNL     1       0.714  -1.996  -1.282  0.00  0.00    +0.197 C 
ATOM      8  O   UNL     1      -0.654  -2.421  -1.233  0.00  0.00    -0.342 OA
ATOM      9  C   UNL     1      -1.378  -1.946  -0.097  0.00  0.00    +0.319 C 
ATOM     10  O   UNL     1      -1.340  -0.515  -0.053  0.00  0.00    -0.336 OA
ENDROOT
BRANCH   9  11
ATOM     11  C   UNL     1      -2.811  -2.402  -0.192  0.00  0.00    +0.161 A 
ATOM     12  C   UNL     1      -3.228  -3.680  -0.242  0.00  0.00    +0.050 A 
ATOM     13  C   UNL     1      -4.639  -3.648  -0.326  0.00  0.00    +0.041 A 
ATOM     14  C   UNL     1      -5.000  -2.352  -0.321  0.00  0.00    +0.195 A 
ATOM     15  O   UNL     1      -3.889  -1.602  -0.234  0.00  0.00    -0.463 OA
ENDBRANCH   9  11
BRANCH   3  16
ATOM     16  O   UNL     1      -0.681   2.004   1.186  0.00  0.00    -0.386 OA
ATOM     17  H   UNL     1      -1.736   1.746   1.364  0.00  0.00    +0.210 HD
ENDBRANCH   3  16
BRANCH   2  18
ATOM     18  O   UNL     1       1.447   3.458  -0.074  0.00  0.00    -0.383 OA
ATOM     19  H   UNL     1       0.964   4.054   0.714  0.00  0.00    +0.210 HD
ENDBRANCH   2  18
BRANCH   1  20
ATOM     20  O   UNL     1       1.567   1.947  -2.409  0.00  0.00    -0.461 OA
BRANCH  20  24
ATOM     21  C   UNL     1       3.402   0.957  -5.966  0.00  0.00    +0.017 A 
ATOM     22  C   UNL     1       2.246   1.746  -5.968  0.00  0.00    +0.015 A 
ATOM     23  C   UNL     1       1.639   2.073  -4.783  0.00  0.00    +0.046 A 
ATOM     24  C   UNL     1       2.171   1.621  -3.579  0.00  0.00    +0.124 A 
ATOM     25  C   UNL     1       3.323   0.841  -3.571  0.00  0.00    +0.046 A 
ATOM     26  C   UNL     1       3.933   0.504  -4.752  0.00  0.00    +0.015 A 
BRANCH  21  28
ATOM     27  C   UNL     1       5.367  -0.139  -7.223  0.00  0.00    +0.091 C 
ATOM     28  C   UNL     1       4.057   0.605  -7.233  0.00  0.00    +0.160 C 
ATOM     29  O   UNL     1       3.542   0.912  -8.287  0.00  0.00    -0.292 OA
ENDBRANCH  21  28
ENDBRANCH  20  24
ENDBRANCH   1  20
TORSDOF 6
