REMARK  Name = ZINC20204138
REMARK  8 active torsions:
REMARK  status: ('A' for Active; 'I' for Inactive)
REMARK    1  A    between atoms: C_1  and  N_2
REMARK    2  A    between atoms: C_5  and  N_8
REMARK    3  A    between atoms: C_11  and  C_14
REMARK    4  A    between atoms: C_14  and  N_15
REMARK    5  A    between atoms: N_15  and  C_16
REMARK    6  A    between atoms: N_15  and  C_23
REMARK    7  A    between atoms: C_16  and  C_17
REMARK    8  A    between atoms: C_23  and  C_24
REMARK                            x       y       z     vdW  Elec       q    Type
REMARK                         _______ _______ _______ _____ _____    ______ ____
ROOT
ATOM      1  N   UNL     1      -3.116   1.024   1.834  0.00  0.00    +0.385 N 
ATOM      2  H   UNL     1      -2.993   2.019   2.285  0.00  0.00    -0.081 HD
ENDROOT
BRANCH   1   3
ATOM      3  C   UNL     1      -4.470   0.549   2.151  0.00  0.00    -0.075 C 
BRANCH   3   7
ATOM      4  N   UNL     1      -7.469   3.376   3.282  0.00  0.00    +0.382 N 
ATOM      5  C   UNL     1      -7.851   2.385   2.267  0.00  0.00    -0.078 C 
ATOM      6  C   UNL     1      -6.876   1.206   2.311  0.00  0.00    -0.017 C 
ATOM      7  C   UNL     1      -5.456   1.714   2.048  0.00  0.00    -0.031 C 
ATOM      8  C   UNL     1      -5.101   2.778   3.089  0.00  0.00    -0.017 C 
ATOM      9  C   UNL     1      -6.127   3.912   3.022  0.00  0.00    -0.078 C 
ATOM     10  H   UNL     1      -7.443   2.865   4.256  0.00  0.00    -0.081 HD
BRANCH   4  15
ATOM     11  C   UNL     1      -9.916   8.476   3.325  0.00  0.00    +0.104 C 
ATOM     12  N   UNL     1      -9.068   7.278   3.274  0.00  0.00    -0.305 NA
ATOM     13  C   UNL     1      -9.100   6.556   4.553  0.00  0.00    +0.082 C 
ATOM     14  C   UNL     1      -8.098   5.400   4.512  0.00  0.00    +0.000 C 
ATOM     15  C   UNL     1      -8.461   4.456   3.362  0.00  0.00    -0.066 C 
ATOM     16  C   UNL     1      -8.469   5.243   2.049  0.00  0.00    +0.000 C 
ATOM     17  C   UNL     1      -9.460   6.403   2.161  0.00  0.00    +0.082 C 
ENDBRANCH   4  15
ENDBRANCH   3   7
ENDBRANCH   1   3
BRANCH   1  18
ATOM     18  C   UNL     1      -2.932   1.159   0.383  0.00  0.00    -0.042 C 
BRANCH  18  19
ATOM     19  C   UNL     1      -3.612   2.417  -0.094  0.00  0.00    -0.061 A 
ATOM     20  C   UNL     1      -3.162   3.664   0.310  0.00  0.00    +0.021 A 
ATOM     21  C   UNL     1      -3.808   4.795  -0.152  0.00  0.00    +0.111 A 
ATOM     22  N   UNL     1      -4.843   4.697  -0.963  0.00  0.00    -0.263 NA
ATOM     23  C   UNL     1      -5.301   3.528  -1.364  0.00  0.00    +0.111 A 
ATOM     24  C   UNL     1      -4.706   2.353  -0.943  0.00  0.00    +0.021 A 
ENDBRANCH  18  19
ENDBRANCH   1  18
BRANCH   1  25
ATOM     25  C   UNL     1      -2.098   0.137   2.413  0.00  0.00    -0.038 C 
BRANCH  25  26
ATOM     26  C   UNL     1      -0.742   0.783   2.292  0.00  0.00    -0.010 A 
ATOM     27  C   UNL     1      -0.406   1.847   3.112  0.00  0.00    +0.126 A 
ATOM     28  C   UNL     1       0.841   2.439   3.000  0.00  0.00    +0.038 A 
ATOM     29  C   UNL     1       1.748   1.969   2.070  0.00  0.00    +0.004 A 
ATOM     30  C   UNL     1       1.413   0.907   1.252  0.00  0.00    +0.020 A 
ATOM     31  C   UNL     1       0.170   0.310   1.366  0.00  0.00    +0.045 A 
ATOM     32 CL   UNL     1      -0.248  -1.029   0.343  0.00  0.00    -0.083 Cl
ATOM     33  F   UNL     1      -1.293   2.306   4.021  0.00  0.00    -0.205 F 
ENDBRANCH  25  26
ENDBRANCH   1  25
TORSDOF 7
