REMARK  Name = ZINC67264280
REMARK  1 active torsions:
REMARK  status: ('A' for Active; 'I' for Inactive)
REMARK    1  A    between atoms: N_22  and  C_25
REMARK                            x       y       z     vdW  Elec       q    Type
REMARK                         _______ _______ _______ _____ _____    ______ ____
ROOT
ATOM      1  C   UNL     1       2.349   1.437  -0.007  0.00  0.00    +0.005 A 
ATOM      2  C   UNL     1       1.106   2.058  -0.001  0.00  0.00    +0.018 A 
ATOM      3  C   UNL     1      -0.036   1.283  -0.005  0.00  0.00    +0.084 A 
ATOM      4  N   UNL     1       0.040  -0.035  -0.015  0.00  0.00    -0.350 N 
ATOM      5  C   UNL     1       1.205  -0.663  -0.021  0.00  0.00    +0.099 A 
ATOM      6  C   UNL     1       2.397   0.055  -0.018  0.00  0.00    +0.042 A 
ATOM      7  N   UNL     1       1.238  -2.053  -0.031  0.00  0.00    -0.314 N 
ATOM      8  C   UNL     1       2.513  -2.769  -0.174  0.00  0.00    +0.125 C 
ATOM      9  C   UNL     1       2.667  -3.737   1.006  0.00  0.00    +0.127 C 
ATOM     10  N   UNL     1       1.428  -4.516   1.139  0.00  0.00    -0.297 N 
ATOM     11  C   UNL     1       0.153  -3.799   1.283  0.00  0.00    +0.127 C 
ATOM     12  C   UNL     1      -0.000  -2.832   0.108  0.00  0.00    +0.125 C 
ATOM     13  C   UNL     1       1.462  -5.895   1.129  0.00  0.00    +0.220 A 
ATOM     14  N   UNL     1       2.636  -6.505   1.002  0.00  0.00    -0.222 NA
ATOM     15  C   UNL     1       2.728  -7.824   0.987  0.00  0.00    +0.131 A 
ATOM     16  C   UNL     1       1.558  -8.571   1.107  0.00  0.00    +0.102 A 
ATOM     17  C   UNL     1       0.320  -7.891   1.241  0.00  0.00    +0.175 A 
ATOM     18  N   UNL     1       0.323  -6.559   1.252  0.00  0.00    -0.194 NA
ATOM     19  N   UNL     1      -0.809  -8.609   1.359  0.00  0.00    -0.173 NA
ATOM     20  C   UNL     1      -0.793  -9.919   1.352  0.00  0.00    +0.358 A 
ATOM     21  O   UNL     1      -1.965 -10.575   1.474  0.00  0.00    -0.244 OA
ATOM     22  N   UNL     1       0.350 -10.651   1.228  0.00  0.00    -0.227 N 
ATOM     23  C   UNL     1       1.550 -10.035   1.102  0.00  0.00    +0.272 A 
ATOM     24  O   UNL     1       2.581 -10.674   0.990  0.00  0.00    -0.266 OA
ATOM     25  H   UNL     1      -0.779  -0.556  -0.017  0.00  0.00    +0.166 HD
ENDROOT
BRANCH  22  26
ATOM     26  C   UNL     1       0.283 -12.051   1.231  0.00  0.00    +0.055 A 
ATOM     27  C   UNL     1       0.847 -12.772   2.275  0.00  0.00    +0.029 A 
ATOM     28  C   UNL     1       0.780 -14.152   2.276  0.00  0.00    +0.040 A 
ATOM     29  C   UNL     1       0.151 -14.816   1.235  0.00  0.00    +0.124 A 
ATOM     30  C   UNL     1      -0.411 -14.099   0.193  0.00  0.00    +0.040 A 
ATOM     31  C   UNL     1      -0.351 -12.719   0.192  0.00  0.00    +0.029 A 
ATOM     32  F   UNL     1       0.087 -16.165   1.238  0.00  0.00    -0.205 F 
ENDBRANCH  22  26
TORSDOF 1
