REMARK  Name = ZINC39792082
REMARK  8 active torsions:
REMARK  status: ('A' for Active; 'I' for Inactive)
REMARK    1  A    between atoms: C_1  and  C_2
REMARK    2  A    between atoms: C_2  and  C_3
REMARK    3  A    between atoms: C_2  and  C_4
REMARK    4  A    between atoms: C_2  and  C_5
REMARK    5  A    between atoms: C_7  and  C_11
REMARK    6  A    between atoms: C_11  and  S_12
REMARK    7  A    between atoms: S_12  and  C_13
REMARK    8  A    between atoms: C_17  and  C_19
REMARK                            x       y       z     vdW  Elec       q    Type
REMARK                         _______ _______ _______ _____ _____    ______ ____
ROOT
ATOM      1  S   UNL     1       2.046  -3.623  -1.718  0.00  0.00    -0.083 S 
ENDROOT
BRANCH   1   2
ATOM      2  C   UNL     1       2.294  -5.345  -2.002  0.00  0.00    +0.167 A 
ATOM      3  N   UNL     1       2.764  -6.240  -1.089  0.00  0.00    -0.339 N 
ATOM      4  H   UNL     1       3.020  -6.046  -0.174  0.00  0.00    +0.167 HD
ATOM      5  C   UNL     1       2.808  -7.467  -1.705  0.00  0.00    +0.113 A 
ATOM      6  C   UNL     1       2.364  -7.288  -2.974  0.00  0.00    +0.090 A 
ATOM      7  N   UNL     1       2.051  -5.977  -3.125  0.00  0.00    -0.222 NA
BRANCH   6   8
ATOM      8  C   UNL     1       2.238  -8.341  -4.011  0.00  0.00    +0.002 A 
ATOM      9  C   UNL     1       2.586  -9.658  -3.717  0.00  0.00    +0.011 A 
ATOM     10  C   UNL     1       2.467 -10.633  -4.686  0.00  0.00    +0.016 A 
ATOM     11  C   UNL     1       2.002 -10.306  -5.948  0.00  0.00    +0.018 A 
ATOM     12  C   UNL     1       1.655  -8.999  -6.245  0.00  0.00    +0.016 A 
ATOM     13  C   UNL     1       1.766  -8.017  -5.282  0.00  0.00    +0.011 A 
ATOM     14 BR   UNL     1       1.841 -11.647  -7.271  0.00  0.00    -0.050 Br
ENDBRANCH   6   8
ENDBRANCH   1   2
BRANCH   1  15
ATOM     15  C   UNL     1       1.407  -3.006  -3.299  0.00  0.00    +0.133 C 
BRANCH  15  18
ATOM     16  C   UNL     1       0.707  -0.490  -1.238  0.00  0.00    +0.108 C 
ATOM     17  N   UNL     1       0.160  -1.232  -2.137  0.00  0.00    -0.345 N 
ATOM     18  C   UNL     1       1.145  -1.502  -3.191  0.00  0.00    +0.253 C 
ATOM     19  O   UNL     1       2.337  -0.815  -2.778  0.00  0.00    -0.247 OA
ATOM     20  N   UNL     1       2.003  -0.193  -1.548  0.00  0.00    -0.251 N 
ATOM     21  H   UNL     1       2.599   0.353  -1.012  0.00  0.00    +0.195 HD
ATOM     22  H   UNL     1      -0.754  -1.558  -2.120  0.00  0.00    +0.163 HD
BRANCH  16  24
ATOM     23  C   UNL     1      -0.019   1.526   0.010  0.00  0.00    +0.018 C 
ATOM     24  C   UNL     1       0.002  -0.004   0.002  0.00  0.00    +0.020 C 
ATOM     25  C   UNL     1       0.742  -0.511   1.242  0.00  0.00    +0.018 C 
ATOM     26  C   UNL     1      -1.433  -0.534   0.013  0.00  0.00    +0.018 C 
ENDBRANCH  16  24
ENDBRANCH  15  18
ENDBRANCH   1  15
TORSDOF 5
