REMARK  Name = ZINC67078938
REMARK  7 active torsions:
REMARK  status: ('A' for Active; 'I' for Inactive)
REMARK    1  A    between atoms: C_1  and  C_2
REMARK    2  A    between atoms: C_5  and  N_22
REMARK    3  A    between atoms: C_7  and  C_8
REMARK    4  A    between atoms: N_10  and  C_11
REMARK    5  A    between atoms: C_11  and  C_12
REMARK    6  A    between atoms: C_12  and  C_13
REMARK    7  A    between atoms: N_17  and  C_18
REMARK                            x       y       z     vdW  Elec       q    Type
REMARK                         _______ _______ _______ _____ _____    ______ ____
ROOT
ATOM      1  C   UNL     1       1.514   0.162   2.440  0.00  0.00    +0.244 C 
ATOM      2  O   UNL     1       1.354   1.367   2.463  0.00  0.00    -0.270 OA
ATOM      3  N   UNL     1       1.518  -0.539   3.591  0.00  0.00    -0.311 N 
ATOM      4  H   UNL     1       1.645  -1.501   3.572  0.00  0.00    +0.149 HD
ENDROOT
BRANCH   1  11
ATOM      5  C   UNL     1       1.227   1.634  -0.034  0.00  0.00    +0.044 C 
ATOM      6  C   UNL     1       1.567   0.166  -0.051  0.00  0.00    -0.038 A 
ATOM      7  C   UNL     1       1.750  -0.488  -1.252  0.00  0.00    +0.006 A 
ATOM      8  C   UNL     1       2.062  -1.836  -1.268  0.00  0.00    +0.033 A 
ATOM      9  C   UNL     1       2.193  -2.537  -0.082  0.00  0.00    +0.127 A 
ATOM     10  C   UNL     1       2.013  -1.894   1.125  0.00  0.00    +0.046 A 
ATOM     11  C   UNL     1       1.703  -0.533   1.149  0.00  0.00    +0.042 A 
BRANCH   9  12
ATOM     12  N   UNL     1       2.526  -3.978  -0.109  0.00  0.00    +0.056 N 
ATOM     13  O   UNL     1       2.684  -4.542  -1.167  0.00  0.00    -0.126 OA
ATOM     14  O   UNL     1       2.641  -4.592   0.926  0.00  0.00    -0.126 OA
ENDBRANCH   9  12
ENDBRANCH   1  11
BRANCH   3  15
ATOM     15  C   UNL     1       1.330   0.150   4.870  0.00  0.00    +0.112 C 
BRANCH  15  16
ATOM     16  C   UNL     1       1.377  -0.869   6.010  0.00  0.00    +0.095 C 
BRANCH  16  17
ATOM     17  C   UNL     1       1.184  -0.160   7.326  0.00  0.00    +0.134 A 
ATOM     18  N   UNL     1       1.000   1.113   7.476  0.00  0.00    -0.158 NA
ATOM     19  N   UNL     1       0.864   1.375   8.846  0.00  0.00    -0.254 N 
ATOM     20  C   UNL     1       0.976   0.197   9.493  0.00  0.00    +0.176 A 
ATOM     21  N   UNL     1       1.168  -0.758   8.561  0.00  0.00    -0.304 N 
ATOM     22  S   UNL     1       0.884  -0.042  11.186  0.00  0.00    -0.011 S 
ATOM     23  H   UNL     1       0.717   2.244   9.253  0.00  0.00    +0.191 HD
BRANCH  21  24
ATOM     24  C   UNL     1       1.335  -2.190   8.823  0.00  0.00    +0.091 C 
ATOM     25  C   UNL     1       1.663  -2.613  10.256  0.00  0.00    +0.027 C 
ATOM     26  C   UNL     1       0.272  -2.881   9.678  0.00  0.00    +0.027 C 
ENDBRANCH  21  24
ENDBRANCH  16  17
ENDBRANCH  15  16
ENDBRANCH   3  15
TORSDOF 6
