REMARK  Name = ZINC45411299
REMARK  4 active torsions:
REMARK  status: ('A' for Active; 'I' for Inactive)
REMARK    1  A    between atoms: C_2  and  C_3
REMARK    2  A    between atoms: C_3  and  N_4
REMARK    3  A    between atoms: C_14  and  C_16
REMARK    4  A    between atoms: C_16  and  N_17
REMARK                            x       y       z     vdW  Elec       q    Type
REMARK                         _______ _______ _______ _____ _____    ______ ____
ROOT
ATOM      1  N   UNL     1      -1.318  -1.700  -1.126  0.00  0.00    -0.245 N 
ATOM      2  C   UNL     1      -0.818  -2.989  -0.984  0.00  0.00    +0.168 A 
ATOM      3  N   UNL     1      -0.296  -3.550   0.084  0.00  0.00    -0.229 NA
ATOM      4  C   UNL     1       0.145  -4.805   0.075  0.00  0.00    +0.054 A 
ATOM      5  C   UNL     1       0.013  -5.448  -1.113  0.00  0.00    +0.014 A 
ATOM      6  S   UNL     1      -0.742  -4.216  -2.137  0.00  0.00    -0.057 S 
ATOM      7  C   UNL     1       0.412  -6.846  -1.442  0.00  0.00    +0.044 C 
ATOM      8  C   UNL     1       1.339  -7.356  -0.327  0.00  0.00    +0.006 C 
ATOM      9  C   UNL     1       0.711  -7.023   1.029  0.00  0.00    +0.006 C 
ATOM     10  C   UNL     1       0.757  -5.514   1.275  0.00  0.00    +0.056 C 
ATOM     11  C   UNL     1      -1.825  -1.300  -2.309  0.00  0.00    +0.241 C 
ATOM     12  O   UNL     1      -1.845  -2.065  -3.250  0.00  0.00    -0.273 OA
ENDROOT
BRANCH   1  13
ATOM     13  C   UNL     1      -1.293  -0.775   0.010  0.00  0.00    +0.142 C 
BRANCH  13  15
ATOM     14  C   UNL     1      -0.016   1.306   0.009  0.00  0.00    +0.005 C 
ATOM     15  C   UNL     1       0.002  -0.004   0.002  0.00  0.00    -0.015 C 
ENDBRANCH  13  15
ENDBRANCH   1  13
BRANCH  11  16
ATOM     16  C   UNL     1      -2.366   0.098  -2.463  0.00  0.00    +0.222 C 
BRANCH  16  17
ATOM     17  N   UNL     1      -2.855   0.284  -3.831  0.00  0.00    -0.287 N 
ATOM     18  C   UNL     1      -2.012   0.741  -4.791  0.00  0.00    +0.203 A 
ATOM     19  N   UNL     1      -2.405   0.921  -6.021  0.00  0.00    -0.233 NA
ATOM     20  C   UNL     1      -3.669   0.660  -6.391  0.00  0.00    +0.124 A 
ATOM     21  C   UNL     1      -4.406   0.754  -7.660  0.00  0.00    +0.046 A 
ATOM     22  C   UNL     1      -4.066   1.149  -8.952  0.00  0.00    +0.014 A 
ATOM     23  C   UNL     1      -5.018   1.120  -9.948  0.00  0.00    +0.001 A 
ATOM     24  C   UNL     1      -6.309   0.699  -9.666  0.00  0.00    +0.004 A 
ATOM     25  C   UNL     1      -6.659   0.306  -8.393  0.00  0.00    +0.047 A 
ATOM     26  C   UNL     1      -5.713   0.327  -7.373  0.00  0.00    +0.138 A 
ATOM     27  O   UNL     1      -5.775   0.004  -6.064  0.00  0.00    -0.448 OA
ATOM     28  C   UNL     1      -4.585   0.189  -5.456  0.00  0.00    +0.219 A 
ATOM     29  C   UNL     1      -4.140  -0.005  -4.129  0.00  0.00    +0.297 A 
ATOM     30  O   UNL     1      -4.901  -0.420  -3.271  0.00  0.00    -0.264 OA
ENDBRANCH  16  17
ENDBRANCH  11  16
TORSDOF 4
