REMARK  Name = ZINC67078278
REMARK  10 active torsions:
REMARK  status: ('A' for Active; 'I' for Inactive)
REMARK    1  A    between atoms: C_1  and  C_2
REMARK    2  A    between atoms: C_2  and  N_3
REMARK    3  A    between atoms: C_4  and  C_9
REMARK    4  A    between atoms: C_9  and  C_10
REMARK    5  A    between atoms: C_10  and  N_11
REMARK    6  A    between atoms: C_12  and  C_14
REMARK    7  A    between atoms: C_15  and  C_16
REMARK    8  A    between atoms: C_19  and  S_22
REMARK    9  A    between atoms: S_22  and  N_25
REMARK   10  A    between atoms: N_25  and  C_26
REMARK                            x       y       z     vdW  Elec       q    Type
REMARK                         _______ _______ _______ _____ _____    ______ ____
ROOT
ATOM      1  N   UNL     1      -3.055  -0.841  -4.479  0.00  0.00    -0.311 N 
ATOM      2  C   UNL     1      -3.517  -1.133  -5.712  0.00  0.00    +0.237 C 
ATOM      3  O   UNL     1      -2.749  -1.516  -6.574  0.00  0.00    -0.271 OA
ATOM      4  H   UNL     1      -3.667  -0.535  -3.792  0.00  0.00    +0.149 HD
ENDROOT
BRANCH   2   5
ATOM      5  C   UNL     1      -4.943  -0.989  -6.012  0.00  0.00    +0.068 C 
ATOM      6  C   UNL     1      -5.405  -1.281  -7.244  0.00  0.00    +0.013 C 
BRANCH   6   7
ATOM      7  C   UNL     1      -6.839  -1.136  -7.546  0.00  0.00    -0.025 A 
ATOM      8  C   UNL     1      -7.723  -0.691  -6.559  0.00  0.00    +0.010 A 
ATOM      9  C   UNL     1      -9.065  -0.558  -6.849  0.00  0.00    +0.029 A 
ATOM     10  C   UNL     1      -9.536  -0.864  -8.114  0.00  0.00    +0.105 A 
ATOM     11  C   UNL     1      -8.667  -1.306  -9.096  0.00  0.00    +0.029 A 
ATOM     12  C   UNL     1      -7.322  -1.438  -8.823  0.00  0.00    +0.010 A 
BRANCH  10  13
ATOM     13  S   UNL     1     -11.252  -0.691  -8.475  0.00  0.00    +0.058 S 
ATOM     14  O   UNL     1     -11.527  -1.560  -9.566  0.00  0.00    -0.153 OA
ATOM     15  O   UNL     1     -11.940  -0.784  -7.235  0.00  0.00    -0.153 OA
BRANCH  13  16
ATOM     16  N   UNL     1     -11.483   0.852  -9.029  0.00  0.00    -0.193 NA
ATOM     17  C   UNL     1     -10.871   1.276 -10.291  0.00  0.00    +0.127 C 
ATOM     18  H   UNL     1     -12.023   1.475  -8.519  0.00  0.00    +0.148 HD
ENDBRANCH  13  16
ENDBRANCH  10  13
ENDBRANCH   6   7
ENDBRANCH   2   5
BRANCH   1  19
ATOM     19  C   UNL     1      -1.629  -0.985  -4.179  0.00  0.00    +0.112 C 
BRANCH  19  20
ATOM     20  C   UNL     1      -1.372  -0.593  -2.723  0.00  0.00    +0.095 C 
BRANCH  20  22
ATOM     21  N   UNL     1       0.688  -0.476  -1.203  0.00  0.00    -0.307 N 
ATOM     22  C   UNL     1       0.096  -0.741  -2.414  0.00  0.00    +0.133 A 
ATOM     23  N   UNL     1       1.004  -1.138  -3.245  0.00  0.00    -0.159 NA
ATOM     24  N   UNL     1       2.236  -1.141  -2.577  0.00  0.00    -0.254 N 
ATOM     25  C   UNL     1       2.009  -0.721  -1.315  0.00  0.00    +0.176 A 
ATOM     26  S   UNL     1       3.182  -0.536  -0.082  0.00  0.00    -0.011 S 
ATOM     27  H   UNL     1       3.094  -1.394  -2.953  0.00  0.00    +0.191 HD
BRANCH  21  29
ATOM     28  C   UNL     1      -0.019   1.526   0.010  0.00  0.00    +0.027 C 
ATOM     29  C   UNL     1       0.002  -0.004   0.002  0.00  0.00    +0.122 C 
ENDBRANCH  21  29
ENDBRANCH  20  22
ENDBRANCH  19  20
ENDBRANCH   1  19
TORSDOF 8
