REMARK  Name = ZINC21240380
REMARK  12 active torsions:
REMARK  status: ('A' for Active; 'I' for Inactive)
REMARK    1  A    between atoms: C_1  and  C_2
REMARK    2  A    between atoms: C_2  and  C_3
REMARK    3  A    between atoms: C_2  and  O_4
REMARK    4  A    between atoms: O_4  and  C_5
REMARK    5  A    between atoms: C_8  and  C_13
REMARK    6  A    between atoms: C_10  and  O_11
REMARK    7  A    between atoms: O_11  and  C_12
REMARK    8  A    between atoms: C_18  and  C_28
REMARK    9  A    between atoms: C_31  and  O_36
REMARK   10  A    between atoms: C_33  and  O_34
REMARK   11  A    between atoms: O_34  and  C_35
REMARK   12  A    between atoms: O_36  and  C_37
REMARK                            x       y       z     vdW  Elec       q    Type
REMARK                         _______ _______ _______ _____ _____    ______ ____
ROOT
ATOM      1  C   UNL     1       0.422   1.086  -0.249  0.00  0.00    +0.032 C 
ATOM      2  C   UNL     1       0.232   1.771   1.103  0.00  0.00    +0.059 C 
ATOM      3  C   UNL     1       1.260   1.256   2.095  0.00  0.00    +0.017 C 
ATOM      4  C   UNL     1       2.481   0.877   1.679  0.00  0.00    +0.037 C 
ATOM      5  C   UNL     1       3.596   0.361   2.557  0.00  0.00    +0.139 C 
ATOM      6  N   UNL     1       3.372   0.532   3.977  0.00  0.00    -0.331 N 
ATOM      7  C   UNL     1       2.332  -0.134   4.624  0.00  0.00    +0.049 A 
ATOM      8  C   UNL     1       2.577  -1.090   5.596  0.00  0.00    +0.025 A 
ATOM      9  C   UNL     1       1.513  -1.758   6.176  0.00  0.00    +0.002 A 
ATOM     10  C   UNL     1       0.215  -1.477   5.789  0.00  0.00    +0.002 A 
ATOM     11  C   UNL     1      -0.034  -0.509   4.831  0.00  0.00    +0.025 A 
ATOM     12  C   UNL     1       1.028   0.175   4.266  0.00  0.00    +0.052 A 
ATOM     13  N   UNL     1       0.845   1.236   3.387  0.00  0.00    -0.316 N 
ATOM     14  C   UNL     1       2.816   0.939   0.306  0.00  0.00    +0.163 C 
ATOM     15  O   UNL     1       3.932   0.607  -0.041  0.00  0.00    -0.292 OA
ATOM     16  C   UNL     1       1.841   1.401  -0.736  0.00  0.00    +0.088 C 
ATOM     17  H   UNL     1       4.028   1.194   4.561  0.00  0.00    +0.147 HD
ATOM     18  H   UNL     1       0.320   2.105   3.809  0.00  0.00    +0.152 HD
ENDROOT
BRANCH   1  22
ATOM     19  C   UNL     1      -2.435   2.593  -3.052  0.00  0.00    +0.162 A 
ATOM     20  C   UNL     1      -1.538   3.455  -2.442  0.00  0.00    +0.050 A 
ATOM     21  C   UNL     1      -0.616   2.965  -1.536  0.00  0.00    +0.008 A 
ATOM     22  C   UNL     1      -0.586   1.615  -1.237  0.00  0.00    -0.040 A 
ATOM     23  C   UNL     1      -1.474   0.749  -1.847  0.00  0.00    +0.053 A 
ATOM     24  C   UNL     1      -2.405   1.234  -2.751  0.00  0.00    +0.162 A 
BRANCH  24  25
ATOM     25  O   UNL     1      -3.283   0.385  -3.348  0.00  0.00    -0.491 OA
ATOM     26  C   UNL     1      -3.194  -0.996  -2.991  0.00  0.00    +0.277 C 
ENDBRANCH  24  25
BRANCH  19  27
ATOM     27  O   UNL     1      -3.343   3.073  -3.943  0.00  0.00    -0.486 OA
BRANCH  27  29
ATOM     28  C   UNL     1      -2.332   4.911  -5.144  0.00  0.00    +0.051 C 
ATOM     29  C   UNL     1      -3.390   4.490  -4.121  0.00  0.00    +0.167 C 
ATOM     30  C   UNL     1      -4.776   4.895  -4.626  0.00  0.00    +0.051 C 
ENDBRANCH  27  29
ENDBRANCH  19  27
ENDBRANCH   1  22
BRANCH   5  31
ATOM     31  C   UNL     1       3.783  -1.107   2.276  0.00  0.00    +0.019 A 
ATOM     32  C   UNL     1       2.794  -1.818   1.624  0.00  0.00    +0.013 A 
ATOM     33  C   UNL     1       2.963  -3.164   1.365  0.00  0.00    +0.046 A 
ATOM     34  C   UNL     1       4.128  -3.807   1.761  0.00  0.00    +0.124 A 
ATOM     35  C   UNL     1       5.122  -3.097   2.415  0.00  0.00    +0.091 A 
ATOM     36  C   UNL     1       4.952  -1.744   2.668  0.00  0.00    +0.129 A 
BRANCH  36  37
ATOM     37  O   UNL     1       5.927  -1.044   3.305  0.00  0.00    -0.495 OA
ATOM     38  C   UNL     1       7.104  -1.764   3.680  0.00  0.00    +0.277 C 
ENDBRANCH  36  37
BRANCH  34  39
ATOM     39  O   UNL     1       4.293  -5.132   1.506  0.00  0.00    -0.495 OA
ATOM     40  C   UNL     1       3.228  -5.800   0.827  0.00  0.00    +0.277 C 
ENDBRANCH  34  39
ENDBRANCH   5  31
TORSDOF 7
