REMARK  Name = ZINC36855091
REMARK  3 active torsions:
REMARK  status: ('A' for Active; 'I' for Inactive)
REMARK    1  A    between atoms: C_3  and  C_19
REMARK    2  A    between atoms: N_6  and  C_8
REMARK    3  A    between atoms: N_13  and  C_16
REMARK                            x       y       z     vdW  Elec       q    Type
REMARK                         _______ _______ _______ _____ _____    ______ ____
ROOT
ATOM      1  C   UNL     1       0.502   1.418  -0.166  0.00  0.00    -0.018 C 
ATOM      2  C   UNL     1       2.002   1.685  -0.320  0.00  0.00    +0.011 C 
ATOM      3  C   UNL     1       2.750   1.026   0.843  0.00  0.00    +0.086 C 
ATOM      4  C   UNL     1       2.427  -0.469   0.868  0.00  0.00    -0.063 C 
ATOM      5  N   UNL     1       0.982  -0.658   1.044  0.00  0.00    +0.388 N 
ATOM      6  C   UNL     1       0.262  -0.092  -0.103  0.00  0.00    -0.078 C 
ATOM      7  H   UNL     1       0.683  -0.195   1.889  0.00  0.00    -0.081 HD
ENDROOT
BRANCH   5   8
ATOM      8  C   UNL     1       0.686  -2.094   1.146  0.00  0.00    +0.029 C 
ATOM      9  C   UNL     1      -0.821  -2.322   1.385  0.00  0.00    +0.090 C 
ATOM     10  C   UNL     1      -0.865  -3.018   2.728  0.00  0.00    +0.221 C 
ATOM     11  O   UNL     1      -1.871  -3.382   3.297  0.00  0.00    -0.275 OA
ATOM     12  N   UNL     1       0.383  -3.168   3.188  0.00  0.00    -0.240 N 
ATOM     13  C   UNL     1       1.338  -2.686   2.377  0.00  0.00    +0.209 C 
ATOM     14  O   UNL     1       2.530  -2.717   2.593  0.00  0.00    -0.277 OA
BRANCH  12  15
ATOM     15  C   UNL     1       0.684  -3.809   4.470  0.00  0.00    +0.084 C 
ATOM     16  C   UNL     1      -0.430  -4.622   5.132  0.00  0.00    +0.025 C 
ATOM     17  C   UNL     1      -0.023  -3.267   5.714  0.00  0.00    +0.025 C 
ENDBRANCH  12  15
ENDBRANCH   5   8
BRANCH   3  18
ATOM     18  C   UNL     1       4.233   1.218   0.660  0.00  0.00    +0.357 C 
ATOM     19  O   UNL     1       4.701   2.343   0.610  0.00  0.00    -0.246 OA
ATOM     20  O   UNL     1       4.966   0.249   0.563  0.00  0.00    -0.246 OA
ENDBRANCH   3  18
TORSDOF 3
