REMARK  Name = ZINC09598316
REMARK  11 active torsions:
REMARK  status: ('A' for Active; 'I' for Inactive)
REMARK    1  A    between atoms: C_1  and  C_2
REMARK    2  A    between atoms: C_7  and  N_8
REMARK    3  A    between atoms: C_9  and  C_11
REMARK    4  A    between atoms: C_12  and  C_41
REMARK    5  A    between atoms: C_16  and  C_18
REMARK    6  A    between atoms: C_21  and  O_24
REMARK    7  A    between atoms: C_28  and  C_31
REMARK    8  A    between atoms: C_34  and  O_39
REMARK    9  A    between atoms: C_35  and  O_37
REMARK   10  A    between atoms: O_37  and  C_38
REMARK   11  A    between atoms: O_39  and  C_40
REMARK                            x       y       z     vdW  Elec       q    Type
REMARK                         _______ _______ _______ _____ _____    ______ ____
ROOT
ATOM      1  C   UNL     1      -9.286  -4.270  -1.440  0.00  0.00    +0.043 C 
ATOM      2  C   UNL     1      -8.579  -3.921  -2.528  0.00  0.00    +0.014 C 
ATOM      3  N   UNL     1      -7.578  -2.994  -2.436  0.00  0.00    -0.321 N 
ATOM      4  C   UNL     1      -7.009  -2.699  -1.227  0.00  0.00    +0.016 C 
ATOM      5  C   UNL     1      -7.647  -3.004  -0.077  0.00  0.00    +0.024 C 
ATOM      6  C   UNL     1      -9.007  -3.656  -0.100  0.00  0.00    +0.090 C 
ATOM      7  C   UNL     1      -7.067  -2.720   1.172  0.00  0.00    +0.162 C 
ATOM      8  O   UNL     1      -7.673  -2.997   2.188  0.00  0.00    -0.292 OA
ATOM      9  C   UNL     1      -5.708  -2.084   1.276  0.00  0.00    +0.088 C 
ATOM     10  C   UNL     1      -4.886  -2.460   0.039  0.00  0.00    +0.032 C 
ATOM     11  C   UNL     1      -5.657  -2.030  -1.211  0.00  0.00    +0.059 C 
ATOM     12  C   UNL     1      -8.893  -4.555  -3.859  0.00  0.00    +0.061 C 
ATOM     13  H   UNL     1      -7.222  -2.478  -3.340  0.00  0.00    +0.152 HD
ENDROOT
BRANCH   6  14
ATOM     14  C   UNL     1     -10.059  -2.618   0.196  0.00  0.00    -0.035 A 
ATOM     15  C   UNL     1     -10.192  -1.515  -0.628  0.00  0.00    +0.008 A 
ATOM     16  C   UNL     1     -11.159  -0.566  -0.361  0.00  0.00    +0.046 A 
ATOM     17  C   UNL     1     -11.989  -0.712   0.740  0.00  0.00    +0.117 A 
ATOM     18  C   UNL     1     -11.850  -1.816   1.569  0.00  0.00    +0.046 A 
ATOM     19  C   UNL     1     -10.885  -2.767   1.295  0.00  0.00    +0.008 A 
BRANCH  17  20
ATOM     20  O   UNL     1     -12.937   0.224   1.008  0.00  0.00    -0.507 OA
ATOM     21  H   UNL     1     -13.594   0.107   1.882  0.00  0.00    +0.292 HD
ENDBRANCH  17  20
ENDBRANCH   6  14
BRANCH  10  22
ATOM     22  C   UNL     1      -3.555  -1.753   0.081  0.00  0.00    -0.040 A 
ATOM     23  C   UNL     1      -3.509  -0.371   0.111  0.00  0.00    +0.008 A 
ATOM     24  C   UNL     1      -2.291   0.282   0.156  0.00  0.00    +0.049 A 
ATOM     25  C   UNL     1      -1.113  -0.448   0.158  0.00  0.00    +0.161 A 
ATOM     26  C   UNL     1      -1.160  -1.839   0.127  0.00  0.00    +0.162 A 
ATOM     27  C   UNL     1      -2.384  -2.487   0.088  0.00  0.00    +0.053 A 
BRANCH  26  28
ATOM     28  O   UNL     1      -0.007  -2.559   0.134  0.00  0.00    -0.491 OA
ATOM     29  C   UNL     1      -0.131  -3.982   0.101  0.00  0.00    +0.277 C 
ENDBRANCH  26  28
BRANCH  25  30
ATOM     30  O   UNL     1       0.085   0.193   0.196  0.00  0.00    -0.491 OA
ATOM     31  C   UNL     1       0.057   1.621   0.226  0.00  0.00    +0.277 C 
ENDBRANCH  25  30
ENDBRANCH  10  22
BRANCH   1  33
ATOM     32  N   UNL     1     -10.954  -5.681  -0.460  0.00  0.00    -0.281 N 
ATOM     33  C   UNL     1     -10.314  -5.237  -1.560  0.00  0.00    +0.247 C 
ATOM     34  O   UNL     1     -10.620  -5.667  -2.658  0.00  0.00    -0.270 OA
ATOM     35  H   UNL     1     -10.728  -5.241   0.522  0.00  0.00    +0.155 HD
BRANCH  32  42
ATOM     36  C   UNL     1     -11.175  -7.544   1.679  0.00  0.00    +0.045 C 
ATOM     37  C   UNL     1     -12.047  -7.630   0.453  0.00  0.00    -0.029 A 
ATOM     38  C   UNL     1     -12.988  -8.636   0.343  0.00  0.00    +0.005 A 
ATOM     39  C   UNL     1     -13.788  -8.717  -0.781  0.00  0.00    +0.000 A 
ATOM     40  C   UNL     1     -13.649  -7.791  -1.800  0.00  0.00    +0.002 A 
ATOM     41  C   UNL     1     -12.715  -6.780  -1.694  0.00  0.00    +0.023 A 
ATOM     42  C   UNL     1     -11.905  -6.700  -0.568  0.00  0.00    +0.037 A 
ENDBRANCH  32  42
ENDBRANCH   1  33
TORSDOF 7
