REMARK  Name = ZINC55494524
REMARK  4 active torsions:
REMARK  status: ('A' for Active; 'I' for Inactive)
REMARK    1  A    between atoms: C_1  and  C_2
REMARK    2  A    between atoms: C_2  and  C_3
REMARK    3  A    between atoms: C_16  and  C_18
REMARK    4  A    between atoms: C_21  and  N_24
REMARK                            x       y       z     vdW  Elec       q    Type
REMARK                         _______ _______ _______ _____ _____    ______ ____
ROOT
ATOM      1  C   UNL     1       0.672  -0.507  -1.264  0.00  0.00    -0.006 C 
ATOM      2  C   UNL     1       1.011  -1.998  -1.184  0.00  0.00    +0.008 C 
ATOM      3  C   UNL     1       1.940  -2.381  -2.336  0.00  0.00    +0.037 C 
ATOM      4  C   UNL     1       1.313  -1.923  -3.650  0.00  0.00    -0.023 A 
ATOM      5  C   UNL     1       0.341  -0.981  -3.656  0.00  0.00    -0.004 A 
ATOM      6  S   UNL     1      -0.085  -0.763  -5.366  0.00  0.00    -0.073 S 
ATOM      7  C   UNL     1       1.037  -1.932  -6.066  0.00  0.00    +0.116 A 
ATOM      8  C   UNL     1       1.711  -2.458  -4.940  0.00  0.00    +0.075 A 
ATOM      9  C   UNL     1       2.712  -3.457  -5.181  0.00  0.00    +0.260 A 
ATOM     10  O   UNL     1       3.347  -3.970  -4.276  0.00  0.00    -0.267 OA
ATOM     11  N   UNL     1       2.907  -3.796  -6.478  0.00  0.00    -0.306 N 
ATOM     12  H   UNL     1       3.574  -4.469  -6.686  0.00  0.00    +0.170 HD
ATOM     13  C   UNL     1       2.206  -3.233  -7.505  0.00  0.00    +0.142 A 
ATOM     14  N   UNL     1       1.276  -2.308  -7.315  0.00  0.00    -0.222 NA
ATOM     15  C   UNL     1      -0.245  -0.272  -2.473  0.00  0.00    +0.046 C 
ENDROOT
BRANCH  13  16
ATOM     16  C   UNL     1       2.496  -3.674  -8.883  0.00  0.00    +0.017 A 
ATOM     17  C   UNL     1       3.466  -4.651  -9.117  0.00  0.00    +0.013 A 
ATOM     18  C   UNL     1       3.734  -5.059 -10.405  0.00  0.00    +0.024 A 
ATOM     19  C   UNL     1       3.040  -4.500 -11.472  0.00  0.00    +0.035 A 
ATOM     20  C   UNL     1       2.073  -3.526 -11.243  0.00  0.00    +0.024 A 
ATOM     21  C   UNL     1       1.796  -3.117  -9.958  0.00  0.00    +0.013 A 
BRANCH  19  22
ATOM     22  N   UNL     1       3.314  -4.916 -12.776  0.00  0.00    -0.270 N 
ATOM     23  C   UNL     1       3.667  -6.194 -13.015  0.00  0.00    +0.301 C 
ATOM     24  O   UNL     1       3.654  -7.008 -12.112  0.00  0.00    -0.253 OA
ATOM     25  N   UNL     1       4.036  -6.571 -14.256  0.00  0.00    -0.313 N 
ATOM     26  H   UNL     1       3.250  -4.285 -13.510  0.00  0.00    +0.156 HD
ATOM     27  H   UNL     1       4.046  -5.921 -14.977  0.00  0.00    +0.146 HD
ATOM     28  H   UNL     1       4.290  -7.490 -14.428  0.00  0.00    +0.146 HD
ENDBRANCH  19  22
ENDBRANCH  13  16
BRANCH   1  30
ATOM     29  C   UNL     1      -0.280   1.438  -0.016  0.00  0.00    +0.004 C 
ATOM     30  C   UNL     1      -0.046  -0.074   0.016  0.00  0.00    +0.000 C 
ENDBRANCH   1  30
TORSDOF 3
