REMARK  Name = ZINC60832381
REMARK  7 active torsions:
REMARK  status: ('A' for Active; 'I' for Inactive)
REMARK    1  A    between atoms: C_1  and  C_2
REMARK    2  A    between atoms: C_2  and  C_3
REMARK    3  A    between atoms: C_2  and  C_21
REMARK    4  A    between atoms: C_3  and  N_4
REMARK    5  A    between atoms: C_5  and  C_7
REMARK    6  A    between atoms: C_11  and  N_12
REMARK    7  A    between atoms: C_21  and  N_22
REMARK                            x       y       z     vdW  Elec       q    Type
REMARK                         _______ _______ _______ _____ _____    ______ ____
ROOT
ATOM      1  C   UNL     1      -0.388  -0.060  -4.856  0.00  0.00    +0.071 A 
ATOM      2  C   UNL     1      -0.151   1.214  -5.534  0.00  0.00    -0.021 A 
ATOM      3  C   UNL     1      -0.941   1.409  -6.603  0.00  0.00    +0.006 A 
ATOM      4  S   UNL     1      -1.959  -0.043  -6.690  0.00  0.00    -0.074 S 
ATOM      5  C   UNL     1      -1.360  -0.891  -5.373  0.00  0.00    +0.097 A 
ATOM      6  C   UNL     1      -0.998   2.568  -7.561  0.00  0.00    +0.111 C 
ATOM      7  S   UNL     1      -0.114   3.971  -6.810  0.00  0.00    -0.155 S 
ATOM      8  C   UNL     1       1.351   3.156  -6.102  0.00  0.00    +0.074 C 
ATOM      9  C   UNL     1       0.897   2.186  -5.019  0.00  0.00    +0.047 C 
ENDROOT
BRANCH   5  10
ATOM     10  N   UNL     1      -1.754  -2.142  -4.909  0.00  0.00    -0.317 N 
ATOM     11  C   UNL     1      -1.236  -2.788  -3.821  0.00  0.00    +0.092 A 
ATOM     12  C   UNL     1      -1.872  -3.970  -3.692  0.00  0.00    +0.019 A 
ATOM     13  C   UNL     1      -2.816  -4.060  -4.735  0.00  0.00    +0.019 A 
ATOM     14  C   UNL     1      -2.727  -2.927  -5.460  0.00  0.00    +0.092 A 
ENDBRANCH   5  10
BRANCH   1  16
ATOM     15  N   UNL     1      -0.055  -0.114  -2.441  0.00  0.00    -0.311 N 
ATOM     16  C   UNL     1       0.387  -0.445  -3.670  0.00  0.00    +0.247 C 
ATOM     17  O   UNL     1       1.428  -1.062  -3.797  0.00  0.00    -0.270 OA
ATOM     18  H   UNL     1      -0.885   0.378  -2.339  0.00  0.00    +0.149 HD
BRANCH  15  19
ATOM     19  C   UNL     1       0.718  -0.497  -1.257  0.00  0.00    +0.109 C 
BRANCH  19  21
ATOM     20  C   UNL     1      -0.019   1.526   0.010  0.00  0.00    +0.011 C 
ATOM     21  C   UNL     1       0.002  -0.004   0.002  0.00  0.00    +0.024 C 
BRANCH  21  22
ATOM     22  C   UNL     1       0.742  -0.511   1.242  0.00  0.00    +0.148 C 
BRANCH  22  23
ATOM     23  N   UNL     1      -0.008  -0.140   2.444  0.00  0.00    -0.271 N 
ATOM     24  C   UNL     1      -0.428  -0.984   3.410  0.00  0.00    +0.108 A 
ATOM     25  C   UNL     1      -1.081  -0.252   4.342  0.00  0.00    +0.041 A 
ATOM     26  C   UNL     1      -1.060   1.085   3.932  0.00  0.00    +0.134 A 
ATOM     27  N   UNL     1      -0.412   1.154   2.797  0.00  0.00    -0.180 NA
ENDBRANCH  22  23
ENDBRANCH  21  22
ENDBRANCH  19  21
ENDBRANCH  15  19
ENDBRANCH   1  16
TORSDOF 6
