REMARK  Name = ZINC15050069
REMARK  5 active torsions:
REMARK  status: ('A' for Active; 'I' for Inactive)
REMARK    1  A    between atoms: C_6  and  C_7
REMARK    2  A    between atoms: N_11  and  C_15
REMARK    3  A    between atoms: C_15  and  C_16
REMARK    4  A    between atoms: N_18  and  C_19
REMARK    5  A    between atoms: C_22  and  N_25
REMARK                            x       y       z     vdW  Elec       q    Type
REMARK                         _______ _______ _______ _____ _____    ______ ____
ROOT
ATOM      1  C   UNL     1       8.435   4.015   1.510  0.00  0.00    +0.028 C 
ATOM      2  C   UNL     1       7.926   3.166   0.583  0.00  0.00    +0.080 C 
ATOM      3  C   UNL     1       7.067   1.977   0.765  0.00  0.00    +0.261 C 
ATOM      4  O   UNL     1       6.702   1.615   1.868  0.00  0.00    -0.269 OA
ATOM      5  N   UNL     1       6.715   1.327  -0.332  0.00  0.00    -0.219 N 
ATOM      6  C   UNL     1       7.126   1.730  -1.552  0.00  0.00    +0.286 C 
ATOM      7  O   UNL     1       6.884   1.229  -2.633  0.00  0.00    -0.262 OA
ATOM      8  S   UNL     1       8.108   3.177  -1.195  0.00  0.00    -0.026 S 
ENDROOT
BRANCH   1  14
ATOM      9  C   UNL     1      10.076   4.940  -0.114  0.00  0.00    +0.009 A 
ATOM     10  C   UNL     1      10.979   5.912  -0.485  0.00  0.00    +0.020 A 
ATOM     11  C   UNL     1      11.233   6.984   0.355  0.00  0.00    +0.041 A 
ATOM     12  C   UNL     1      10.578   7.090   1.571  0.00  0.00    +0.020 A 
ATOM     13  C   UNL     1       9.667   6.130   1.953  0.00  0.00    +0.009 A 
ATOM     14  C   UNL     1       9.405   5.044   1.110  0.00  0.00    -0.024 A 
ATOM     15 CL   UNL     1      12.378   8.200  -0.118  0.00  0.00    -0.084 Cl
ENDBRANCH   1  14
BRANCH   5  16
ATOM     16  C   UNL     1       5.865   0.140  -0.219  0.00  0.00    +0.213 C 
BRANCH  16  17
ATOM     17  C   UNL     1       4.417   0.550  -0.293  0.00  0.00    +0.235 C 
ATOM     18  O   UNL     1       4.124   1.719  -0.428  0.00  0.00    -0.274 OA
ATOM     19  N   UNL     1       3.447  -0.383  -0.210  0.00  0.00    -0.284 N 
ATOM     20  H   UNL     1       3.676  -1.305  -0.016  0.00  0.00    +0.155 HD
BRANCH  19  21
ATOM     21  C   UNL     1       2.110  -0.020  -0.405  0.00  0.00    +0.034 A 
ATOM     22  C   UNL     1       1.231  -0.905  -1.018  0.00  0.00    +0.025 A 
ATOM     23  C   UNL     1      -0.087  -0.542  -1.214  0.00  0.00    +0.034 A 
ATOM     24  C   UNL     1      -0.535   0.697  -0.792  0.00  0.00    +0.126 A 
ATOM     25  C   UNL     1       0.337   1.579  -0.182  0.00  0.00    +0.034 A 
ATOM     26  C   UNL     1       1.658   1.224   0.013  0.00  0.00    +0.025 A 
BRANCH  24  27
ATOM     27  N   UNL     1      -1.949   1.080  -1.000  0.00  0.00    +0.056 N 
ATOM     28  O   UNL     1      -2.344   2.172  -0.633  0.00  0.00    -0.126 OA
ATOM     29  O   UNL     1      -2.718   0.304  -1.537  0.00  0.00    -0.126 OA
ENDBRANCH  24  27
ENDBRANCH  19  21
ENDBRANCH  16  17
ENDBRANCH   5  16
TORSDOF 5
