REMARK  Name = ZINC13654091
REMARK  12 active torsions:
REMARK  status: ('A' for Active; 'I' for Inactive)
REMARK    1  A    between atoms: C_1  and  C_2
REMARK    2  A    between atoms: C_2  and  C_3
REMARK    3  A    between atoms: C_2  and  C_4
REMARK    4  A    between atoms: C_4  and  N_5
REMARK    5  A    between atoms: N_5  and  C_6
REMARK    6  A    between atoms: N_5  and  C_26
REMARK    7  A    between atoms: C_6  and  C_7
REMARK    8  A    between atoms: C_8  and  O_25
REMARK    9  A    between atoms: C_15  and  C_16
REMARK   10  A    between atoms: C_26  and  C_27
REMARK   11  A    between atoms: C_27  and  C_28
REMARK   12  A    between atoms: C_27  and  C_29
REMARK                            x       y       z     vdW  Elec       q    Type
REMARK                         _______ _______ _______ _____ _____    ______ ____
ROOT
ATOM      1  C   UNL     1      -3.002  -1.123   1.147  0.00  0.00    +0.020 A 
ATOM      2  C   UNL     1      -4.044  -0.210   1.137  0.00  0.00    +0.122 A 
ATOM      3  C   UNL     1      -4.601   0.215  -0.066  0.00  0.00    +0.046 A 
ATOM      4  C   UNL     1      -4.124  -0.267  -1.252  0.00  0.00    +0.019 A 
ATOM      5  C   UNL     1      -3.075  -1.187  -1.256  0.00  0.00    +0.068 A 
ATOM      6  C   UNL     1      -2.501  -1.619  -0.050  0.00  0.00    +0.144 A 
ATOM      7  O   UNL     1      -1.507  -2.497  -0.306  0.00  0.00    -0.451 OA
ATOM      8  C   UNL     1      -1.346  -2.702  -1.635  0.00  0.00    +0.176 C 
ATOM      9  C   UNL     1      -0.436  -3.523  -2.215  0.00  0.00    +0.059 C 
ATOM     10  C   UNL     1      -2.348  -1.882  -2.334  0.00  0.00    +0.231 C 
ATOM     11  O   UNL     1      -2.528  -1.789  -3.536  0.00  0.00    -0.283 OA
ENDROOT
BRANCH   9  12
ATOM     12  C   UNL     1       0.364  -4.435  -1.386  0.00  0.00    -0.003 A 
ATOM     13  C   UNL     1      -0.039  -4.736  -0.080  0.00  0.00    +0.009 A 
ATOM     14  C   UNL     1       0.716  -5.593   0.691  0.00  0.00    +0.001 A 
ATOM     15  C   UNL     1       1.872  -6.157   0.177  0.00  0.00    +0.001 A 
ATOM     16  C   UNL     1       2.279  -5.866  -1.113  0.00  0.00    +0.020 A 
ATOM     17  C   UNL     1       1.531  -5.014  -1.901  0.00  0.00    +0.048 A 
ATOM     18 CL   UNL     1       2.039  -4.656  -3.522  0.00  0.00    -0.083 Cl
ENDBRANCH   9  12
BRANCH   2  19
ATOM     19  O   UNL     1      -4.526   0.274   2.310  0.00  0.00    -0.506 OA
ATOM     20  H   UNL     1      -4.083   1.078   2.615  0.00  0.00    +0.292 HD
ENDBRANCH   2  19
BRANCH   1  21
ATOM     21  C   UNL     1      -2.408  -1.575   2.457  0.00  0.00    -0.036 C 
BRANCH  21  22
ATOM     22  N   UNL     1      -1.167  -0.832   2.713  0.00  0.00    +0.383 N 
ATOM     23  H   UNL     1      -0.532  -0.961   1.940  0.00  0.00    -0.081 HD
BRANCH  22  24
ATOM     24  C   UNL     1      -0.544  -1.331   3.947  0.00  0.00    -0.075 C 
BRANCH  24  26
ATOM     25  C   UNL     1       1.097  -2.778   2.740  0.00  0.00    +0.005 C 
ATOM     26  C   UNL     1      -0.068  -2.769   3.732  0.00  0.00    -0.034 C 
ATOM     27  C   UNL     1       0.394  -3.357   5.067  0.00  0.00    +0.005 C 
ENDBRANCH  24  26
ENDBRANCH  22  24
BRANCH  22  28
ATOM     28  C   UNL     1      -1.473   0.597   2.863  0.00  0.00    -0.075 C 
BRANCH  28  29
ATOM     29  C   UNL     1      -0.170   1.386   3.006  0.00  0.00    -0.034 C 
ATOM     30  C   UNL     1       0.636   1.278   1.710  0.00  0.00    +0.005 C 
ATOM     31  C   UNL     1      -0.491   2.855   3.285  0.00  0.00    +0.005 C 
ENDBRANCH  28  29
ENDBRANCH  22  28
ENDBRANCH  21  22
ENDBRANCH   1  21
TORSDOF 8
