REMARK  Name = ZINC49733667
REMARK  4 active torsions:
REMARK  status: ('A' for Active; 'I' for Inactive)
REMARK    1  A    between atoms: C_3  and  N_17
REMARK    2  A    between atoms: C_5  and  S_7
REMARK    3  A    between atoms: S_7  and  N_10
REMARK    4  A    between atoms: C_18  and  C_20
REMARK                            x       y       z     vdW  Elec       q    Type
REMARK                         _______ _______ _______ _____ _____    ______ ____
ROOT
ATOM      1  C   UNL     1       0.112   1.159  -0.752  0.00  0.00    +0.004 A 
ATOM      2  C   UNL     1       1.298   1.867  -0.756  0.00  0.00    +0.023 A 
ATOM      3  C   UNL     1       2.381   1.409  -0.019  0.00  0.00    +0.035 A 
ATOM      4  C   UNL     1       2.269   0.238   0.720  0.00  0.00    +0.051 A 
ATOM      5  C   UNL     1       1.081  -0.466   0.720  0.00  0.00    +0.107 A 
ATOM      6  C   UNL     1       0.003  -0.006  -0.015  0.00  0.00    +0.028 A 
ENDROOT
BRANCH   3   7
ATOM      7  N   UNL     1       3.584   2.123  -0.021  0.00  0.00    -0.285 N 
ATOM      8  C   UNL     1       3.569   3.468  -0.116  0.00  0.00    +0.223 C 
ATOM      9  O   UNL     1       2.513   4.065  -0.103  0.00  0.00    -0.275 OA
ATOM     10  H   UNL     1       4.429   1.652   0.045  0.00  0.00    +0.155 HD
BRANCH   8  11
ATOM     11  C   UNL     1       4.863   4.229  -0.238  0.00  0.00    +0.048 C 
ATOM     12  C   UNL     1       5.603   3.778  -1.499  0.00  0.00    +0.019 C 
ATOM     13  C   UNL     1       6.918   4.551  -1.623  0.00  0.00    -0.009 C 
ATOM     14  C   UNL     1       6.621   6.050  -1.714  0.00  0.00    +0.007 C 
ATOM     15  C   UNL     1       5.881   6.501  -0.454  0.00  0.00    -0.009 C 
ATOM     16  C   UNL     1       4.567   5.728  -0.329  0.00  0.00    +0.019 C 
ATOM     17  C   UNL     1       6.752   6.227   0.774  0.00  0.00    +0.007 C 
ATOM     18  C   UNL     1       7.048   4.729   0.865  0.00  0.00    -0.009 C 
ATOM     19  C   UNL     1       7.788   4.277  -0.396  0.00  0.00    +0.007 C 
ATOM     20  C   UNL     1       5.734   3.955   0.990  0.00  0.00    +0.019 C 
ENDBRANCH   8  11
ENDBRANCH   3   7
BRANCH   5  21
ATOM     21  S   UNL     1       0.937  -1.951   1.657  0.00  0.00    +0.061 S 
ATOM     22  O   UNL     1      -0.102  -2.711   1.056  0.00  0.00    -0.153 OA
ATOM     23  O   UNL     1       2.255  -2.457   1.820  0.00  0.00    -0.153 OA
BRANCH  21  24
ATOM     24  N   UNL     1       0.402  -1.528   3.166  0.00  0.00    -0.166 NA
ATOM     25  C   UNL     1       1.345  -1.198   4.249  0.00  0.00    +0.128 C 
ATOM     26  C   UNL     1       1.093   0.249   4.676  0.00  0.00    +0.121 C 
ATOM     27  N   UNL     1      -0.331   0.494   4.855  0.00  0.00    -0.313 N 
ATOM     28  C   UNL     1      -1.300  -0.233   4.297  0.00  0.00    +0.229 C 
ATOM     29  O   UNL     1      -2.451   0.118   4.456  0.00  0.00    -0.274 OA
ATOM     30  C   UNL     1      -1.033  -1.461   3.478  0.00  0.00    +0.205 C 
ATOM     31  H   UNL     1      -0.593   1.238   5.419  0.00  0.00    +0.149 HD
ENDBRANCH  21  24
ENDBRANCH   5  21
TORSDOF 4
