REMARK  Name = ZINC63315619
REMARK  8 active torsions:
REMARK  status: ('A' for Active; 'I' for Inactive)
REMARK    1  A    between atoms: C_1  and  C_2
REMARK    2  A    between atoms: C_2  and  C_3
REMARK    3  A    between atoms: C_2  and  C_4
REMARK    4  A    between atoms: C_4  and  C_6
REMARK    5  A    between atoms: C_4  and  N_16
REMARK    6  A    between atoms: C_17  and  C_19
REMARK    7  A    between atoms: C_28  and  O_29
REMARK    8  A    between atoms: O_29  and  C_30
REMARK                            x       y       z     vdW  Elec       q    Type
REMARK                         _______ _______ _______ _____ _____    ______ ____
ROOT
ATOM      1  N   UNL     1      -1.399  -2.093   0.068  0.00  0.00    -0.307 N 
ATOM      2  C   UNL     1      -1.324  -2.669   1.284  0.00  0.00    +0.240 C 
ATOM      3  O   UNL     1      -1.251  -1.979   2.278  0.00  0.00    -0.273 OA
ATOM      4  H   UNL     1      -1.457  -2.645  -0.728  0.00  0.00    +0.149 HD
ENDROOT
BRANCH   2   5
ATOM      5  C   UNL     1      -1.332  -4.171   1.407  0.00  0.00    +0.190 C 
ATOM      6  C   UNL     1      -2.748  -4.694   1.322  0.00  0.00    +0.020 C 
ATOM      7  C   UNL     1      -2.988  -5.321   2.494  0.00  0.00    +0.038 A 
ATOM      8  C   UNL     1      -1.783  -5.231   3.349  0.00  0.00    +0.047 A 
ATOM      9  N   UNL     1      -0.831  -4.572   2.727  0.00  0.00    -0.370 N 
ATOM     10  C   UNL     1      -1.831  -5.833   4.633  0.00  0.00    +0.026 A 
ATOM     11  C   UNL     1      -2.949  -6.468   5.054  0.00  0.00    +0.006 A 
ATOM     12  C   UNL     1      -4.101  -6.569   4.270  0.00  0.00    +0.046 A 
ATOM     13  C   UNL     1      -4.165  -6.028   3.023  0.00  0.00    +0.129 A 
ATOM     14  H   UNL     1       0.052  -4.383   3.079  0.00  0.00    +0.161 HD
BRANCH  13  15
ATOM     15  O   UNL     1      -5.295  -6.139   2.281  0.00  0.00    -0.494 OA
ATOM     16  C   UNL     1      -6.391  -6.841   2.870  0.00  0.00    +0.277 C 
ENDBRANCH  13  15
ENDBRANCH   2   5
BRANCH   1  17
ATOM     17  C   UNL     1      -1.392  -0.633  -0.052  0.00  0.00    +0.116 C 
BRANCH  17  18
ATOM     18  C   UNL     1      -2.085  -0.225  -1.354  0.00  0.00    +0.201 C 
ATOM     19  N   UNL     1      -2.116   1.242  -1.484  0.00  0.00    -0.245 N 
ATOM     20  N   UNL     1      -3.467   1.604  -1.522  0.00  0.00    -0.170 NA
ATOM     21  C   UNL     1      -4.246   0.560  -1.433  0.00  0.00    +0.144 C 
ATOM     22  N   UNL     1      -3.502  -0.614  -1.327  0.00  0.00    -0.268 N 
ATOM     23  C   UNL     1      -4.123  -1.829  -1.224  0.00  0.00    +0.078 C 
ATOM     24  C   UNL     1      -5.463  -1.927  -1.222  0.00  0.00    +0.015 C 
ATOM     25  C   UNL     1      -6.277  -0.779  -1.327  0.00  0.00    +0.005 C 
ATOM     26  C   UNL     1      -5.711   0.455  -1.429  0.00  0.00    +0.045 C 
ATOM     27  H   UNL     1      -1.352   1.838  -1.535  0.00  0.00    +0.170 HD
ENDBRANCH  17  18
BRANCH  17  29
ATOM     28  C   UNL     1       0.703  -0.412   1.292  0.00  0.00    +0.009 C 
ATOM     29  C   UNL     1       0.053  -0.129  -0.064  0.00  0.00    +0.007 C 
ATOM     30  C   UNL     1       0.835  -0.849  -1.165  0.00  0.00    +0.009 C 
ENDBRANCH  17  29
ENDBRANCH   1  17
TORSDOF 5
