REMARK  Name = ZINC60333018
REMARK  5 active torsions:
REMARK  status: ('A' for Active; 'I' for Inactive)
REMARK    1  A    between atoms: C_3  and  C_19
REMARK    2  A    between atoms: C_5  and  S_7
REMARK    3  A    between atoms: S_7  and  N_10
REMARK    4  A    between atoms: N_21  and  O_22
REMARK    5  A    between atoms: O_22  and  C_23
REMARK                            x       y       z     vdW  Elec       q    Type
REMARK                         _______ _______ _______ _____ _____    ______ ____
ROOT
ATOM      1  C   UNL     1      -0.017   1.379   0.010  0.00  0.00    +0.003 A 
ATOM      2  C   UNL     1       1.167   2.088   0.002  0.00  0.00    +0.013 A 
ATOM      3  C   UNL     1       2.385   1.407  -0.013  0.00  0.00    +0.041 A 
ATOM      4  C   UNL     1       2.397   0.011  -0.021  0.00  0.00    +0.041 A 
ATOM      5  C   UNL     1       1.206  -0.686  -0.013  0.00  0.00    +0.106 A 
ATOM      6  C   UNL     1       0.002  -0.004   0.002  0.00  0.00    +0.028 A 
ENDROOT
BRANCH   3   7
ATOM      7  C   UNL     1       3.657   2.160  -0.022  0.00  0.00    +0.267 C 
ATOM      8  O   UNL     1       4.716   1.564  -0.035  0.00  0.00    -0.268 OA
ATOM      9  N   UNL     1       3.642   3.508  -0.015  0.00  0.00    -0.188 N 
ATOM     10  H   UNL     1       2.797   3.984  -0.004  0.00  0.00    +0.183 HD
BRANCH   9  11
ATOM     11  O   UNL     1       4.860   4.229  -0.023  0.00  0.00    -0.248 OA
BRANCH  11  12
ATOM     12  C   UNL     1       4.695   5.649  -0.014  0.00  0.00    +0.276 C 
ATOM     13  C   UNL     1       5.885   6.297   0.699  0.00  0.00    +0.063 C 
ATOM     14  C   UNL     1       5.731   7.820   0.651  0.00  0.00    +0.007 C 
ATOM     15  C   UNL     1       5.616   8.265  -0.810  0.00  0.00    +0.028 C 
ATOM     16  C   UNL     1       4.437   7.541  -1.465  0.00  0.00    +0.163 C 
ATOM     17  O   UNL     1       4.628   6.129  -1.359  0.00  0.00    -0.349 OA
ENDBRANCH  11  12
ENDBRANCH   9  11
ENDBRANCH   3   7
BRANCH   5  18
ATOM     18  S   UNL     1       1.219  -2.448  -0.023  0.00  0.00    +0.061 S 
ATOM     19  O   UNL     1      -0.029  -2.860  -0.564  0.00  0.00    -0.153 OA
ATOM     20  O   UNL     1       2.462  -2.842  -0.589  0.00  0.00    -0.153 OA
BRANCH  18  21
ATOM     21  N   UNL     1       1.238  -2.946   1.556  0.00  0.00    -0.172 NA
ATOM     22  C   UNL     1       2.514  -3.156   2.256  0.00  0.00    +0.115 C 
ATOM     23  C   UNL     1       2.612  -2.131   3.397  0.00  0.00    +0.060 C 
ATOM     24  C   UNL     1       1.289  -2.055   4.087  0.00  0.00    -0.004 A 
ATOM     25  C   UNL     1       0.084  -2.500   3.638  0.00  0.00    -0.021 A 
ATOM     26  C   UNL     1      -1.010  -2.299   4.477  0.00  0.00    +0.013 A 
ATOM     27  C   UNL     1      -0.842  -1.693   5.675  0.00  0.00    +0.046 A 
ATOM     28  S   UNL     1       0.914  -1.366   5.678  0.00  0.00    -0.101 S 
ATOM     29  C   UNL     1      -0.020  -3.180   2.278  0.00  0.00    +0.145 C 
ENDBRANCH  18  21
ENDBRANCH   5  18
TORSDOF 5
