REMARK  Name = ZINC02713171
REMARK  6 active torsions:
REMARK  status: ('A' for Active; 'I' for Inactive)
REMARK    1  A    between atoms: C_6  and  C_7
REMARK    2  A    between atoms: C_7  and  N_51
REMARK    3  A    between atoms: C_16  and  S_18
REMARK    4  A    between atoms: S_18  and  C_19
REMARK    5  A    between atoms: C_19  and  C_20
REMARK    6  A    between atoms: N_22  and  C_23
REMARK                            x       y       z     vdW  Elec       q    Type
REMARK                         _______ _______ _______ _____ _____    ______ ____
ROOT
ATOM      1  C   UNL     1       1.377  -0.503  -0.481  0.00  0.00    -0.072 C 
ATOM      2  C   UNL     1       0.002  -0.004  -0.038  0.00  0.00    +0.037 C 
ATOM      3  C   UNL     1      -0.019   1.502  -0.020  0.00  0.00    +0.049 A 
ATOM      4  C   UNL     1       1.128   2.233  -0.028  0.00  0.00    +0.022 A 
ATOM      5  C   UNL     1       1.041   3.640  -0.004  0.00  0.00    +0.254 A 
ATOM      6  O   UNL     1       2.052   4.323  -0.007  0.00  0.00    -0.268 OA
ATOM      7  N   UNL     1      -0.177   4.219   0.021  0.00  0.00    -0.302 N 
ATOM      8  H   UNL     1      -0.257   5.185   0.038  0.00  0.00    +0.171 HD
ATOM      9  C   UNL     1      -1.292   3.437   0.023  0.00  0.00    +0.170 A 
ATOM     10  N   UNL     1      -1.201   2.123   0.009  0.00  0.00    -0.228 NA
ATOM     11  C   UNL     1       2.489   1.593  -0.062  0.00  0.00    -0.035 C 
ATOM     12  N   UNL     1       2.392   0.181   0.345  0.00  0.00    +0.385 N 
ATOM     13  H   UNL     1       2.110   0.134   1.331  0.00  0.00    -0.081 HD
ENDROOT
BRANCH  12  14
ATOM     14  C   UNL     1       3.707  -0.483   0.189  0.00  0.00    -0.043 C 
BRANCH  14  20
ATOM     15  C   UNL     1       5.440   1.317   0.059  0.00  0.00    +0.004 A 
ATOM     16  C   UNL     1       6.416   2.107   0.638  0.00  0.00    +0.038 A 
ATOM     17  C   UNL     1       6.733   1.946   1.976  0.00  0.00    +0.123 A 
ATOM     18  C   UNL     1       6.068   0.998   2.734  0.00  0.00    +0.038 A 
ATOM     19  C   UNL     1       5.090   0.212   2.155  0.00  0.00    +0.004 A 
ATOM     20  C   UNL     1       4.774   0.374   0.819  0.00  0.00    -0.064 A 
ATOM     21  F   UNL     1       7.690   2.715   2.541  0.00  0.00    -0.205 F 
ENDBRANCH  14  20
ENDBRANCH  12  14
BRANCH   9  22
ATOM     22  S   UNL     1      -2.882   4.196   0.052  0.00  0.00    -0.078 S 
BRANCH  22  23
ATOM     23  C   UNL     1      -3.934   2.723   0.044  0.00  0.00    +0.173 C 
BRANCH  23  24
ATOM     24  C   UNL     1      -5.382   3.139   0.067  0.00  0.00    +0.227 C 
ATOM     25  O   UNL     1      -5.674   4.316   0.087  0.00  0.00    -0.275 OA
ATOM     26  N   UNL     1      -6.352   2.204   0.065  0.00  0.00    -0.285 N 
ATOM     27  H   UNL     1      -6.121   1.265  -0.019  0.00  0.00    +0.155 HD
BRANCH  26  28
ATOM     28  C   UNL     1      -7.693   2.586   0.184  0.00  0.00    +0.033 A 
ATOM     29  C   UNL     1      -8.588   1.780   0.876  0.00  0.00    +0.025 A 
ATOM     30  C   UNL     1      -9.909   2.162   0.996  0.00  0.00    +0.022 A 
ATOM     31  C   UNL     1     -10.345   3.341   0.418  0.00  0.00    +0.041 A 
ATOM     32  C   UNL     1      -9.457   4.144  -0.277  0.00  0.00    +0.022 A 
ATOM     33  C   UNL     1      -8.133   3.769  -0.395  0.00  0.00    +0.025 A 
ATOM     34 CL   UNL     1     -12.009   3.816   0.565  0.00  0.00    -0.084 Cl
ENDBRANCH  26  28
ENDBRANCH  23  24
ENDBRANCH  22  23
ENDBRANCH   9  22
TORSDOF 6
