REMARK  Name = ZINC11914572
REMARK  9 active torsions:
REMARK  status: ('A' for Active; 'I' for Inactive)
REMARK    1  A    between atoms: C_1  and  C_2
REMARK    2  A    between atoms: C_6  and  O_9
REMARK    3  A    between atoms: C_7  and  C_8
REMARK    4  A    between atoms: O_9  and  C_10
REMARK    5  A    between atoms: C_10  and  C_11
REMARK    6  A    between atoms: N_13  and  C_14
REMARK    7  A    between atoms: C_14  and  C_15
REMARK    8  A    between atoms: C_15  and  C_17
REMARK    9  A    between atoms: C_15  and  N_57
REMARK                            x       y       z     vdW  Elec       q    Type
REMARK                         _______ _______ _______ _____ _____    ______ ____
ROOT
ATOM      1  C   UNL     1      -0.997   1.149  -3.804  0.00  0.00    +0.093 C 
ENDROOT
BRANCH   1   4
ATOM      2  C   UNL     1      -3.321   0.899  -4.493  0.00  0.00    +0.251 C 
ATOM      3  O   UNL     1      -3.008   1.303  -5.593  0.00  0.00    -0.272 OA
ATOM      4  N   UNL     1      -2.389   0.786  -3.526  0.00  0.00    -0.314 N 
ATOM      5  H   UNL     1      -2.639   0.463  -2.646  0.00  0.00    +0.149 HD
BRANCH   2   6
ATOM      6  C   UNL     1      -4.753   0.526  -4.206  0.00  0.00    +0.324 C 
BRANCH   6   7
ATOM      7  O   UNL     1      -5.543   0.732  -5.379  0.00  0.00    -0.483 OA
BRANCH   7  13
ATOM      8  C   UNL     1      -9.937   0.513  -7.493  0.00  0.00    +0.044 C 
ATOM      9  C   UNL     1      -9.039   0.321  -6.298  0.00  0.00    -0.044 A 
ATOM     10  C   UNL     1      -9.563  -0.153  -5.109  0.00  0.00    +0.004 A 
ATOM     11  C   UNL     1      -8.742  -0.330  -4.011  0.00  0.00    +0.004 A 
ATOM     12  C   UNL     1      -7.396  -0.034  -4.099  0.00  0.00    +0.046 A 
ATOM     13  C   UNL     1      -6.867   0.441  -5.290  0.00  0.00    +0.124 A 
ATOM     14  C   UNL     1      -7.694   0.623  -6.390  0.00  0.00    -0.006 A 
ATOM     15  C   UNL     1      -7.125   1.145  -7.684  0.00  0.00    +0.048 C 
ENDBRANCH   7  13
ENDBRANCH   6   7
ENDBRANCH   2   6
ENDBRANCH   1   4
BRANCH   1  16
ATOM     16  C   UNL     1      -0.187   1.096  -2.507  0.00  0.00    -0.020 C 
BRANCH  16  17
ATOM     17  C   UNL     1       1.263   1.373  -2.809  0.00  0.00    -0.059 A 
ATOM     18  C   UNL     1       1.761   2.657  -2.691  0.00  0.00    +0.003 A 
ATOM     19  C   UNL     1       3.092   2.910  -2.963  0.00  0.00    +0.020 A 
ATOM     20  C   UNL     1       3.924   1.880  -3.363  0.00  0.00    +0.041 A 
ATOM     21  C   UNL     1       3.424   0.596  -3.487  0.00  0.00    +0.020 A 
ATOM     22  C   UNL     1       2.094   0.343  -3.210  0.00  0.00    +0.003 A 
ATOM     23 CL   UNL     1       5.595   2.198  -3.712  0.00  0.00    -0.084 Cl
ENDBRANCH  16  17
BRANCH  16  29
ATOM     24  C   UNL     1      -1.207   3.281  -2.292  0.00  0.00    -0.078 C 
ATOM     25  C   UNL     1      -1.591   4.370  -1.288  0.00  0.00    -0.019 C 
ATOM     26  C   UNL     1      -2.659   3.826  -0.335  0.00  0.00    -0.004 C 
ATOM     27  C   UNL     1      -2.117   2.578   0.367  0.00  0.00    -0.019 C 
ATOM     28  C   UNL     1      -1.718   1.540  -0.685  0.00  0.00    -0.078 C 
ATOM     29  N   UNL     1      -0.671   2.117  -1.555  0.00  0.00    +0.385 N 
ATOM     30  H   UNL     1       0.115   2.426  -0.971  0.00  0.00    -0.081 HD
ENDBRANCH  16  29
ENDBRANCH   1  16
TORSDOF 7
