REMARK  Name = ZINC20609246
REMARK  10 active torsions:
REMARK  status: ('A' for Active; 'I' for Inactive)
REMARK    1  A    between atoms: C_1  and  C_2
REMARK    2  A    between atoms: C_2  and  O_3
REMARK    3  A    between atoms: O_3  and  C_4
REMARK    4  A    between atoms: C_4  and  C_6
REMARK    5  A    between atoms: C_7  and  N_27
REMARK    6  A    between atoms: N_8  and  C_26
REMARK    7  A    between atoms: C_16  and  C_22
REMARK    8  A    between atoms: C_17  and  C_21
REMARK    9  A    between atoms: C_22  and  O_24
REMARK   10  A    between atoms: O_24  and  C_25
REMARK                            x       y       z     vdW  Elec       q    Type
REMARK                         _______ _______ _______ _____ _____    ______ ____
ROOT
ATOM      1  C   UNL     1      -0.276   4.064  -0.572  0.00  0.00    +0.098 C 
ATOM      2  C   UNL     1      -1.357   3.264  -0.299  0.00  0.00    +0.100 C 
ATOM      3  N   UNL     1      -1.189   2.031   0.274  0.00  0.00    -0.291 N 
ATOM      4  C   UNL     1       0.063   1.411   0.256  0.00  0.00    +0.039 A 
ATOM      5  C   UNL     1       0.160   0.045   0.490  0.00  0.00    +0.024 A 
ATOM      6  C   UNL     1       1.393  -0.575   0.464  0.00  0.00    +0.002 A 
ATOM      7  C   UNL     1       2.532   0.166   0.204  0.00  0.00    +0.000 A 
ATOM      8  C   UNL     1       2.440   1.525  -0.028  0.00  0.00    +0.007 A 
ATOM      9  C   UNL     1       1.208   2.154  -0.002  0.00  0.00    +0.000 A 
ATOM     10  C   UNL     1       1.121   3.631  -0.249  0.00  0.00    +0.164 C 
ATOM     11  C   UNL     1       1.645   4.393   0.950  0.00  0.00    +0.100 C 
ATOM     12  C   UNL     1       2.708   5.083   0.505  0.00  0.00    +0.117 C 
ATOM     13  O   UNL     1       2.948   4.881  -0.796  0.00  0.00    -0.429 OA
ATOM     14  C   UNL     1       2.069   4.034  -1.359  0.00  0.00    +0.332 C 
ATOM     15  O   UNL     1       2.041   3.669  -2.510  0.00  0.00    -0.249 OA
ATOM     16  C   UNL     1       3.542   5.987   1.377  0.00  0.00    +0.087 C 
ATOM     17  C   UNL     1      -2.326   1.361   0.909  0.00  0.00    +0.137 C 
ENDROOT
BRANCH   2  18
ATOM     18  N   UNL     1      -2.620   3.703  -0.604  0.00  0.00    -0.346 N 
ATOM     19  H   UNL     1      -3.490   3.067  -0.388  0.00  0.00    +0.143 HD
ATOM     20  H   UNL     1      -2.761   4.692  -1.065  0.00  0.00    +0.143 HD
ENDBRANCH   2  18
BRANCH   1  21
ATOM     21  C   UNL     1      -0.483   5.314  -1.165  0.00  0.00    +0.340 C 
ATOM     22  O   UNL     1      -1.598   5.633  -1.540  0.00  0.00    -0.245 OA
BRANCH  21  23
ATOM     23  O   UNL     1       0.552   6.168  -1.323  0.00  0.00    -0.462 OA
BRANCH  23  25
ATOM     24  C   UNL     1       1.553   8.251  -2.030  0.00  0.00    +0.048 C 
ATOM     25  C   UNL     1       0.267   7.426  -1.937  0.00  0.00    +0.229 C 
ENDBRANCH  23  25
ENDBRANCH  21  23
ENDBRANCH   1  21
BRANCH  11  26
ATOM     26  C   UNL     1       1.121   4.381   2.267  0.00  0.00    +0.340 C 
ATOM     27  O   UNL     1       1.649   5.047   3.138  0.00  0.00    -0.245 OA
BRANCH  26  28
ATOM     28  O   UNL     1       0.038   3.630   2.556  0.00  0.00    -0.465 OA
ATOM     29  C   UNL     1      -0.435   3.665   3.904  0.00  0.00    +0.280 C 
ENDBRANCH  26  28
ENDBRANCH  11  26
TORSDOF 6
