REMARK  Name = ZINC61543888
REMARK  4 active torsions:
REMARK  status: ('A' for Active; 'I' for Inactive)
REMARK    1  A    between atoms: C_1  and  C_2
REMARK    2  A    between atoms: C_5  and  C_21
REMARK    3  A    between atoms: C_6  and  S_8
REMARK    4  A    between atoms: S_8  and  C_9
REMARK                            x       y       z     vdW  Elec       q    Type
REMARK                         _______ _______ _______ _____ _____    ______ ____
ROOT
ATOM      1  C   UNL     1       1.668  -3.686   2.766  0.00  0.00    +0.199 A 
ATOM      2  N   UNL     1       1.993  -4.523   3.747  0.00  0.00    -0.184 NA
ATOM      3  C   UNL     1       3.209  -5.052   3.789  0.00  0.00    +0.256 A 
ATOM      4  N   UNL     1       4.099  -4.745   2.851  0.00  0.00    -0.180 NA
ATOM      5  C   UNL     1       3.775  -3.913   1.875  0.00  0.00    +0.228 A 
ATOM      6  N   UNL     1       2.562  -3.387   1.826  0.00  0.00    -0.191 NA
ATOM      7 CL   UNL     1       4.941  -3.515   0.652  0.00  0.00    -0.041 Cl
ATOM      8  N   UNL     1       3.552  -5.927   4.816  0.00  0.00    -0.205 N 
ATOM      9  C   UNL     1       4.758  -6.534   4.982  0.00  0.00    +0.118 A 
ATOM     10  C   UNL     1       4.681  -7.300   6.094  0.00  0.00    +0.041 A 
ATOM     11  C   UNL     1       3.393  -7.160   6.626  0.00  0.00    +0.135 A 
ATOM     12  N   UNL     1       2.719  -6.336   5.866  0.00  0.00    -0.172 NA
ENDROOT
BRANCH   1  13
ATOM     13  S   UNL     1       0.055  -2.982   2.705  0.00  0.00    -0.050 S 
BRANCH  13  19
ATOM     14  C   UNL     1       0.244   1.488  -0.009  0.00  0.00    +0.044 C 
ATOM     15  C   UNL     1       0.126  -0.015  -0.009  0.00  0.00    -0.049 A 
ATOM     16  C   UNL     1       0.002  -0.697  -1.205  0.00  0.00    +0.004 A 
ATOM     17  C   UNL     1      -0.106  -2.076  -1.210  0.00  0.00    +0.005 A 
ATOM     18  C   UNL     1      -0.090  -2.776  -0.020  0.00  0.00    -0.037 A 
ATOM     19  C   UNL     1       0.035  -2.093   1.184  0.00  0.00    +0.019 A 
ATOM     20  C   UNL     1       0.149  -0.708   1.185  0.00  0.00    +0.018 A 
ATOM     21  C   UNL     1      -0.209  -4.278  -0.026  0.00  0.00    +0.045 C 
ENDBRANCH  13  19
ENDBRANCH   1  13
TORSDOF 2
