REMARK  Name = ZINC39388783
REMARK  4 active torsions:
REMARK  status: ('A' for Active; 'I' for Inactive)
REMARK    1  A    between atoms: C_1  and  C_2
REMARK    2  A    between atoms: C_6  and  C_8
REMARK    3  A    between atoms: C_8  and  S_9
REMARK    4  A    between atoms: S_9  and  C_10
REMARK                            x       y       z     vdW  Elec       q    Type
REMARK                         _______ _______ _______ _____ _____    ______ ____
ROOT
ATOM      1  C   UNL     1       1.622  -4.015   4.517  0.00  0.00    +0.207 C 
ATOM      2  N   UNL     1       0.417  -4.290   4.956  0.00  0.00    -0.227 NA
ATOM      3  C   UNL     1       0.301  -4.956   6.251  0.00  0.00    +0.252 C 
ATOM      4  C   UNL     1       1.573  -5.773   6.427  0.00  0.00    +0.117 C 
ATOM      5  C   UNL     1       1.161  -7.016   6.799  0.00  0.00    +0.025 A 
ATOM      6  C   UNL     1       1.871  -8.172   7.208  0.00  0.00    +0.012 A 
ATOM      7  C   UNL     1       1.143  -9.283   7.503  0.00  0.00    +0.001 A 
ATOM      8  C   UNL     1      -0.252  -9.351   7.427  0.00  0.00    +0.002 A 
ATOM      9  C   UNL     1      -1.035  -8.304   7.055  0.00  0.00    +0.026 A 
ATOM     10  C   UNL     1      -0.332  -7.053   6.723  0.00  0.00    +0.046 A 
ATOM     11  N   UNL     1      -0.803  -5.899   6.359  0.00  0.00    -0.358 N 
ATOM     12  N   UNL     1       2.769  -5.275   6.096  0.00  0.00    -0.147 NA
ATOM     13  N   UNL     1       2.759  -4.379   5.158  0.00  0.00    -0.122 NA
ATOM     14  H   UNL     1      -1.736  -5.698   6.188  0.00  0.00    +0.162 HD
ENDROOT
BRANCH   1  15
ATOM     15  S   UNL     1       1.770  -3.127   3.002  0.00  0.00    -0.080 S 
BRANCH  15  16
ATOM     16  C   UNL     1       0.054  -2.845   2.489  0.00  0.00    +0.112 C 
BRANCH  16  22
ATOM     17  C   UNL     1      -0.018   1.503   0.010  0.00  0.00    +0.044 C 
ATOM     18  C   UNL     1       0.002  -0.004   0.002  0.00  0.00    -0.050 A 
ATOM     19  C   UNL     1       0.006  -0.689  -1.199  0.00  0.00    +0.003 A 
ATOM     20  C   UNL     1       0.025  -2.071  -1.207  0.00  0.00    +0.001 A 
ATOM     21  C   UNL     1       0.040  -2.768  -0.013  0.00  0.00    +0.004 A 
ATOM     22  C   UNL     1       0.037  -2.084   1.188  0.00  0.00    -0.037 A 
ATOM     23  C   UNL     1       0.023  -0.702   1.195  0.00  0.00    +0.007 A 
ENDBRANCH  16  22
ENDBRANCH  15  16
ENDBRANCH   1  15
TORSDOF 3
