REMARK  Name = ZINC49816426
REMARK  5 active torsions:
REMARK  status: ('A' for Active; 'I' for Inactive)
REMARK    1  A    between atoms: C_1  and  C_2
REMARK    2  A    between atoms: C_7  and  C_14
REMARK    3  A    between atoms: C_14  and  C_15
REMARK    4  A    between atoms: C_14  and  C_16
REMARK    5  A    between atoms: C_14  and  C_17
REMARK                            x       y       z     vdW  Elec       q    Type
REMARK                         _______ _______ _______ _____ _____    ______ ____
ROOT
ATOM      1  C   UNL     1      -0.019   1.526   0.010  0.00  0.00    +0.017 C 
ATOM      2  C   UNL     1       0.002  -0.004   0.002  0.00  0.00    +0.077 C 
ATOM      3  C   UNL     1      -1.433  -0.532   0.009  0.00  0.00    +0.049 C 
ATOM      4  C   UNL     1      -2.051  -0.301   1.364  0.00  0.00    -0.025 A 
ATOM      5  C   UNL     1      -3.401  -0.028   1.469  0.00  0.00    +0.009 A 
ATOM      6  C   UNL     1      -3.973   0.171   2.712  0.00  0.00    -0.042 A 
ATOM      7  C   UNL     1      -3.196   0.097   3.853  0.00  0.00    +0.006 A 
ATOM      8  C   UNL     1      -1.845  -0.171   3.755  0.00  0.00    +0.024 A 
ATOM      9  C   UNL     1      -1.266  -0.365   2.507  0.00  0.00    +0.037 A 
ATOM     10  N   UNL     1       0.107  -0.602   2.404  0.00  0.00    -0.285 N 
ATOM     11  C   UNL     1       0.734  -0.501   1.221  0.00  0.00    +0.220 C 
ATOM     12  O   UNL     1       1.902  -0.814   1.133  0.00  0.00    -0.275 OA
ATOM     13  H   UNL     1       0.613  -0.842   3.196  0.00  0.00    +0.155 HD
ENDROOT
BRANCH   6  14
ATOM     14  C   UNL     1      -5.446   0.471   2.823  0.00  0.00    -0.013 C 
ATOM     15  C   UNL     1      -6.248  -0.688   2.227  0.00  0.00    +0.015 C 
ATOM     16  C   UNL     1      -5.821   0.647   4.295  0.00  0.00    +0.015 C 
ATOM     17  C   UNL     1      -5.764   1.757   2.058  0.00  0.00    +0.015 C 
ENDBRANCH   6  14
TORSDOF 1
