REMARK  Name = ZINC60363878
REMARK  8 active torsions:
REMARK  status: ('A' for Active; 'I' for Inactive)
REMARK    1  A    between atoms: C_1  and  C_2
REMARK    2  A    between atoms: C_5  and  C_8
REMARK    3  A    between atoms: N_14  and  C_15
REMARK    4  A    between atoms: C_15  and  C_16
REMARK    5  A    between atoms: N_18  and  C_19
REMARK    6  A    between atoms: C_22  and  N_25
REMARK    7  A    between atoms: N_25  and  C_26
REMARK    8  A    between atoms: C_26  and  C_27
REMARK                            x       y       z     vdW  Elec       q    Type
REMARK                         _______ _______ _______ _____ _____    ______ ____
ROOT
ATOM      1  C   UNL     1      -0.482  -4.355   4.861  0.00  0.00    +0.237 C 
ATOM      2  O   UNL     1      -0.868  -4.542   5.996  0.00  0.00    -0.274 OA
ATOM      3  N   UNL     1      -1.327  -3.860   3.935  0.00  0.00    -0.284 N 
ATOM      4  H   UNL     1      -1.042  -3.781   3.012  0.00  0.00    +0.155 HD
ENDROOT
BRANCH   3   5
ATOM      5  C   UNL     1      -2.618  -3.460   4.308  0.00  0.00    +0.034 A 
ATOM      6  C   UNL     1      -3.674  -3.608   3.418  0.00  0.00    +0.025 A 
ATOM      7  C   UNL     1      -4.946  -3.215   3.785  0.00  0.00    +0.025 A 
ATOM      8  C   UNL     1      -5.168  -2.670   5.043  0.00  0.00    +0.027 A 
ATOM      9  C   UNL     1      -4.112  -2.522   5.932  0.00  0.00    +0.025 A 
ATOM     10  C   UNL     1      -2.841  -2.921   5.567  0.00  0.00    +0.025 A 
BRANCH   8  11
ATOM     11  N   UNL     1      -6.457  -2.271   5.415  0.00  0.00    -0.344 N 
ATOM     12  H   UNL     1      -7.194  -2.374   4.793  0.00  0.00    +0.146 HD
BRANCH  11  13
ATOM     13  C   UNL     1      -6.691  -1.697   6.742  0.00  0.00    +0.105 C 
BRANCH  13  14
ATOM     14  C   UNL     1      -8.173  -1.348   6.892  0.00  0.00    +0.006 C 
ATOM     15  C   UNL     1      -8.540  -0.183   5.948  0.00  0.00    +0.005 C 
ATOM     16  C   UNL     1      -9.556   0.658   6.761  0.00  0.00    +0.000 C 
ATOM     17  C   UNL     1      -8.988   0.584   8.200  0.00  0.00    +0.000 C 
ATOM     18  C   UNL     1      -8.458  -0.860   8.323  0.00  0.00    +0.005 C 
ENDBRANCH  13  14
ENDBRANCH  11  13
ENDBRANCH   8  11
ENDBRANCH   3   5
BRANCH   1  19
ATOM     19  C   UNL     1       0.942  -4.676   4.486  0.00  0.00    +0.221 C 
BRANCH  19  26
ATOM     20  C   UNL     1       1.801  -6.529   5.987  0.00  0.00    +0.163 A 
ATOM     21  N   UNL     1       2.491  -6.608   7.091  0.00  0.00    -0.153 NA
ATOM     22  N   UNL     1       2.798  -5.305   7.505  0.00  0.00    -0.254 N 
ATOM     23  H   UNL     1       3.304  -5.058   8.295  0.00  0.00    +0.191 HD
ATOM     24  C   UNL     1       2.263  -4.456   6.603  0.00  0.00    +0.176 A 
ATOM     25  S   UNL     1       2.353  -2.747   6.648  0.00  0.00    -0.011 S 
ATOM     26  N   UNL     1       1.650  -5.196   5.659  0.00  0.00    -0.294 N 
BRANCH  20  31
ATOM     27  C   UNL     1      -0.247 -10.986   2.976  0.00  0.00    +0.044 C 
ATOM     28  C   UNL     1       0.289  -9.819   3.765  0.00  0.00    -0.050 A 
ATOM     29  C   UNL     1      -0.269  -8.564   3.603  0.00  0.00    +0.004 A 
ATOM     30  C   UNL     1       0.217  -7.491   4.322  0.00  0.00    +0.012 A 
ATOM     31  C   UNL     1       1.274  -7.675   5.213  0.00  0.00    +0.019 A 
ATOM     32  C   UNL     1       1.833  -8.943   5.372  0.00  0.00    +0.012 A 
ATOM     33  C   UNL     1       1.334 -10.009   4.651  0.00  0.00    +0.004 A 
ENDBRANCH  20  31
ENDBRANCH  19  26
ENDBRANCH   1  19
TORSDOF 7
