REMARK  Name = ZINC24350510
REMARK  11 active torsions:
REMARK  status: ('A' for Active; 'I' for Inactive)
REMARK    1  A    between atoms: C_1  and  C_2
REMARK    2  A    between atoms: C_2  and  N_3
REMARK    3  A    between atoms: N_3  and  C_4
REMARK    4  A    between atoms: N_3  and  C_6
REMARK    5  A    between atoms: C_4  and  C_5
REMARK    6  A    between atoms: C_9  and  C_12
REMARK    7  A    between atoms: N_14  and  N_15
REMARK    8  A    between atoms: C_16  and  C_18
REMARK    9  A    between atoms: C_19  and  C_31
REMARK   10  A    between atoms: C_25  and  C_29
REMARK   11  A    between atoms: C_25  and  C_30
REMARK                            x       y       z     vdW  Elec       q    Type
REMARK                         _______ _______ _______ _____ _____    ______ ____
ROOT
ATOM      1  N   UNL     1       0.002  -0.004   0.002  0.00  0.00    -0.229 N 
ATOM      2  C   UNL     1      -0.016   1.344   0.009  0.00  0.00    +0.277 C 
ATOM      3  O   UNL     1       1.029   1.966   0.003  0.00  0.00    -0.267 OA
ATOM      4  H   UNL     1      -0.943  -0.567   0.008  0.00  0.00    +0.173 HD
ENDROOT
BRANCH   2   5
ATOM      5  C   UNL     1      -1.298   2.060   0.019  0.00  0.00    +0.107 A 
ATOM      6  C   UNL     1      -1.453   3.419   0.028  0.00  0.00    -0.010 A 
ATOM      7  C   UNL     1      -2.832   3.664   0.035  0.00  0.00    +0.042 A 
ATOM      8  C   UNL     1      -3.482   2.430   0.034  0.00  0.00    +0.028 A 
ATOM      9  N   UNL     1      -2.550   1.476   0.016  0.00  0.00    -0.354 N 
ATOM     10  H   UNL     1      -2.646   0.380   0.001  0.00  0.00    +0.166 HD
ATOM     11  C   UNL     1      -4.983   2.295   0.044  0.00  0.00    +0.060 C 
ATOM     12  C   UNL     1      -5.603   3.597   0.561  0.00  0.00    -0.023 C 
ATOM     13  C   UNL     1      -5.073   4.799  -0.227  0.00  0.00    +0.086 C 
ATOM     14  C   UNL     1      -3.581   4.930   0.041  0.00  0.00    +0.166 C 
ATOM     15  O   UNL     1      -3.048   6.000   0.245  0.00  0.00    -0.292 OA
ATOM     16  C   UNL     1      -5.251   3.770   2.040  0.00  0.00    +0.011 C 
ATOM     17  C   UNL     1      -7.123   3.526   0.409  0.00  0.00    +0.011 C 
ATOM     18  C   UNL     1      -0.355   4.451   0.029  0.00  0.00    +0.047 C 
ENDBRANCH   2   5
BRANCH   1  21
ATOM     19  C   UNL     1       1.243  -2.036  -0.021  0.00  0.00    +0.260 C 
ATOM     20  O   UNL     1       0.198  -2.658  -0.014  0.00  0.00    -0.269 OA
ATOM     21  N   UNL     1       1.225  -0.688  -0.013  0.00  0.00    -0.230 N 
ATOM     22  H   UNL     1       2.170  -0.125  -0.019  0.00  0.00    +0.173 HD
BRANCH  19  26
ATOM     23  C   UNL     1       4.949  -4.109  -0.067  0.00  0.00    +0.030 A 
ATOM     24  C   UNL     1       3.753  -4.822  -0.060  0.00  0.00    +0.024 A 
ATOM     25  C   UNL     1       2.551  -4.154  -0.045  0.00  0.00    +0.015 A 
ATOM     26  C   UNL     1       2.530  -2.756  -0.037  0.00  0.00    +0.038 A 
ATOM     27  C   UNL     1       3.732  -2.042  -0.050  0.00  0.00    +0.015 A 
ATOM     28  C   UNL     1       4.931  -2.716  -0.059  0.00  0.00    +0.024 A 
BRANCH  23  29
ATOM     29  N   UNL     1       6.162  -4.787  -0.082  0.00  0.00    -0.330 N 
BRANCH  29  31
ATOM     30  C   UNL     1       7.873  -3.784   1.349  0.00  0.00    +0.024 C 
ATOM     31  C   UNL     1       7.421  -4.038  -0.090  0.00  0.00    +0.102 C 
ENDBRANCH  29  31
BRANCH  29  32
ATOM     32  C   UNL     1       6.182  -6.252  -0.090  0.00  0.00    +0.102 C 
ATOM     33  C   UNL     1       6.175  -6.754  -1.536  0.00  0.00    +0.024 C 
ENDBRANCH  29  32
ENDBRANCH  23  29
ENDBRANCH  19  26
ENDBRANCH   1  21
TORSDOF 6
