REMARK  Name = ZINC16010210
REMARK  4 active torsions:
REMARK  status: ('A' for Active; 'I' for Inactive)
REMARK    1  A    between atoms: C_1  and  C_2
REMARK    2  A    between atoms: C_16  and  C_19
REMARK    3  A    between atoms: C_19  and  C_20
REMARK    4  A    between atoms: N_28  and  C_31
REMARK                            x       y       z     vdW  Elec       q    Type
REMARK                         _______ _______ _______ _____ _____    ______ ____
ROOT
ATOM      1  C   UNL     1       1.084   1.296   0.162  0.00  0.00    +0.047 C 
ATOM      2  C   UNL     1       0.789  -0.181   0.107  0.00  0.00    -0.011 A 
ATOM      3  C   UNL     1       0.626  -0.805  -1.114  0.00  0.00    +0.046 A 
ATOM      4  C   UNL     1       0.356  -2.161  -1.174  0.00  0.00    +0.021 A 
ATOM      5  C   UNL     1       0.248  -2.894  -0.005  0.00  0.00    +0.009 A 
ATOM      6  C   UNL     1       0.408  -2.275   1.214  0.00  0.00    +0.004 A 
ATOM      7  C   UNL     1       0.687  -0.912   1.287  0.00  0.00    +0.043 A 
ATOM      8  N   UNL     1       0.815  -0.516   2.620  0.00  0.00    -0.283 N 
ATOM      9  C   UNL     1       0.642  -1.544   3.474  0.00  0.00    +0.243 C 
ATOM     10  O   UNL     1       0.696  -1.496   4.685  0.00  0.00    -0.273 OA
ATOM     11  C   UNL     1       0.357  -2.759   2.635  0.00  0.00    +0.136 C 
ATOM     12  C   UNL     1      -1.006  -3.379   2.970  0.00  0.00    +0.123 C 
ATOM     13  C   UNL     1      -0.783  -4.911   2.833  0.00  0.00    +0.108 C 
ATOM     14  C   UNL     1       0.689  -5.060   2.394  0.00  0.00    +0.072 C 
ATOM     15  N   UNL     1       1.355  -3.816   2.884  0.00  0.00    -0.295 NA
ATOM     16  C   UNL     1      -0.952  -5.416   4.248  0.00  0.00    +0.232 C 
ATOM     17  O   UNL     1      -0.846  -6.572   4.596  0.00  0.00    -0.274 OA
ATOM     18  N   UNL     1      -1.237  -4.388   5.056  0.00  0.00    -0.210 N 
ATOM     19  C   UNL     1      -1.304  -3.185   4.440  0.00  0.00    +0.233 C 
ATOM     20  O   UNL     1      -1.556  -2.124   4.969  0.00  0.00    -0.274 OA
ATOM     21 CL   UNL     1       0.761   0.115  -2.580  0.00  0.00    -0.083 Cl
ATOM     22  H   UNL     1       1.007   0.393   2.899  0.00  0.00    +0.155 HD
ATOM     23  H   UNL     1       2.204  -3.639   2.369  0.00  0.00    +0.124 HD
ENDROOT
BRANCH  18  24
ATOM     24  C   UNL     1      -1.455  -4.543   6.432  0.00  0.00    +0.044 A 
ATOM     25  C   UNL     1      -0.410  -4.921   7.264  0.00  0.00    +0.024 A 
ATOM     26  C   UNL     1      -0.628  -5.073   8.619  0.00  0.00    +0.002 A 
ATOM     27  C   UNL     1      -1.887  -4.850   9.147  0.00  0.00    +0.000 A 
ATOM     28  C   UNL     1      -2.930  -4.474   8.321  0.00  0.00    +0.002 A 
ATOM     29  C   UNL     1      -2.716  -4.315   6.966  0.00  0.00    +0.024 A 
ENDBRANCH  18  24
BRANCH  14  30
ATOM     30  C   UNL     1       1.322  -6.284   3.060  0.00  0.00    +0.054 C 
BRANCH  30  31
ATOM     31  C   UNL     1       2.717  -6.481   2.526  0.00  0.00    -0.046 A 
ATOM     32  C   UNL     1       2.923  -7.265   1.406  0.00  0.00    +0.004 A 
ATOM     33  C   UNL     1       4.203  -7.447   0.916  0.00  0.00    +0.000 A 
ATOM     34  C   UNL     1       5.276  -6.844   1.545  0.00  0.00    +0.000 A 
ATOM     35  C   UNL     1       5.069  -6.059   2.664  0.00  0.00    +0.000 A 
ATOM     36  C   UNL     1       3.789  -5.875   3.152  0.00  0.00    +0.004 A 
ENDBRANCH  30  31
ENDBRANCH  14  30
TORSDOF 3
