REMARK  Name = ZINC13240999
REMARK  6 active torsions:
REMARK  status: ('A' for Active; 'I' for Inactive)
REMARK    1  A    between atoms: C_3  and  N_18
REMARK    2  A    between atoms: C_4  and  C_16
REMARK    3  A    between atoms: C_6  and  S_7
REMARK    4  A    between atoms: S_7  and  N_10
REMARK    5  A    between atoms: C_23  and  C_24
REMARK    6  A    between atoms: C_23  and  N_66
REMARK                            x       y       z     vdW  Elec       q    Type
REMARK                         _______ _______ _______ _____ _____    ______ ____
ROOT
ATOM      1  C   UNL     1       3.644  -2.276  -0.734  0.00  0.00    +0.030 A 
ATOM      2  C   UNL     1       4.048  -2.604  -2.011  0.00  0.00    +0.026 A 
ATOM      3  C   UNL     1       4.744  -1.679  -2.780  0.00  0.00    +0.044 A 
ATOM      4  C   UNL     1       5.027  -0.409  -2.251  0.00  0.00    +0.086 A 
ATOM      5  C   UNL     1       4.606  -0.091  -0.957  0.00  0.00    +0.045 A 
ATOM      6  C   UNL     1       3.917  -1.022  -0.211  0.00  0.00    +0.106 A 
ENDROOT
BRANCH   3   7
ATOM      7  N   UNL     1       5.157  -2.008  -4.064  0.00  0.00    -0.333 N 
ATOM      8  C   UNL     1       4.004  -2.258  -4.940  0.00  0.00    +0.086 C 
ATOM      9  C   UNL     1       4.498  -2.539  -6.361  0.00  0.00    -0.059 C 
ATOM     10  C   UNL     1       6.555  -3.447  -5.467  0.00  0.00    -0.059 C 
ATOM     11  C   UNL     1       6.062  -3.166  -4.046  0.00  0.00    +0.086 C 
ATOM     12  N   UNL     1       5.388  -3.718  -6.332  0.00  0.00    +0.387 N 
ATOM     13  H   UNL     1       4.869  -4.519  -5.952  0.00  0.00    -0.081 HD
BRANCH  12  14
ATOM     14  C   UNL     1       5.839  -4.045  -7.702  0.00  0.00    +0.019 C 
BRANCH  14  15
ATOM     15  C   UNL     1       6.554  -5.371  -7.675  0.00  0.00    +0.199 C 
ATOM     16  O   UNL     1       6.590  -6.021  -6.651  0.00  0.00    -0.278 OA
ATOM     17  N   UNL     1       7.155  -5.836  -8.789  0.00  0.00    -0.303 N 
ATOM     18  C   UNL     1       7.115  -5.064 -10.038  0.00  0.00    +0.107 C 
ATOM     19  C   UNL     1       8.555  -4.875 -10.541  0.00  0.00    +0.019 C 
ATOM     20  C   UNL     1       9.228  -6.243 -10.669  0.00  0.00    +0.003 C 
ATOM     21  C   UNL     1       9.283  -6.917  -9.297  0.00  0.00    +0.019 C 
ATOM     22  C   UNL     1       7.856  -7.127  -8.778  0.00  0.00    +0.107 C 
ENDBRANCH  14  15
ENDBRANCH  12  14
ENDBRANCH   3   7
BRANCH   6  23
ATOM     23  S   UNL     1       3.386  -0.618   1.420  0.00  0.00    +0.061 S 
ATOM     24  O   UNL     1       4.242   0.418   1.881  0.00  0.00    -0.153 OA
ATOM     25  O   UNL     1       3.237  -1.848   2.115  0.00  0.00    -0.153 OA
BRANCH  23  26
ATOM     26  N   UNL     1       1.872   0.041   1.293  0.00  0.00    -0.177 NA
ATOM     27  C   UNL     1       0.677  -0.812   1.355  0.00  0.00    +0.109 C 
ATOM     28  C   UNL     1      -0.186  -0.541   0.119  0.00  0.00    +0.017 C 
ATOM     29  C   UNL     1      -0.487   0.957   0.030  0.00  0.00    +0.003 C 
ATOM     30  C   UNL     1       0.823   1.734  -0.116  0.00  0.00    +0.017 C 
ATOM     31  C   UNL     1       1.698   1.489   1.118  0.00  0.00    +0.109 C 
ENDBRANCH  23  26
ENDBRANCH   6  23
BRANCH   4  32
ATOM     32  C   UNL     1       5.764   0.581  -3.055  0.00  0.00    +0.388 C 
ATOM     33  O   UNL     1       6.129   0.300  -4.180  0.00  0.00    -0.241 OA
ATOM     34  O   UNL     1       6.033   1.798  -2.544  0.00  0.00    -0.241 OA
ENDBRANCH   4  32
TORSDOF 6
