REMARK  Name = ZINC38742723
REMARK  6 active torsions:
REMARK  status: ('A' for Active; 'I' for Inactive)
REMARK    1  A    between atoms: C_1  and  C_2
REMARK    2  A    between atoms: C_2  and  C_3
REMARK    3  A    between atoms: C_2  and  C_4
REMARK    4  A    between atoms: C_6  and  C_10
REMARK    5  A    between atoms: C_18  and  C_20
REMARK    6  A    between atoms: C_21  and  C_22
REMARK                            x       y       z     vdW  Elec       q    Type
REMARK                         _______ _______ _______ _____ _____    ______ ____
ROOT
ATOM      1  C   UNL     1      -4.371  -0.991  -1.469  0.00  0.00    +0.206 C 
ATOM      2  N   UNL     1      -4.216   0.478  -1.597  0.00  0.00    -0.231 NA
ATOM      3  N   UNL     1      -5.459   1.077  -1.082  0.00  0.00    -0.224 NA
ATOM      4  C   UNL     1      -5.975   0.037  -0.170  0.00  0.00    +0.240 C 
ATOM      5  N   UNL     1      -5.752  -1.205  -0.982  0.00  0.00    -0.206 N 
ATOM      6  N   UNL     1      -6.859  -2.023  -1.062  0.00  0.00    -0.174 NA
ATOM      7  C   UNL     1      -8.061  -1.618  -0.752  0.00  0.00    +0.118 C 
ATOM      8  S   UNL     1      -7.804   0.059  -0.091  0.00  0.00    -0.063 S 
ATOM      9  H   UNL     1      -4.058   0.743  -2.557  0.00  0.00    +0.143 HD
ATOM     10  H   UNL     1      -6.111   1.257  -1.831  0.00  0.00    +0.144 HD
ENDROOT
BRANCH   1  13
ATOM     11  C   UNL     1      -1.412  -0.526   0.013  0.00  0.00    +0.064 C 
ATOM     12  C   UNL     1      -1.940  -1.303  -0.935  0.00  0.00    +0.030 C 
ATOM     13  C   UNL     1      -3.362  -1.543  -0.460  0.00  0.00    +0.190 C 
ATOM     14  N   UNL     1      -3.420  -0.792   0.805  0.00  0.00    -0.177 NA
ATOM     15  N   UNL     1      -2.315  -0.275   0.986  0.00  0.00    -0.158 NA
BRANCH  11  17
ATOM     16  C   UNL     1      -0.019   1.526   0.010  0.00  0.00    +0.014 C 
ATOM     17  C   UNL     1       0.002  -0.004   0.002  0.00  0.00    +0.033 C 
ATOM     18  C   UNL     1       0.742  -0.511   1.242  0.00  0.00    +0.014 C 
ENDBRANCH  11  17
ENDBRANCH   1  13
BRANCH   7  19
ATOM     19  C   UNL     1      -9.324  -2.348  -0.892  0.00  0.00    +0.037 C 
ATOM     20  C   UNL     1      -9.328  -3.598  -1.395  0.00  0.00    +0.012 C 
BRANCH  20  21
ATOM     21  C   UNL     1     -10.597  -4.331  -1.535  0.00  0.00    -0.007 A 
ATOM     22  C   UNL     1     -11.801  -3.732  -1.153  0.00  0.00    +0.011 A 
ATOM     23  C   UNL     1     -12.985  -4.424  -1.287  0.00  0.00    +0.020 A 
ATOM     24  C   UNL     1     -12.985  -5.711  -1.799  0.00  0.00    +0.042 A 
ATOM     25  C   UNL     1     -11.797  -6.312  -2.180  0.00  0.00    +0.040 A 
ATOM     26  C   UNL     1     -10.605  -5.629  -2.058  0.00  0.00    +0.049 A 
ATOM     27 CL   UNL     1      -9.117  -6.381  -2.544  0.00  0.00    -0.083 Cl
ATOM     28 CL   UNL     1     -14.482  -6.575  -1.963  0.00  0.00    -0.083 Cl
ENDBRANCH  20  21
ENDBRANCH   7  19
TORSDOF 4
