REMARK  Name = ZINC39710942
REMARK  9 active torsions:
REMARK  status: ('A' for Active; 'I' for Inactive)
REMARK    1  A    between atoms: C_1  and  C_2
REMARK    2  A    between atoms: C_8  and  C_14
REMARK    3  A    between atoms: C_14  and  C_16
REMARK    4  A    between atoms: C_14  and  N_27
REMARK    5  A    between atoms: N_21  and  C_22
REMARK    6  A    between atoms: N_27  and  C_28
REMARK    7  A    between atoms: N_27  and  C_35
REMARK    8  A    between atoms: C_28  and  C_29
REMARK    9  A    between atoms: C_35  and  C_36
REMARK                            x       y       z     vdW  Elec       q    Type
REMARK                         _______ _______ _______ _____ _____    ______ ____
ROOT
ATOM      1  C   UNL     1      -1.387  -3.949   5.816  0.00  0.00    -0.009 C 
ENDROOT
BRANCH   1   9
ATOM      2  C   UNL     1       3.825  -1.355   3.871  0.00  0.00    +0.045 C 
ATOM      3  C   UNL     1       2.382  -1.028   3.587  0.00  0.00    -0.029 A 
ATOM      4  C   UNL     1       2.058   0.172   3.039  0.00  0.00    +0.005 A 
ATOM      5  C   UNL     1       0.743   0.538   2.752  0.00  0.00    +0.001 A 
ATOM      6  C   UNL     1      -0.296  -0.299   3.007  0.00  0.00    +0.009 A 
ATOM      7  C   UNL     1      -0.018  -1.609   3.597  0.00  0.00    -0.007 A 
ATOM      8  C   UNL     1      -1.029  -2.482   3.871  0.00  0.00    -0.006 C 
ATOM      9  C   UNL     1      -0.649  -3.816   4.482  0.00  0.00    +0.088 C 
ATOM     10  C   UNL     1       0.820  -4.070   4.738  0.00  0.00    +0.223 C 
ATOM     11  O   UNL     1       1.181  -5.124   5.226  0.00  0.00    -0.275 OA
ATOM     12  N   UNL     1       1.710  -3.143   4.428  0.00  0.00    -0.284 N 
ATOM     13  C   UNL     1       1.381  -1.970   3.886  0.00  0.00    +0.043 A 
ATOM     14  H   UNL     1       2.647  -3.325   4.600  0.00  0.00    +0.155 HD
ENDBRANCH   1   9
BRANCH   1  15
ATOM     15  C   UNL     1      -1.117  -5.332   6.412  0.00  0.00    +0.205 C 
ATOM     16  N   UNL     1      -0.675  -6.264   5.366  0.00  0.00    -0.152 NA
ATOM     17  N   UNL     1      -1.484  -7.191   5.290  0.00  0.00    -0.070 NA
ATOM     18  N   UNL     1      -2.537  -7.067   6.195  0.00  0.00    -0.179 N 
ATOM     19  N   UNL     1      -2.368  -5.922   6.933  0.00  0.00    -0.185 NA
ATOM     20  H   UNL     1      -3.273  -7.692   6.289  0.00  0.00    +0.191 HD
BRANCH  19  21
ATOM     21  C   UNL     1      -3.500  -5.004   6.748  0.00  0.00    +0.080 C 
ATOM     22  C   UNL     1      -4.688  -5.445   7.628  0.00  0.00    +0.021 C 
ATOM     23  C   UNL     1      -5.935  -5.149   6.759  0.00  0.00    +0.002 C 
ATOM     24  C   UNL     1      -5.457  -5.529   5.335  0.00  0.00    +0.002 C 
ATOM     25  C   UNL     1      -3.989  -5.056   5.290  0.00  0.00    +0.021 C 
ENDBRANCH  19  21
ENDBRANCH   1  15
BRANCH   1  26
ATOM     26  N   UNL     1      -0.911  -2.914   6.744  0.00  0.00    +0.390 N 
ATOM     27  H   UNL     1      -1.239  -3.121   7.675  0.00  0.00    -0.080 HD
BRANCH  26  28
ATOM     28  C   UNL     1      -1.426  -1.605   6.323  0.00  0.00    -0.042 C 
BRANCH  28  29
ATOM     29  C   UNL     1      -2.918  -1.561   6.531  0.00  0.00    -0.064 A 
ATOM     30  C   UNL     1      -3.770  -1.679   5.449  0.00  0.00    +0.002 A 
ATOM     31  C   UNL     1      -5.139  -1.639   5.640  0.00  0.00    +0.000 A 
ATOM     32  C   UNL     1      -5.655  -1.481   6.912  0.00  0.00    +0.000 A 
ATOM     33  C   UNL     1      -4.803  -1.364   7.994  0.00  0.00    +0.000 A 
ATOM     34  C   UNL     1      -3.434  -1.408   7.804  0.00  0.00    +0.002 A 
ENDBRANCH  28  29
ENDBRANCH  26  28
BRANCH  26  35
ATOM     35  C   UNL     1       0.558  -2.888   6.737  0.00  0.00    -0.042 C 
BRANCH  35  36
ATOM     36  C   UNL     1       1.053  -2.136   7.946  0.00  0.00    -0.064 A 
ATOM     37  C   UNL     1       1.253  -0.770   7.875  0.00  0.00    +0.004 A 
ATOM     38  C   UNL     1       1.706  -0.079   8.982  0.00  0.00    +0.038 A 
ATOM     39  C   UNL     1       1.960  -0.756  10.164  0.00  0.00    +0.123 A 
ATOM     40  C   UNL     1       1.759  -2.124  10.233  0.00  0.00    +0.038 A 
ATOM     41  C   UNL     1       1.300  -2.812   9.126  0.00  0.00    +0.004 A 
ATOM     42  F   UNL     1       2.403  -0.081  11.247  0.00  0.00    -0.205 F 
ENDBRANCH  35  36
ENDBRANCH  26  35
ENDBRANCH   1  26
TORSDOF 8
