REMARK  Name = ZINC20876795
REMARK  15 active torsions:
REMARK  status: ('A' for Active; 'I' for Inactive)
REMARK    1  A    between atoms: C_1  and  C_2
REMARK    2  A    between atoms: C_2  and  C_3
REMARK    3  A    between atoms: C_2  and  C_4
REMARK    4  A    between atoms: C_2  and  C_5
REMARK    5  A    between atoms: C_5  and  C_6
REMARK    6  A    between atoms: C_6  and  C_7
REMARK    7  A    between atoms: C_6  and  C_8
REMARK    8  A    between atoms: C_6  and  N_9
REMARK    9  A    between atoms: N_9  and  C_10
REMARK   10  A    between atoms: C_10  and  C_11
REMARK   11  A    between atoms: C_13  and  O_29
REMARK   12  A    between atoms: C_14  and  O_18
REMARK   13  A    between atoms: O_18  and  C_19
REMARK   14  A    between atoms: C_19  and  C_20
REMARK   15  A    between atoms: O_29  and  C_30
REMARK                            x       y       z     vdW  Elec       q    Type
REMARK                         _______ _______ _______ _____ _____    ______ ____
ROOT
ATOM      1  C   UNL     1      -0.880   4.657  -0.946  0.00  0.00    -0.060 A 
ATOM      2  C   UNL     1      -0.474   3.467  -1.522  0.00  0.00    +0.051 A 
ATOM      3  C   UNL     1      -1.023   2.269  -1.095  0.00  0.00    +0.163 A 
ATOM      4  C   UNL     1      -1.986   2.266  -0.090  0.00  0.00    +0.176 A 
ATOM      5  C   UNL     1      -2.383   3.461   0.487  0.00  0.00    +0.063 A 
ATOM      6  C   UNL     1      -1.832   4.655   0.056  0.00  0.00    +0.021 A 
ATOM      7 BR   UNL     1      -3.685   3.462   1.859  0.00  0.00    -0.046 Br
ENDROOT
BRANCH   3   8
ATOM      8  O   UNL     1      -0.625   1.098  -1.661  0.00  0.00    -0.491 OA
ATOM      9  C   UNL     1       0.363   1.178  -2.691  0.00  0.00    +0.277 C 
ENDBRANCH   3   8
BRANCH   1  10
ATOM     10  C   UNL     1      -0.283   5.960  -1.412  0.00  0.00    -0.046 C 
BRANCH  10  11
ATOM     11  N   UNL     1      -1.090   6.502  -2.514  0.00  0.00    +0.385 N 
ATOM     12  H   UNL     1      -2.117   6.662  -2.154  0.00  0.00    -0.085 HD
ATOM     13  H   UNL     1      -1.099   5.772  -3.337  0.00  0.00    -0.085 HD
BRANCH  11  14
ATOM     14  C   UNL     1      -0.536   7.775  -2.995  0.00  0.00    -0.073 C 
ATOM     15  C   UNL     1      -0.523   8.790  -1.851  0.00  0.00    -0.010 C 
ATOM     16  C   UNL     1       0.892   7.553  -3.497  0.00  0.00    -0.010 C 
BRANCH  14  17
ATOM     17  C   UNL     1      -1.402   8.307  -4.139  0.00  0.00    -0.007 C 
BRANCH  17  19
ATOM     18  C   UNL     1      -2.705   6.194  -4.421  0.00  0.00    +0.010 C 
ATOM     19  C   UNL     1      -1.736   7.164  -5.100  0.00  0.00    -0.039 C 
ATOM     20  C   UNL     1      -2.386   7.733  -6.363  0.00  0.00    +0.010 C 
ATOM     21  C   UNL     1      -0.452   6.422  -5.477  0.00  0.00    +0.010 C 
ENDBRANCH  17  19
ENDBRANCH  14  17
ENDBRANCH  11  14
ENDBRANCH  10  11
ENDBRANCH   1  10
BRANCH   4  22
ATOM     22  O   UNL     1      -2.531   1.092   0.328  0.00  0.00    -0.483 OA
BRANCH  22  23
ATOM     23  C   UNL     1      -1.875   0.419   1.404  0.00  0.00    +0.265 C 
BRANCH  23  24
ATOM     24  C   UNL     1      -2.616  -0.852   1.728  0.00  0.00    -0.007 A 
ATOM     25  C   UNL     1      -3.631  -0.840   2.666  0.00  0.00    +0.011 A 
ATOM     26  C   UNL     1      -4.317  -2.003   2.962  0.00  0.00    +0.050 A 
ATOM     27  C   UNL     1      -3.981  -3.187   2.327  0.00  0.00    +0.166 A 
ATOM     28  C   UNL     1      -2.955  -3.201   1.385  0.00  0.00    +0.167 A 
ATOM     29  C   UNL     1      -2.275  -2.030   1.089  0.00  0.00    +0.056 A 
ATOM     30  O   UNL     1      -2.818  -4.472   0.908  0.00  0.00    -0.453 OA
ATOM     31  C   UNL     1      -3.492  -5.315   1.861  0.00  0.00    +0.466 C 
ATOM     32  O   UNL     1      -4.487  -4.450   2.439  0.00  0.00    -0.453 OA
ENDBRANCH  23  24
ENDBRANCH  22  23
ENDBRANCH   4  22
TORSDOF 9
