REMARK  Name = ZINC14788384
REMARK  11 active torsions:
REMARK  status: ('A' for Active; 'I' for Inactive)
REMARK    1  A    between atoms: C_1  and  C_2
REMARK    2  A    between atoms: C_2  and  C_3
REMARK    3  A    between atoms: C_3  and  C_4
REMARK    4  A    between atoms: C_4  and  N_5
REMARK    5  A    between atoms: C_6  and  N_31
REMARK    6  A    between atoms: C_7  and  N_14
REMARK    7  A    between atoms: N_14  and  C_15
REMARK    8  A    between atoms: C_15  and  C_16
REMARK    9  A    between atoms: C_16  and  O_17
REMARK   10  A    between atoms: O_17  and  C_18
REMARK   11  A    between atoms: C_19  and  C_21
REMARK                            x       y       z     vdW  Elec       q    Type
REMARK                         _______ _______ _______ _____ _____    ______ ____
ROOT
ATOM      1  N   UNL     1      -0.688   1.899   0.378  0.00  0.00    -0.280 N 
ATOM      2  C   UNL     1       0.546   2.426   0.683  0.00  0.00    +0.127 A 
ATOM      3  C   UNL     1       1.166   3.260  -0.224  0.00  0.00    +0.140 A 
ATOM      4  C   UNL     1       0.514   3.546  -1.439  0.00  0.00    +0.277 A 
ATOM      5  O   UNL     1       1.040   4.280  -2.259  0.00  0.00    -0.266 OA
ATOM      6  N   UNL     1      -0.694   3.004  -1.689  0.00  0.00    -0.273 N 
ATOM      7  H   UNL     1      -1.156   3.204  -2.553  0.00  0.00    +0.173 HD
ATOM      8  C   UNL     1      -1.285   2.197  -0.790  0.00  0.00    +0.331 A 
ATOM      9  O   UNL     1      -2.377   1.725  -1.039  0.00  0.00    -0.246 OA
ENDROOT
BRANCH   3  10
ATOM     10  N   UNL     1       2.431   3.816   0.060  0.00  0.00    -0.261 N 
ATOM     11  C   UNL     1       2.554   5.145   0.258  0.00  0.00    +0.234 C 
ATOM     12  O   UNL     1       1.566   5.848   0.290  0.00  0.00    -0.274 OA
BRANCH  11  13
ATOM     13  C   UNL     1       3.920   5.756   0.438  0.00  0.00    +0.142 C 
ATOM     14  C   UNL     1       3.932   7.242   0.016  0.00  0.00    +0.060 C 
ATOM     15  C   UNL     1       4.827   8.072   0.902  0.00  0.00    -0.032 A 
ATOM     16  C   UNL     1       5.367   9.326   0.602  0.00  0.00    +0.005 A 
ATOM     17  C   UNL     1       6.166   9.992   1.503  0.00  0.00    +0.000 A 
ATOM     18  C   UNL     1       6.460   9.437   2.735  0.00  0.00    +0.001 A 
ATOM     19  C   UNL     1       5.942   8.196   3.054  0.00  0.00    +0.015 A 
ATOM     20  C   UNL     1       5.143   7.527   2.144  0.00  0.00    +0.012 A 
ATOM     21  S   UNL     1       4.343   5.939   2.220  0.00  0.00    -0.112 S 
ENDBRANCH  11  13
BRANCH  10  22
ATOM     22  C   UNL     1       3.610   2.951   0.141  0.00  0.00    +0.142 C 
BRANCH  22  23
ATOM     23  C   UNL     1       4.169   2.719  -1.264  0.00  0.00    +0.178 C 
BRANCH  23  24
ATOM     24  O   UNL     1       4.644   3.956  -1.799  0.00  0.00    -0.381 OA
ATOM     25  C   UNL     1       5.190   3.849  -3.115  0.00  0.00    +0.194 C 
ENDBRANCH  23  24
ENDBRANCH  22  23
ENDBRANCH  10  22
ENDBRANCH   3  10
BRANCH   2  26
ATOM     26  N   UNL     1       1.154   2.124   1.879  0.00  0.00    -0.343 N 
ATOM     27  H   UNL     1       2.055   2.436   2.057  0.00  0.00    +0.144 HD
ATOM     28  H   UNL     1       0.682   1.600   2.545  0.00  0.00    +0.144 HD
ENDBRANCH   2  26
BRANCH   1  29
ATOM     29  C   UNL     1      -1.357   1.012   1.333  0.00  0.00    +0.128 C 
BRANCH  29  30
ATOM     30  C   UNL     1      -2.229   1.843   2.276  0.00  0.00    +0.021 C 
BRANCH  30  32
ATOM     31  C   UNL     1      -3.800   1.748   4.217  0.00  0.00    +0.004 C 
ATOM     32  C   UNL     1      -2.928   0.917   3.273  0.00  0.00    -0.002 C 
ENDBRANCH  30  32
ENDBRANCH  29  30
ENDBRANCH   1  29
TORSDOF 9
