REMARK  Name = ZINC41584236
REMARK  12 active torsions:
REMARK  status: ('A' for Active; 'I' for Inactive)
REMARK    1  A    between atoms: C_1  and  C_2
REMARK    2  A    between atoms: C_2  and  C_3
REMARK    3  A    between atoms: C_3  and  C_4
REMARK    4  A    between atoms: C_4  and  N_5
REMARK    5  A    between atoms: N_5  and  C_6
REMARK    6  A    between atoms: N_5  and  C_10
REMARK    7  A    between atoms: C_6  and  C_7
REMARK    8  A    between atoms: C_7  and  C_8
REMARK    9  A    between atoms: C_8  and  C_9
REMARK   10  A    between atoms: C_10  and  C_11
REMARK   11  A    between atoms: C_12  and  O_34
REMARK   12  A    between atoms: C_21  and  C_22
REMARK                            x       y       z     vdW  Elec       q    Type
REMARK                         _______ _______ _______ _____ _____    ______ ____
ROOT
ATOM      1  C   UNL     1      -0.367  -4.216  -2.850  0.00  0.00    +0.020 A 
ATOM      2  C   UNL     1      -1.097  -4.515  -1.710  0.00  0.00    +0.122 A 
ATOM      3  C   UNL     1      -2.462  -4.779  -1.793  0.00  0.00    +0.046 A 
ATOM      4  C   UNL     1      -3.099  -4.747  -3.001  0.00  0.00    +0.016 A 
ATOM      5  C   UNL     1      -2.378  -4.447  -4.159  0.00  0.00    +0.026 A 
ATOM      6  C   UNL     1      -1.002  -4.174  -4.082  0.00  0.00    +0.144 A 
ATOM      7  O   UNL     1      -0.308  -3.879  -5.203  0.00  0.00    -0.422 OA
ATOM      8  C   UNL     1      -0.895  -3.831  -6.410  0.00  0.00    +0.338 A 
ATOM      9  O   UNL     1      -0.219  -3.560  -7.387  0.00  0.00    -0.245 OA
ATOM     10  C   UNL     1      -2.264  -4.084  -6.578  0.00  0.00    +0.101 A 
ATOM     11  C   UNL     1      -3.039  -4.406  -5.475  0.00  0.00    +0.006 A 
ENDROOT
BRANCH  11  12
ATOM     12  C   UNL     1      -4.482  -4.678  -5.611  0.00  0.00    +0.068 A 
ATOM     13  C   UNL     1      -4.947  -5.727  -6.391  0.00  0.00    +0.027 A 
ATOM     14  C   UNL     1      -6.351  -5.908  -6.499  0.00  0.00    +0.020 A 
ATOM     15  C   UNL     1      -6.875  -7.060  -7.103  0.00  0.00    +0.031 A 
ATOM     16  C   UNL     1      -8.238  -7.239  -7.162  0.00  0.00    +0.042 A 
ATOM     17  C   UNL     1      -9.096  -6.282  -6.634  0.00  0.00    +0.023 A 
ATOM     18  C   UNL     1      -8.596  -5.134  -6.055  0.00  0.00    +0.048 A 
ATOM     19  C   UNL     1      -7.225  -4.930  -5.990  0.00  0.00    +0.139 A 
ATOM     20  O   UNL     1      -6.728  -3.785  -5.461  0.00  0.00    -0.422 OA
ATOM     21  C   UNL     1      -5.488  -3.850  -4.920  0.00  0.00    +0.345 A 
ATOM     22  O   UNL     1      -5.211  -3.245  -3.901  0.00  0.00    -0.245 OA
ATOM     23 CL   UNL     1      -8.890  -8.668  -7.900  0.00  0.00    -0.084 Cl
ENDBRANCH  11  12
BRANCH   2  24
ATOM     24  O   UNL     1      -0.476  -4.551  -0.503  0.00  0.00    -0.506 OA
ATOM     25  H   UNL     1      -0.469  -3.703  -0.039  0.00  0.00    +0.292 HD
ENDBRANCH   2  24
BRANCH   1  26
ATOM     26  C   UNL     1       1.109  -3.932  -2.749  0.00  0.00    -0.036 C 
BRANCH  26  27
ATOM     27  N   UNL     1       1.317  -2.494  -2.531  0.00  0.00    +0.383 N 
ATOM     28  H   UNL     1       0.856  -1.973  -3.261  0.00  0.00    -0.081 HD
BRANCH  27  29
ATOM     29  C   UNL     1       0.758  -2.111  -1.227  0.00  0.00    -0.078 C 
BRANCH  29  30
ATOM     30  C   UNL     1       0.884  -0.598  -1.044  0.00  0.00    -0.019 C 
BRANCH  30  32
ATOM     31  C   UNL     1       0.309   1.333   0.434  0.00  0.00    +0.004 C 
ATOM     32  C   UNL     1       0.183  -0.181   0.251  0.00  0.00    -0.005 C 
ENDBRANCH  30  32
ENDBRANCH  29  30
ENDBRANCH  27  29
BRANCH  27  33
ATOM     33  C   UNL     1       2.756  -2.199  -2.552  0.00  0.00    -0.078 C 
BRANCH  33  34
ATOM     34  C   UNL     1       3.310  -2.463  -3.954  0.00  0.00    -0.019 C 
BRANCH  34  35
ATOM     35  C   UNL     1       4.776  -2.030  -4.013  0.00  0.00    -0.005 C 
ATOM     36  C   UNL     1       5.330  -2.294  -5.414  0.00  0.00    +0.004 C 
ENDBRANCH  34  35
ENDBRANCH  33  34
ENDBRANCH  27  33
ENDBRANCH  26  27
ENDBRANCH   1  26
TORSDOF 10
