REMARK  Name = ZINC08845414
REMARK  8 active torsions:
REMARK  status: ('A' for Active; 'I' for Inactive)
REMARK    1  A    between atoms: C_1  and  C_2
REMARK    2  A    between atoms: C_5  and  C_8
REMARK    3  A    between atoms: C_8  and  N_9
REMARK    4  A    between atoms: C_10  and  C_29
REMARK    5  A    between atoms: C_13  and  C_20
REMARK    6  A    between atoms: C_23  and  C_27
REMARK    7  A    between atoms: C_25  and  O_26
REMARK    8  A    between atoms: C_33  and  O_35
REMARK                            x       y       z     vdW  Elec       q    Type
REMARK                         _______ _______ _______ _____ _____    ______ ____
ROOT
ATOM      1  N   UNL     1       1.243  -4.525  -0.254  0.00  0.00    -0.281 N 
ATOM      2  C   UNL     1       2.340  -4.721  -1.211  0.00  0.00    +0.142 C 
ATOM      3  C   UNL     1       3.537  -5.127  -0.394  0.00  0.00    +0.035 A 
ATOM      4  C   UNL     1       4.887  -5.492  -0.382  0.00  0.00    +0.102 A 
ATOM      5  N   UNL     1       5.225  -5.712   0.874  0.00  0.00    -0.173 NA
ATOM      6  N   UNL     1       4.222  -5.522   1.655  0.00  0.00    -0.272 N 
ATOM      7  H   UNL     1       4.239  -5.625   2.619  0.00  0.00    +0.189 HD
ATOM      8  C   UNL     1       3.127  -5.153   0.925  0.00  0.00    +0.126 A 
ATOM      9  C   UNL     1       1.712  -4.772   0.982  0.00  0.00    +0.266 C 
ATOM     10  O   UNL     1       1.054  -4.694   2.002  0.00  0.00    -0.268 OA
ENDROOT
BRANCH   4  11
ATOM     11  C   UNL     1       5.776  -5.609  -1.564  0.00  0.00    +0.045 A 
ATOM     12  C   UNL     1       5.339  -6.281  -2.704  0.00  0.00    +0.034 A 
ATOM     13  C   UNL     1       6.170  -6.387  -3.802  0.00  0.00    +0.045 A 
ATOM     14  C   UNL     1       7.437  -5.829  -3.773  0.00  0.00    -0.029 A 
ATOM     15  C   UNL     1       7.880  -5.161  -2.647  0.00  0.00    +0.050 A 
ATOM     16  C   UNL     1       7.053  -5.042  -1.541  0.00  0.00    +0.126 A 
ATOM     17  C   UNL     1       8.338  -5.951  -4.976  0.00  0.00    +0.045 C 
ATOM     18 CL   UNL     1       5.625  -7.224  -5.221  0.00  0.00    -0.083 Cl
BRANCH  16  19
ATOM     19  O   UNL     1       7.486  -4.381  -0.436  0.00  0.00    -0.506 OA
ATOM     20  H   UNL     1       7.940  -4.943   0.207  0.00  0.00    +0.292 HD
ENDBRANCH  16  19
ENDBRANCH   4  11
BRANCH   2  21
ATOM     21  C   UNL     1       2.624  -3.437  -1.946  0.00  0.00    -0.019 A 
ATOM     22  C   UNL     1       2.807  -2.262  -1.240  0.00  0.00    +0.006 A 
ATOM     23  C   UNL     1       3.067  -1.083  -1.911  0.00  0.00    +0.004 A 
ATOM     24  C   UNL     1       3.144  -1.074  -3.291  0.00  0.00    +0.045 A 
ATOM     25  C   UNL     1       2.961  -2.251  -4.002  0.00  0.00    +0.117 A 
ATOM     26  C   UNL     1       2.706  -3.435  -3.325  0.00  0.00    +0.051 A 
BRANCH  25  27
ATOM     27  O   UNL     1       3.037  -2.245  -5.359  0.00  0.00    -0.507 OA
ATOM     28  H   UNL     1       3.926  -2.407  -5.704  0.00  0.00    +0.292 HD
ENDBRANCH  25  27
ENDBRANCH   2  21
BRANCH   1  29
ATOM     29  C   UNL     1      -0.125  -4.123  -0.589  0.00  0.00    +0.144 C 
BRANCH  29  34
ATOM     30  C   UNL     1      -0.513   1.643  -0.517  0.00  0.00    +0.044 C 
ATOM     31  C   UNL     1      -0.412   0.139  -0.536  0.00  0.00    -0.050 A 
ATOM     32  C   UNL     1      -0.071  -0.516  -1.704  0.00  0.00    +0.003 A 
ATOM     33  C   UNL     1       0.022  -1.895  -1.721  0.00  0.00    +0.005 A 
ATOM     34  C   UNL     1      -0.226  -2.619  -0.570  0.00  0.00    -0.030 A 
ATOM     35  C   UNL     1      -0.566  -1.964   0.599  0.00  0.00    +0.005 A 
ATOM     36  C   UNL     1      -0.655  -0.584   0.617  0.00  0.00    +0.003 A 
ENDBRANCH  29  34
ENDBRANCH   1  29
TORSDOF 6
