REMARK  Name = ZINC39441507
REMARK  5 active torsions:
REMARK  status: ('A' for Active; 'I' for Inactive)
REMARK    1  A    between atoms: C_1  and  C_2
REMARK    2  A    between atoms: C_2  and  C_4
REMARK    3  A    between atoms: C_2  and  S_17
REMARK    4  A    between atoms: S_17  and  C_18
REMARK    5  A    between atoms: N_22  and  C_23
REMARK                            x       y       z     vdW  Elec       q    Type
REMARK                         _______ _______ _______ _____ _____    ______ ____
ROOT
ATOM      1  S   UNL     1      -0.233   0.048   2.143  0.00  0.00    -0.073 S 
ENDROOT
BRANCH   1   2
ATOM      2  C   UNL     1       1.508   0.281   2.007  0.00  0.00    +0.198 A 
ATOM      3  N   UNL     1       2.134   0.841   1.000  0.00  0.00    -0.120 NA
ATOM      4  N   UNL     1       3.506   0.832   1.284  0.00  0.00    -0.112 NA
ATOM      5  C   UNL     1       3.676   0.267   2.453  0.00  0.00    +0.225 A 
ATOM      6  N   UNL     1       2.445  -0.085   2.936  0.00  0.00    -0.259 N 
ATOM      7  N   UNL     1       4.892   0.064   3.093  0.00  0.00    -0.299 N 
ATOM      8  C   UNL     1       4.963  -0.719   4.335  0.00  0.00    +0.108 C 
ATOM      9  C   UNL     1       6.004  -1.829   4.159  0.00  0.00    +0.019 C 
ATOM     10  C   UNL     1       7.336  -1.211   3.728  0.00  0.00    +0.003 C 
ATOM     11  C   UNL     1       7.159  -0.497   2.386  0.00  0.00    +0.019 C 
ATOM     12  C   UNL     1       6.133   0.623   2.539  0.00  0.00    +0.108 C 
BRANCH   6  13
ATOM     13  C   UNL     1       2.188  -0.712   4.164  0.00  0.00    +0.052 A 
ATOM     14  C   UNL     1       2.332  -0.005   5.349  0.00  0.00    +0.026 A 
ATOM     15  C   UNL     1       2.077  -0.625   6.557  0.00  0.00    +0.002 A 
ATOM     16  C   UNL     1       1.680  -1.950   6.586  0.00  0.00    +0.000 A 
ATOM     17  C   UNL     1       1.536  -2.656   5.406  0.00  0.00    +0.002 A 
ATOM     18  C   UNL     1       1.784  -2.040   4.195  0.00  0.00    +0.026 A 
ENDBRANCH   6  13
ENDBRANCH   1   2
BRANCH   1  20
ATOM     19  C   UNL     1      -0.622   2.248   0.564  0.00  0.00    +0.029 C 
ATOM     20  C   UNL     1      -0.891   0.742   0.601  0.00  0.00    +0.137 C 
BRANCH  20  21
ATOM     21  C   UNL     1      -2.376   0.495   0.533  0.00  0.00    +0.230 C 
ATOM     22  O   UNL     1      -3.013   0.342   1.554  0.00  0.00    -0.274 OA
ATOM     23  N   UNL     1      -2.997   0.446  -0.662  0.00  0.00    -0.285 N 
ATOM     24  C   UNL     1      -3.703  -0.617  -0.995  0.00  0.00    +0.036 C 
ATOM     25  C   UNL     1      -3.718  -1.793  -0.116  0.00  0.00    +0.025 C 
ATOM     26  C   UNL     1      -4.438  -2.882  -0.449  0.00  0.00    +0.032 C 
ATOM     27  C   UNL     1      -5.212  -2.900  -1.695  0.00  0.00    +0.095 C 
ATOM     28  N   UNL     1      -5.991  -3.788  -2.281  0.00  0.00    -0.190 NA
ATOM     29  C   UNL     1      -6.457  -3.277  -3.433  0.00  0.00    +0.369 C 
ATOM     30  O   UNL     1      -7.287  -3.934  -4.278  0.00  0.00    -0.243 OA
ATOM     31  N   UNL     1      -6.007  -2.061  -3.636  0.00  0.00    -0.190 NA
ATOM     32  C   UNL     1      -5.204  -1.724  -2.586  0.00  0.00    +0.097 C 
ATOM     33  C   UNL     1      -4.484  -0.623  -2.251  0.00  0.00    +0.053 C 
ATOM     34  H   UNL     1      -2.924   1.192  -1.278  0.00  0.00    +0.155 HD
ENDBRANCH  20  21
ENDBRANCH   1  20
TORSDOF 4
