REMARK  Name = ZINC06696999
REMARK  5 active torsions:
REMARK  status: ('A' for Active; 'I' for Inactive)
REMARK    1  A    between atoms: C_1  and  C_2
REMARK    2  A    between atoms: C_2  and  C_3
REMARK    3  A    between atoms: C_6  and  N_9
REMARK    4  A    between atoms: C_21  and  C_23
REMARK    5  A    between atoms: C_23  and  C_24
REMARK                            x       y       z     vdW  Elec       q    Type
REMARK                         _______ _______ _______ _____ _____    ______ ____
ROOT
ATOM      1  N   UNL     1      -1.043   5.681   7.511  0.00  0.00    -0.269 N 
ATOM      2  C   UNL     1      -0.917   4.469   6.936  0.00  0.00    +0.307 C 
ATOM      3  O   UNL     1      -1.658   3.561   7.262  0.00  0.00    -0.252 OA
ATOM      4  N   UNL     1       0.029   4.262   5.999  0.00  0.00    -0.280 N 
ATOM      5  C   UNL     1       0.272   2.923   5.437  0.00  0.00    +0.116 C 
ATOM      6  C   UNL     1      -0.053   2.974   3.945  0.00  0.00    +0.075 C 
ATOM      7  C   UNL     1       0.581   4.177   3.299  0.00  0.00    +0.055 A 
ATOM      8  C   UNL     1       0.978   5.266   4.000  0.00  0.00    +0.055 A 
ATOM      9  C   UNL     1       1.529   6.364   3.299  0.00  0.00    +0.256 A 
ATOM     10  O   UNL     1       1.883   7.367   3.896  0.00  0.00    -0.267 OA
ATOM     11  N   UNL     1       1.661   6.281   1.959  0.00  0.00    -0.310 N 
ATOM     12  H   UNL     1       2.057   7.042   1.445  0.00  0.00    +0.170 HD
ATOM     13  C   UNL     1       1.258   5.166   1.319  0.00  0.00    +0.114 A 
ATOM     14  N   UNL     1       0.742   4.160   1.966  0.00  0.00    -0.238 NA
ATOM     15  C   UNL     1       0.862   5.362   5.498  0.00  0.00    +0.151 C 
ATOM     16  H   UNL     1      -0.529   6.432   7.176  0.00  0.00    +0.156 HD
ENDROOT
BRANCH   1  20
ATOM     17  C   UNL     1      -3.637   6.201  10.729  0.00  0.00    -0.048 A 
ATOM     18  C   UNL     1      -3.435   7.234   9.832  0.00  0.00    +0.005 A 
ATOM     19  C   UNL     1      -2.575   7.065   8.764  0.00  0.00    +0.023 A 
ATOM     20  C   UNL     1      -1.914   5.856   8.592  0.00  0.00    +0.035 A 
ATOM     21  C   UNL     1      -2.123   4.819   9.492  0.00  0.00    +0.023 A 
ATOM     22  C   UNL     1      -2.980   4.996  10.561  0.00  0.00    +0.005 A 
BRANCH  17  24
ATOM     23  C   UNL     1      -5.988   5.969  11.483  0.00  0.00    +0.009 C 
ATOM     24  C   UNL     1      -4.575   6.390  11.893  0.00  0.00    +0.032 C 
ENDBRANCH  17  24
ENDBRANCH   1  20
BRANCH  13  25
ATOM     25  C   UNL     1       1.413   5.079  -0.178  0.00  0.00    +0.112 C 
BRANCH  25  26
ATOM     26  C   UNL     1       0.902   3.746  -0.659  0.00  0.00    -0.005 A 
ATOM     27  C   UNL     1       1.779   2.693  -0.839  0.00  0.00    +0.007 A 
ATOM     28  C   UNL     1       1.310   1.470  -1.281  0.00  0.00    +0.000 A 
ATOM     29  C   UNL     1      -0.037   1.298  -1.543  0.00  0.00    +0.003 A 
ATOM     30  C   UNL     1      -0.915   2.350  -1.365  0.00  0.00    +0.038 A 
ATOM     31  C   UNL     1      -0.447   3.575  -0.922  0.00  0.00    +0.127 A 
ATOM     32  F   UNL     1      -1.304   4.606  -0.753  0.00  0.00    -0.205 F 
ENDBRANCH  25  26
ENDBRANCH  13  25
TORSDOF 4
