REMARK  Name = ZINC32604876
REMARK  3 active torsions:
REMARK  status: ('A' for Active; 'I' for Inactive)
REMARK    1  A    between atoms: C_4  and  N_7
REMARK    2  A    between atoms: C_16  and  S_20
REMARK    3  A    between atoms: S_20  and  C_21
REMARK                            x       y       z     vdW  Elec       q    Type
REMARK                         _______ _______ _______ _____ _____    ______ ____
ROOT
ATOM      1  N   UNL     1       1.161   2.991   0.006  0.00  0.00    -0.258 N 
ATOM      2  C   UNL     1       0.003   3.679   0.020  0.00  0.00    +0.260 A 
ATOM      3  O   UNL     1       0.013   4.897   0.025  0.00  0.00    -0.267 OA
ATOM      4  C   UNL     1      -1.228   2.975   0.028  0.00  0.00    +0.038 A 
ATOM      5  C   UNL     1      -1.213   1.627   0.017  0.00  0.00    +0.043 A 
ATOM      6  N   UNL     1      -0.011   0.966   0.007  0.00  0.00    -0.310 N 
ATOM      7  H   UNL     1       0.012  -0.134   0.006  0.00  0.00    +0.170 HD
ATOM      8  C   UNL     1       1.149   1.645  -0.000  0.00  0.00    +0.330 A 
ATOM      9  O   UNL     1       2.201   1.036  -0.013  0.00  0.00    -0.246 OA
ATOM     10  C   UNL     1      -2.627   1.087   0.021  0.00  0.00    +0.109 C 
ATOM     11  C   UNL     1      -3.512   2.279  -0.404  0.00  0.00    +0.026 C 
ATOM     12  C   UNL     1      -2.652   3.486   0.044  0.00  0.00    +0.044 C 
ENDROOT
BRANCH   1  16
ATOM     13  C   UNL     1       5.367   3.704  -0.032  0.00  0.00    +0.000 C 
ATOM     14  C   UNL     1       4.581   4.077   1.227  0.00  0.00    +0.002 C 
ATOM     15  C   UNL     1       3.248   3.326   1.236  0.00  0.00    +0.025 C 
ATOM     16  C   UNL     1       2.438   3.710  -0.003  0.00  0.00    +0.095 C 
ATOM     17  C   UNL     1       3.224   3.338  -1.262  0.00  0.00    +0.025 C 
ATOM     18  C   UNL     1       4.557   4.088  -1.271  0.00  0.00    +0.002 C 
ENDBRANCH   1  16
BRANCH  10  19
ATOM     19  S   UNL     1      -3.081   0.527   1.682  0.00  0.00    -0.037 S 
BRANCH  19  20
ATOM     20  C   UNL     1      -4.710  -0.183   1.339  0.00  0.00    +0.134 C 
ATOM     21  N   UNL     1      -5.732  -0.629   1.125  0.00  0.00    -0.184 NA
ENDBRANCH  19  20
ENDBRANCH  10  19
TORSDOF 3
