REMARK  Name = ZINC49573676
REMARK  10 active torsions:
REMARK  status: ('A' for Active; 'I' for Inactive)
REMARK    1  A    between atoms: C_1  and  C_2
REMARK    2  A    between atoms: C_2  and  C_3
REMARK    3  A    between atoms: C_4  and  O_38
REMARK    4  A    between atoms: C_7  and  C_9
REMARK    5  A    between atoms: N_10  and  C_11
REMARK    6  A    between atoms: C_11  and  C_12
REMARK    7  A    between atoms: C_12  and  C_14
REMARK    8  A    between atoms: C_14  and  O_37
REMARK    9  A    between atoms: C_19  and  C_36
REMARK   10  A    between atoms: C_34  and  C_35
REMARK                            x       y       z     vdW  Elec       q    Type
REMARK                         _______ _______ _______ _____ _____    ______ ____
ROOT
ATOM      1  C   UNL     1       6.732  -1.370  -5.257  0.00  0.00    +0.131 C 
ATOM      2  C   UNL     1       6.368  -0.526  -6.501  0.00  0.00    +0.043 C 
ATOM      3  C   UNL     1       7.700  -0.113  -7.156  0.00  0.00    +0.008 C 
ATOM      4  C   UNL     1       8.823  -0.766  -6.305  0.00  0.00    +0.002 C 
ATOM      5  C   UNL     1       8.166  -0.917  -4.927  0.00  0.00    +0.007 C 
ATOM      6  C   UNL     1       8.891  -1.894  -4.031  0.00  0.00    +0.010 C 
ATOM      7  C   UNL     1       9.043  -3.245  -4.725  0.00  0.00    +0.005 C 
ATOM      8  C   UNL     1       9.861  -3.056  -6.012  0.00  0.00    +0.002 C 
ATOM      9  C   UNL     1       9.139  -2.114  -6.967  0.00  0.00    -0.003 C 
ATOM     10  C   UNL     1       9.922  -1.817  -8.243  0.00  0.00    +0.008 C 
ATOM     11  C   UNL     1      10.797  -2.982  -8.681  0.00  0.00    +0.032 C 
ATOM     12  C   UNL     1      10.210  -4.271  -8.162  0.00  0.00    -0.060 C 
ATOM     13  C   UNL     1       9.836  -5.232  -9.000  0.00  0.00    +0.046 C 
ATOM     14  C   UNL     1       9.254  -6.478  -8.506  0.00  0.00    +0.156 C 
ATOM     15  O   UNL     1       8.942  -7.354  -9.286  0.00  0.00    -0.293 OA
ATOM     16  C   UNL     1       9.043  -6.676  -7.026  0.00  0.00    +0.080 C 
ATOM     17  C   UNL     1       8.848  -5.307  -6.364  0.00  0.00    +0.019 C 
ATOM     18  C   UNL     1      10.033  -4.446  -6.640  0.00  0.00    -0.007 C 
ATOM     19  C   UNL     1      11.289  -5.109  -6.074  0.00  0.00    +0.016 C 
ATOM     20  C   UNL     1       8.119   0.447  -4.236  0.00  0.00    +0.015 C 
ENDROOT
BRANCH   1  21
ATOM     21  C   UNL     1       5.800  -1.059  -4.114  0.00  0.00    +0.184 C 
ATOM     22  O   UNL     1       5.234   0.006  -4.069  0.00  0.00    -0.292 OA
BRANCH  21  23
ATOM     23  C   UNL     1       5.574  -2.079  -3.028  0.00  0.00    +0.190 C 
BRANCH  23  31
ATOM     24  C   UNL     1       1.335  -2.270  -0.704  0.00  0.00    +0.060 A 
ATOM     25  C   UNL     1       2.540  -1.670  -0.813  0.00  0.00    +0.159 A 
ATOM     26  C   UNL     1       3.443  -2.097  -1.891  0.00  0.00    +0.081 A 
ATOM     27  C   UNL     1       2.999  -3.125  -2.769  0.00  0.00    +0.050 A 
ATOM     28  C   UNL     1       1.780  -3.666  -2.584  0.00  0.00    +0.015 A 
ATOM     29  N   UNL     1       0.969  -3.255  -1.575  0.00  0.00    -0.359 N 
ATOM     30  C   UNL     1       1.308  -4.754  -3.513  0.00  0.00    +0.063 C 
ATOM     31  N   UNL     1       4.634  -1.542  -2.041  0.00  0.00    -0.375 N 
ATOM     32  H   UNL     1       4.885  -0.778  -1.498  0.00  0.00    +0.160 HD
ATOM     33  H   UNL     1       0.099  -3.672  -1.473  0.00  0.00    +0.165 HD
BRANCH  24  35
ATOM     34  C   UNL     1      -0.591  -0.810  -0.150  0.00  0.00    +0.010 C 
ATOM     35  C   UNL     1       0.389  -1.852   0.392  0.00  0.00    +0.053 C 
ENDBRANCH  24  35
BRANCH  25  36
ATOM     36  O   UNL     1       2.910  -0.691   0.057  0.00  0.00    -0.503 OA
ATOM     37  H   UNL     1       3.792  -0.330  -0.109  0.00  0.00    +0.292 HD
ENDBRANCH  25  36
ENDBRANCH  23  31
ENDBRANCH  21  23
ENDBRANCH   1  21
BRANCH   1  38
ATOM     38  O   UNL     1       6.702  -2.765  -5.565  0.00  0.00    -0.380 OA
ATOM     39  H   UNL     1       5.827  -3.094  -5.814  0.00  0.00    +0.211 HD
ENDBRANCH   1  38
TORSDOF 6
