REMARK  Name = ZINC39934943
REMARK  10 active torsions:
REMARK  status: ('A' for Active; 'I' for Inactive)
REMARK    1  A    between atoms: C_1  and  O_2
REMARK    2  A    between atoms: O_2  and  C_3
REMARK    3  A    between atoms: C_8  and  C_13
REMARK    4  A    between atoms: C_13  and  C_28
REMARK    5  A    between atoms: C_14  and  C_15
REMARK    6  A    between atoms: C_17  and  O_26
REMARK    7  A    between atoms: C_18  and  O_22
REMARK    8  A    between atoms: O_22  and  C_23
REMARK    9  A    between atoms: C_23  and  C_24
REMARK   10  A    between atoms: O_26  and  C_27
REMARK                            x       y       z     vdW  Elec       q    Type
REMARK                         _______ _______ _______ _____ _____    ______ ____
ROOT
ATOM      1  C   UNL     1      -4.792  -4.748   1.271  0.00  0.00    +0.072 C 
ATOM      2  C   UNL     1      -5.500  -5.892   1.156  0.00  0.00    +0.027 C 
ENDROOT
BRANCH   1   8
ATOM      3  C   UNL     1      -1.619  -0.336  -0.075  0.00  0.00    +0.122 A 
ATOM      4  C   UNL     1      -2.849   0.392   0.206  0.00  0.00    +0.048 A 
ATOM      5  C   UNL     1      -4.032  -0.236   0.341  0.00  0.00    +0.031 A 
ATOM      6  C   UNL     1      -4.103  -1.698   0.205  0.00  0.00    +0.061 A 
ATOM      7  N   UNL     1      -5.094  -2.539   0.287  0.00  0.00    -0.359 N 
ATOM      8  C   UNL     1      -4.553  -3.884   0.060  0.00  0.00    +0.216 C 
ATOM      9  N   UNL     1      -3.112  -3.719  -0.166  0.00  0.00    -0.359 N 
ATOM     10  C   UNL     1      -2.847  -2.443  -0.082  0.00  0.00    +0.064 A 
ATOM     11  C   UNL     1      -1.603  -1.684  -0.220  0.00  0.00    +0.073 A 
ATOM     12  H   UNL     1      -6.021  -2.316   0.466  0.00  0.00    +0.162 HD
ATOM     13  H   UNL     1      -2.474  -4.427  -0.345  0.00  0.00    +0.162 HD
BRANCH   3  15
ATOM     14  C   UNL     1      -0.526   1.772  -0.038  0.00  0.00    +0.277 C 
ATOM     15  O   UNL     1      -0.458   0.354  -0.200  0.00  0.00    -0.495 OA
ENDBRANCH   3  15
ENDBRANCH   1   8
BRANCH   2  16
ATOM     16  C   UNL     1      -5.861  -6.657   2.358  0.00  0.00    -0.006 A 
ATOM     17  C   UNL     1      -6.127  -5.993   3.561  0.00  0.00    +0.058 A 
ATOM     18  C   UNL     1      -6.465  -6.717   4.686  0.00  0.00    +0.162 A 
ATOM     19  C   UNL     1      -6.541  -8.108   4.624  0.00  0.00    +0.164 A 
ATOM     20  C   UNL     1      -6.278  -8.770   3.432  0.00  0.00    +0.065 A 
ATOM     21  C   UNL     1      -5.946  -8.054   2.301  0.00  0.00    +0.029 A 
ATOM     22 BR   UNL     1      -5.596  -8.958   0.678  0.00  0.00    -0.050 Br
BRANCH  18  23
ATOM     23  O   UNL     1      -6.723  -6.074   5.856  0.00  0.00    -0.491 OA
ATOM     24  C   UNL     1      -6.626  -4.649   5.848  0.00  0.00    +0.277 C 
ENDBRANCH  18  23
BRANCH  19  25
ATOM     25  O   UNL     1      -6.874  -8.819   5.733  0.00  0.00    -0.476 OA
BRANCH  25  26
ATOM     26  C   UNL     1      -6.934 -10.240   5.599  0.00  0.00    +0.317 C 
BRANCH  26  27
ATOM     27  C   UNL     1      -7.306 -10.839   6.891  0.00  0.00    -0.065 C 
ATOM     28  C   UNL     1      -7.603 -11.317   7.922  0.00  0.00    +0.007 C 
ENDBRANCH  26  27
ENDBRANCH  25  26
ENDBRANCH  19  25
ENDBRANCH   2  16
BRANCH   1  29
ATOM     29  C   UNL     1      -4.267  -4.357   2.545  0.00  0.00    +0.099 C 
ATOM     30  N   UNL     1      -3.850  -4.047   3.555  0.00  0.00    -0.191 NA
ENDBRANCH   1  29
TORSDOF 8
