REMARK  Name = ZINC00755579
REMARK  3 active torsions:
REMARK  status: ('A' for Active; 'I' for Inactive)
REMARK    1  A    between atoms: C_6  and  N_7
REMARK    2  A    between atoms: C_12  and  C_13
REMARK    3  A    between atoms: C_12  and  N_36
REMARK                            x       y       z     vdW  Elec       q    Type
REMARK                         _______ _______ _______ _____ _____    ______ ____
ROOT
ATOM      1  N   UNL     1      -0.806   3.062  -1.200  0.00  0.00    -0.333 N 
ATOM      2  C   UNL     1      -0.754   1.593  -1.231  0.00  0.00    +0.086 C 
ATOM      3  C   UNL     1      -0.013   1.086   0.008  0.00  0.00    -0.059 C 
ATOM      4  C   UNL     1      -0.754   3.029   1.247  0.00  0.00    -0.059 C 
ATOM      5  C   UNL     1      -1.495   3.536   0.008  0.00  0.00    +0.086 C 
ATOM      6  N   UNL     1      -0.728   1.551   1.215  0.00  0.00    +0.385 N 
ATOM      7  H   UNL     1      -1.692   1.200   1.187  0.00  0.00    -0.081 HD
ENDROOT
BRANCH   1  13
ATOM      8  C   UNL     1      -1.865   2.696  -3.338  0.00  0.00    +0.024 A 
ATOM      9  C   UNL     1      -2.471   3.196  -4.474  0.00  0.00    +0.022 A 
ATOM     10  C   UNL     1      -2.616   4.563  -4.638  0.00  0.00    +0.041 A 
ATOM     11  C   UNL     1      -2.162   5.431  -3.661  0.00  0.00    +0.022 A 
ATOM     12  C   UNL     1      -1.561   4.936  -2.520  0.00  0.00    +0.024 A 
ATOM     13  C   UNL     1      -1.413   3.565  -2.354  0.00  0.00    +0.030 A 
ATOM     14 CL   UNL     1      -3.371   5.189  -6.071  0.00  0.00    -0.084 Cl
ENDBRANCH   1  13
BRANCH   6  15
ATOM     15  C   UNL     1      -0.062   1.031   2.429  0.00  0.00    -0.035 C 
BRANCH  15  16
ATOM     16  C   UNL     1      -0.631   1.724   3.640  0.00  0.00    -0.026 A 
ATOM     17  C   UNL     1      -1.704   1.381   4.394  0.00  0.00    +0.024 A 
ATOM     18  C   UNL     1      -2.044   2.172   5.476  0.00  0.00    +0.025 A 
ATOM     19  C   UNL     1      -1.300   3.275   5.743  0.00  0.00    +0.060 A 
ATOM     20  S   UNL     1      -0.071   3.213   4.449  0.00  0.00    -0.102 S 
ATOM     21 BR   UNL     1      -3.527   1.730   6.561  0.00  0.00    -0.050 Br
ENDBRANCH  15  16
ENDBRANCH   6  15
TORSDOF 3
