REMARK  Name = ZINC40998971
REMARK  3 active torsions:
REMARK  status: ('A' for Active; 'I' for Inactive)
REMARK    1  A    between atoms: C_1  and  C_2
REMARK    2  A    between atoms: N_5  and  C_11
REMARK    3  A    between atoms: C_7  and  C_10
REMARK                            x       y       z     vdW  Elec       q    Type
REMARK                         _______ _______ _______ _____ _____    ______ ____
ROOT
ATOM      1  C   UNL     1      -2.100  -2.856  -0.665  0.00  0.00    +0.089 A 
ATOM      2  C   UNL     1      -1.630  -3.403  -1.813  0.00  0.00    +0.130 A 
ATOM      3  N   UNL     1      -2.624  -4.168  -2.342  0.00  0.00    -0.281 N 
ATOM      4  H   UNL     1      -2.573  -4.680  -3.164  0.00  0.00    +0.188 HD
ATOM      5  N   UNL     1      -3.732  -4.085  -1.490  0.00  0.00    -0.157 NA
ATOM      6  C   UNL     1      -3.421  -3.306  -0.482  0.00  0.00    +0.159 A 
ATOM      7  N   UNL     1      -4.261  -2.975   0.590  0.00  0.00    -0.340 N 
ATOM      8  H   UNL     1      -3.942  -2.386   1.292  0.00  0.00    +0.144 HD
ATOM      9  H   UNL     1      -5.160  -3.335   0.631  0.00  0.00    +0.144 HD
ENDROOT
BRANCH   1  13
ATOM     10  C   UNL     1      -0.019   1.526   0.010  0.00  0.00    +0.039 C 
ATOM     11  C   UNL     1       0.002  -0.004   0.002  0.00  0.00    +0.133 C 
ATOM     12  C   UNL     1      -1.436  -0.536   0.015  0.00  0.00    +0.136 C 
ATOM     13  N   UNL     1      -1.389  -1.995   0.196  0.00  0.00    -0.321 N 
ATOM     14  C   UNL     1      -0.578  -2.530   1.302  0.00  0.00    +0.136 C 
ATOM     15  C   UNL     1       0.818  -1.901   1.226  0.00  0.00    +0.133 C 
ATOM     16  O   UNL     1       0.691  -0.479   1.161  0.00  0.00    -0.371 OA
ATOM     17  C   UNL     1       1.621  -2.288   2.469  0.00  0.00    +0.039 C 
ENDBRANCH   1  13
TORSDOF 1
