REMARK  Name = ZINC08448734
REMARK  6 active torsions:
REMARK  status: ('A' for Active; 'I' for Inactive)
REMARK    1  A    between atoms: C_1  and  C_2
REMARK    2  A    between atoms: C_2  and  C_4
REMARK    3  A    between atoms: C_2  and  O_20
REMARK    4  A    between atoms: N_9  and  C_10
REMARK    5  A    between atoms: O_20  and  C_21
REMARK    6  A    between atoms: C_24  and  C_27
REMARK                            x       y       z     vdW  Elec       q    Type
REMARK                         _______ _______ _______ _____ _____    ______ ____
ROOT
ATOM      1  C   UNL     1      -2.244   1.077   1.486  0.00  0.00    +0.261 C 
ATOM      2  O   UNL     1      -2.464   0.164   2.253  0.00  0.00    -0.271 OA
ATOM      3  N   UNL     1      -3.229   1.545   0.694  0.00  0.00    -0.237 N 
ATOM      4  C   UNL     1      -4.460   0.998   0.755  0.00  0.00    +0.306 C 
ATOM      5  O   UNL     1      -4.681   0.083   1.524  0.00  0.00    -0.252 OA
ATOM      6  N   UNL     1      -5.445   1.466  -0.037  0.00  0.00    -0.294 N 
ATOM      7  H   UNL     1      -3.053   2.275   0.080  0.00  0.00    +0.159 HD
ATOM      8  H   UNL     1      -5.268   2.196  -0.650  0.00  0.00    +0.151 HD
ENDROOT
BRANCH   6   9
ATOM      9  C   UNL     1      -6.782   0.872   0.030  0.00  0.00    +0.037 C 
ATOM     10  C   UNL     1      -6.698  -0.614  -0.324  0.00  0.00    +0.029 C 
ATOM     11  C   UNL     1      -8.095  -1.235  -0.255  0.00  0.00    -0.008 C 
ATOM     12  C   UNL     1      -9.018  -0.526  -1.248  0.00  0.00    +0.007 C 
ATOM     13  C   UNL     1      -9.102   0.961  -0.894  0.00  0.00    -0.008 C 
ATOM     14  C   UNL     1      -7.705   1.581  -0.963  0.00  0.00    +0.029 C 
ATOM     15  C   UNL     1      -9.660   1.117   0.522  0.00  0.00    +0.007 C 
ATOM     16  C   UNL     1      -8.737   0.408   1.515  0.00  0.00    -0.008 C 
ATOM     17  C   UNL     1      -8.653  -1.078   1.161  0.00  0.00    +0.007 C 
ATOM     18  C   UNL     1      -7.340   1.028   1.446  0.00  0.00    +0.029 C 
ENDBRANCH   6   9
BRANCH   1  20
ATOM     19  C   UNL     1      -0.260   1.422   0.039  0.00  0.00    +0.062 C 
ATOM     20  C   UNL     1      -0.868   1.688   1.417  0.00  0.00    +0.256 C 
BRANCH  20  21
ATOM     21  O   UNL     1      -0.038   1.106   2.425  0.00  0.00    -0.480 OA
BRANCH  21  22
ATOM     22  C   UNL     1       1.013   1.847   2.861  0.00  0.00    +0.122 A 
ATOM     23  C   UNL     1       1.789   1.392   3.921  0.00  0.00    +0.047 A 
ATOM     24  C   UNL     1       2.859   2.138   4.363  0.00  0.00    +0.022 A 
ATOM     25  C   UNL     1       3.158   3.358   3.751  0.00  0.00    +0.052 A 
ATOM     26  C   UNL     1       2.372   3.814   2.690  0.00  0.00    +0.022 A 
ATOM     27  C   UNL     1       1.306   3.060   2.250  0.00  0.00    +0.047 A 
BRANCH  25  28
ATOM     28  C   UNL     1       4.266   4.140   4.212  0.00  0.00    +0.099 C 
ATOM     29  N   UNL     1       5.145   4.760   4.577  0.00  0.00    -0.191 NA
ENDBRANCH  25  28
ENDBRANCH  21  22
ENDBRANCH  20  21
ENDBRANCH   1  20
TORSDOF 5
