REMARK  Name = ZINC65833768
REMARK  8 active torsions:
REMARK  status: ('A' for Active; 'I' for Inactive)
REMARK    1  A    between atoms: C_1  and  C_2
REMARK    2  A    between atoms: C_2  and  C_3
REMARK    3  A    between atoms: C_2  and  C_4
REMARK    4  A    between atoms: C_2  and  N_5
REMARK    5  A    between atoms: C_7  and  N_10
REMARK    6  A    between atoms: N_10  and  S_11
REMARK    7  A    between atoms: S_11  and  C_14
REMARK    8  A    between atoms: C_16  and  C_24
REMARK                            x       y       z     vdW  Elec       q    Type
REMARK                         _______ _______ _______ _____ _____    ______ ____
ROOT
ATOM      1  S   UNL     1       3.918  -2.611  -3.930  0.00  0.00    +0.073 S 
ATOM      2  O   UNL     1       5.270  -2.662  -4.365  0.00  0.00    -0.150 OA
ATOM      3  O   UNL     1       3.402  -3.489  -2.939  0.00  0.00    -0.150 OA
ENDROOT
BRANCH   1   4
ATOM      4  C   UNL     1       2.919  -2.829  -5.365  0.00  0.00    +0.113 A 
ATOM      5  C   UNL     1       1.924  -3.780  -5.363  0.00  0.00    +0.044 A 
ATOM      6  C   UNL     1       1.132  -3.953  -6.501  0.00  0.00    +0.065 A 
ATOM      7  C   UNL     1       1.365  -3.161  -7.625  0.00  0.00    +0.019 A 
ATOM      8  C   UNL     1       2.371  -2.208  -7.615  0.00  0.00    -0.042 A 
ATOM      9  C   UNL     1       3.141  -2.034  -6.485  0.00  0.00    -0.018 A 
ATOM     10  C   UNL     1       4.235  -1.001  -6.402  0.00  0.00    +0.037 C 
ATOM     11  C   UNL     1       4.637  -0.530  -7.797  0.00  0.00    +0.005 C 
ATOM     12  C   UNL     1       3.368  -0.122  -8.555  0.00  0.00    +0.005 C 
ATOM     13  C   UNL     1       2.572  -1.392  -8.866  0.00  0.00    +0.035 C 
BRANCH   6  14
ATOM     14  C   UNL     1       0.060  -4.966  -6.514  0.00  0.00    +0.387 C 
ATOM     15  O   UNL     1      -0.139  -5.659  -5.526  0.00  0.00    -0.241 OA
ATOM     16  O   UNL     1      -0.630  -5.114  -7.514  0.00  0.00    -0.241 OA
ENDBRANCH   6  14
ENDBRANCH   1   4
BRANCH   1  17
ATOM     17  N   UNL     1       3.655  -1.071  -3.381  0.00  0.00    -0.213 N 
ATOM     18  H   UNL     1       4.374  -0.420  -3.400  0.00  0.00    +0.174 HD
BRANCH  17  21
ATOM     19  N   UNL     1       0.800   0.136  -1.632  0.00  0.00    -0.264 N 
ATOM     20  C   UNL     1       2.148  -0.000  -1.751  0.00  0.00    +0.133 A 
ATOM     21  C   UNL     1       2.389  -0.707  -2.884  0.00  0.00    +0.085 A 
ATOM     22  C   UNL     1       1.153  -1.010  -3.474  0.00  0.00    +0.158 A 
ATOM     23  N   UNL     1       0.205  -0.511  -2.722  0.00  0.00    -0.177 NA
BRANCH  19  25
ATOM     24  C   UNL     1       0.228   2.344  -0.748  0.00  0.00    +0.036 C 
ATOM     25  C   UNL     1       0.096   0.832  -0.552  0.00  0.00    +0.055 C 
ATOM     26  C   UNL     1       0.708   0.436   0.793  0.00  0.00    +0.036 C 
ATOM     27  C   UNL     1      -1.383   0.442  -0.574  0.00  0.00    +0.036 C 
ENDBRANCH  19  25
ENDBRANCH  17  21
ENDBRANCH   1  17
TORSDOF 5
