REMARK  Name = ZINC35564672
REMARK  5 active torsions:
REMARK  status: ('A' for Active; 'I' for Inactive)
REMARK    1  A    between atoms: C_4  and  N_7
REMARK    2  A    between atoms: N_10  and  C_13
REMARK    3  A    between atoms: C_13  and  C_14
REMARK    4  A    between atoms: C_28  and  C_30
REMARK    5  A    between atoms: C_34  and  N_36
REMARK                            x       y       z     vdW  Elec       q    Type
REMARK                         _______ _______ _______ _____ _____    ______ ____
ROOT
ATOM      1  C   UNL     1       6.419  -4.122  -1.179  0.00  0.00    +0.034 A 
ATOM      2  C   UNL     1       5.824  -5.122  -1.892  0.00  0.00    +0.091 A 
ATOM      3  C   UNL     1       6.065  -6.457  -1.521  0.00  0.00    +0.253 A 
ATOM      4  O   UNL     1       5.550  -7.376  -2.136  0.00  0.00    -0.268 OA
ATOM      5  N   UNL     1       6.878  -6.702  -0.471  0.00  0.00    -0.295 N 
ATOM      6  H   UNL     1       7.058  -7.615  -0.198  0.00  0.00    +0.172 HD
ATOM      7  C   UNL     1       7.444  -5.664   0.202  0.00  0.00    +0.198 A 
ATOM      8  N   UNL     1       7.217  -4.415  -0.155  0.00  0.00    -0.223 NA
ATOM      9  N   UNL     1       8.266  -5.921   1.266  0.00  0.00    -0.298 N 
ATOM     10  C   UNL     1       8.640  -7.301   1.607  0.00  0.00    +0.127 C 
ATOM     11  C   UNL     1      10.170  -7.400   1.637  0.00  0.00    +0.127 C 
ATOM     12  N   UNL     1      10.696  -6.301   2.459  0.00  0.00    -0.295 N 
ATOM     13  C   UNL     1      10.322  -4.921   2.118  0.00  0.00    +0.127 C 
ATOM     14  C   UNL     1       8.797  -4.821   2.084  0.00  0.00    +0.127 C 
ATOM     15  C   UNL     1      11.506  -6.553   3.506  0.00  0.00    +0.247 C 
ATOM     16  O   UNL     1      11.855  -5.647   4.237  0.00  0.00    -0.270 OA
ENDROOT
BRANCH  15  17
ATOM     17  C   UNL     1      11.971  -7.933   3.765  0.00  0.00    +0.039 A 
ATOM     18  C   UNL     1      12.208  -8.804   2.700  0.00  0.00    +0.013 A 
ATOM     19  C   UNL     1      12.642 -10.090   2.949  0.00  0.00    +0.003 A 
ATOM     20  C   UNL     1      12.842 -10.516   4.250  0.00  0.00    +0.033 A 
ATOM     21  C   UNL     1      12.608  -9.658   5.310  0.00  0.00    +0.127 A 
ATOM     22  C   UNL     1      12.180  -8.367   5.074  0.00  0.00    +0.045 A 
BRANCH  21  23
ATOM     23  N   UNL     1      12.825 -10.123   6.698  0.00  0.00    +0.056 N 
ATOM     24  O   UNL     1      13.205 -11.252   6.905  0.00  0.00    -0.126 OA
ATOM     25  O   UNL     1      12.621  -9.374   7.625  0.00  0.00    -0.126 OA
ENDBRANCH  21  23
ENDBRANCH  15  17
BRANCH   1  26
ATOM     26  C   UNL     1       6.178  -2.683  -1.557  0.00  0.00    -0.022 C 
BRANCH  26  30
ATOM     27  N   UNL     1       3.427  -0.512   0.729  0.00  0.00    -0.333 N 
ATOM     28  C   UNL     1       4.697   0.154   0.403  0.00  0.00    +0.086 C 
ATOM     29  C   UNL     1       5.337  -0.576  -0.783  0.00  0.00    -0.059 C 
ATOM     30  N   UNL     1       5.466  -2.004  -0.467  0.00  0.00    +0.385 N 
ATOM     31  C   UNL     1       4.135  -2.602  -0.306  0.00  0.00    -0.059 C 
ATOM     32  C   UNL     1       3.436  -1.972   0.909  0.00  0.00    +0.086 C 
ATOM     33  H   UNL     1       5.987  -2.111   0.391  0.00  0.00    -0.081 HD
BRANCH  27  37
ATOM     34  C   UNL     1      -0.091   1.675   1.153  0.00  0.00    +0.000 A 
ATOM     35  C   UNL     1      -0.126   0.293   1.209  0.00  0.00    +0.002 A 
ATOM     36  C   UNL     1       1.039  -0.435   1.069  0.00  0.00    +0.023 A 
ATOM     37  C   UNL     1       2.247   0.221   0.871  0.00  0.00    +0.030 A 
ATOM     38  C   UNL     1       2.279   1.609   0.816  0.00  0.00    +0.023 A 
ATOM     39  C   UNL     1       1.110   2.331   0.957  0.00  0.00    +0.002 A 
ENDBRANCH  27  37
ENDBRANCH  26  30
ENDBRANCH   1  26
TORSDOF 5
