REMARK  Name = ZINC53288559
REMARK  9 active torsions:
REMARK  status: ('A' for Active; 'I' for Inactive)
REMARK    1  A    between atoms: C_1  and  C_2
REMARK    2  A    between atoms: C_2  and  C_3
REMARK    3  A    between atoms: N_11  and  C_15
REMARK    4  A    between atoms: C_15  and  C_16
REMARK    5  A    between atoms: N_18  and  C_19
REMARK    6  A    between atoms: C_19  and  C_20
REMARK    7  A    between atoms: C_20  and  C_21
REMARK    8  A    between atoms: C_21  and  N_22
REMARK    9  A    between atoms: C_25  and  C_28
REMARK                            x       y       z     vdW  Elec       q    Type
REMARK                         _______ _______ _______ _____ _____    ______ ____
ROOT
ATOM      1  C   UNL     1       5.480  -4.295   1.087  0.00  0.00    +0.213 C 
ENDROOT
BRANCH   1  10
ATOM      2  C   UNL     1       0.742  -0.511   1.242  0.00  0.00    -0.011 C 
ATOM      3  C   UNL     1       2.210  -0.085   1.169  0.00  0.00    +0.006 C 
ATOM      4  C   UNL     1       2.946  -0.582   2.415  0.00  0.00    +0.035 C 
ATOM      5  C   UNL     1       2.844  -2.101   2.498  0.00  0.00    +0.113 C 
ATOM      6  C   UNL     1       1.385  -2.543   2.546  0.00  0.00    +0.035 C 
ATOM      7  C   UNL     1       0.655  -2.038   1.298  0.00  0.00    +0.006 C 
ATOM      8  C   UNL     1       3.552  -2.743   1.327  0.00  0.00    +0.247 C 
ATOM      9  O   UNL     1       3.290  -2.612   0.150  0.00  0.00    -0.273 OA
ATOM     10  N   UNL     1       4.536  -3.491   1.866  0.00  0.00    -0.215 N 
ATOM     11  C   UNL     1       4.543  -3.407   3.202  0.00  0.00    +0.310 C 
ATOM     12  O   UNL     1       5.338  -3.993   3.912  0.00  0.00    -0.252 OA
ATOM     13  N   UNL     1       3.571  -2.602   3.671  0.00  0.00    -0.285 N 
ATOM     14  H   UNL     1       3.388  -2.394   4.601  0.00  0.00    +0.151 HD
BRANCH   2  16
ATOM     15  C   UNL     1      -0.019   1.526   0.010  0.00  0.00    +0.004 C 
ATOM     16  C   UNL     1       0.002  -0.004   0.002  0.00  0.00    -0.000 C 
ENDBRANCH   2  16
ENDBRANCH   1  10
BRANCH   1  17
ATOM     17  C   UNL     1       6.688  -3.461   0.745  0.00  0.00    +0.231 C 
ATOM     18  O   UNL     1       6.754  -2.309   1.116  0.00  0.00    -0.274 OA
ATOM     19  N   UNL     1       7.695  -3.997   0.026  0.00  0.00    -0.314 N 
ATOM     20  H   UNL     1       7.643  -4.919  -0.270  0.00  0.00    +0.149 HD
BRANCH  19  21
ATOM     21  C   UNL     1       8.869  -3.186  -0.306  0.00  0.00    +0.102 C 
BRANCH  21  22
ATOM     22  C   UNL     1       9.855  -4.026  -1.120  0.00  0.00    +0.000 C 
BRANCH  22  23
ATOM     23  C   UNL     1      11.082  -3.180  -1.467  0.00  0.00    -0.077 C 
BRANCH  23  24
ATOM     24  N   UNL     1      12.028  -3.986  -2.249  0.00  0.00    +0.380 N 
ATOM     25  C   UNL     1      12.529  -5.089  -1.421  0.00  0.00    -0.079 C 
ATOM     26  C   UNL     1      13.453  -5.980  -2.254  0.00  0.00    -0.016 C 
ATOM     27  C   UNL     1      14.632  -5.146  -2.765  0.00  0.00    -0.018 C 
ATOM     28  C   UNL     1      14.095  -3.957  -3.565  0.00  0.00    -0.016 C 
ATOM     29  C   UNL     1      13.147  -3.141  -2.683  0.00  0.00    -0.079 C 
ATOM     30  C   UNL     1      15.518  -6.010  -3.665  0.00  0.00    +0.007 C 
ATOM     31  H   UNL     1      11.559  -4.363  -3.059  0.00  0.00    -0.082 HD
ENDBRANCH  23  24
ENDBRANCH  22  23
ENDBRANCH  21  22
ENDBRANCH  19  21
ENDBRANCH   1  17
TORSDOF 7
