REMARK  Name = ZINC20503838
REMARK  8 active torsions:
REMARK  status: ('A' for Active; 'I' for Inactive)
REMARK    1  A    between atoms: C_1  and  C_2
REMARK    2  A    between atoms: C_5  and  S_8
REMARK    3  A    between atoms: S_8  and  N_11
REMARK    4  A    between atoms: N_11  and  C_12
REMARK    5  A    between atoms: C_12  and  C_13
REMARK    6  A    between atoms: C_22  and  C_24
REMARK    7  A    between atoms: C_24  and  N_25
REMARK    8  A    between atoms: C_28  and  C_31
REMARK                            x       y       z     vdW  Elec       q    Type
REMARK                         _______ _______ _______ _____ _____    ______ ____
ROOT
ATOM      1  C   UNL     1      -0.195   8.032   1.840  0.00  0.00    +0.072 C 
ATOM      2  C   UNL     1      -1.300   8.236   0.801  0.00  0.00    +0.024 C 
ATOM      3  C   UNL     1      -2.553   7.476   1.255  0.00  0.00    -0.006 C 
ATOM      4  C   UNL     1      -2.980   8.012   2.627  0.00  0.00    +0.019 C 
ATOM      5  C   UNL     1      -1.827   7.815   3.616  0.00  0.00    +0.085 C 
ATOM      6  N   UNL     1      -0.697   7.178   2.925  0.00  0.00    -0.298 NA
ATOM      7  C   UNL     1      -1.067   5.849   2.421  0.00  0.00    +0.086 C 
ATOM      8  C   UNL     1      -2.199   5.990   1.399  0.00  0.00    -0.010 C 
ENDROOT
BRANCH   1   9
ATOM      9  C   UNL     1       1.011   7.362   1.178  0.00  0.00    +0.124 C 
BRANCH   9  10
ATOM     10  N   UNL     1       2.019   7.056   2.196  0.00  0.00    -0.188 NA
ATOM     11  H   UNL     1       2.055   7.641   3.127  0.00  0.00    +0.148 HD
BRANCH  10  12
ATOM     12  S   UNL     1       3.255   6.009   1.850  0.00  0.00    +0.058 S 
ATOM     13  O   UNL     1       4.069   5.942   3.012  0.00  0.00    -0.153 OA
ATOM     14  O   UNL     1       2.659   4.856   1.270  0.00  0.00    -0.153 OA
BRANCH  12  19
ATOM     15  C   UNL     1       6.611   8.570  -2.461  0.00  0.00    +0.044 C 
ATOM     16  C   UNL     1       5.772   7.930  -1.385  0.00  0.00    -0.050 A 
ATOM     17  C   UNL     1       6.065   8.159  -0.053  0.00  0.00    +0.005 A 
ATOM     18  C   UNL     1       5.296   7.572   0.934  0.00  0.00    +0.029 A 
ATOM     19  C   UNL     1       4.234   6.757   0.591  0.00  0.00    +0.105 A 
ATOM     20  C   UNL     1       3.945   6.524  -0.741  0.00  0.00    +0.029 A 
ATOM     21  C   UNL     1       4.711   7.114  -1.728  0.00  0.00    +0.005 A 
ENDBRANCH  12  19
ENDBRANCH  10  12
ENDBRANCH   9  10
ENDBRANCH   1   9
BRANCH   8  22
ATOM     22  C   UNL     1      -1.740   5.440   0.047  0.00  0.00    -0.074 C 
BRANCH  22  23
ATOM     23  N   UNL     1      -2.840   5.540  -0.922  0.00  0.00    +0.380 N 
ATOM     24  C   UNL     1      -2.465   4.938  -2.208  0.00  0.00    -0.079 C 
ATOM     25  C   UNL     1      -3.574   5.189  -3.232  0.00  0.00    -0.016 C 
ATOM     26  C   UNL     1      -4.881   4.575  -2.722  0.00  0.00    -0.018 C 
ATOM     27  C   UNL     1      -5.224   5.182  -1.359  0.00  0.00    -0.016 C 
ATOM     28  C   UNL     1      -4.066   4.933  -0.389  0.00  0.00    -0.079 C 
ATOM     29  C   UNL     1      -6.007   4.875  -3.713  0.00  0.00    +0.007 C 
ATOM     30  H   UNL     1      -3.042   6.607  -1.097  0.00  0.00    -0.082 HD
ENDBRANCH  22  23
ENDBRANCH   8  22
TORSDOF 6
