REMARK  Name = ZINC24951185
REMARK  4 active torsions:
REMARK  status: ('A' for Active; 'I' for Inactive)
REMARK    1  A    between atoms: C_11  and  S_14
REMARK    2  A    between atoms: S_14  and  C_15
REMARK    3  A    between atoms: C_15  and  C_16
REMARK    4  A    between atoms: C_29  and  C_31
REMARK                            x       y       z     vdW  Elec       q    Type
REMARK                         _______ _______ _______ _____ _____    ______ ____
ROOT
ATOM      1  C   UNL     1       1.822  -1.517   0.609  0.00  0.00    +0.231 C 
ATOM      2  O   UNL     1       1.717  -2.045  -0.478  0.00  0.00    -0.274 OA
ATOM      3  N   UNL     1       1.013  -0.492   0.942  0.00  0.00    -0.257 N 
ATOM      4  C   UNL     1       1.122   0.128   2.193  0.00  0.00    +0.058 A 
ATOM      5  C   UNL     1       0.690  -0.517   3.341  0.00  0.00    +0.025 A 
ATOM      6  C   UNL     1       0.780   0.120   4.564  0.00  0.00    +0.002 A 
ATOM      7  C   UNL     1       1.300   1.399   4.648  0.00  0.00    +0.002 A 
ATOM      8  C   UNL     1       1.742   2.047   3.509  0.00  0.00    +0.025 A 
ATOM      9  C   UNL     1       1.666   1.410   2.281  0.00  0.00    +0.055 A 
ATOM     10  N   UNL     1       2.144   2.027   1.119  0.00  0.00    -0.284 N 
ATOM     11  C   UNL     1       1.388   2.063  -0.000  0.00  0.00    +0.219 C 
ATOM     12  O   UNL     1       1.845   2.532  -1.021  0.00  0.00    -0.275 OA
ATOM     13  C   UNL     1      -0.019   1.526   0.010  0.00  0.00    +0.128 C 
ATOM     14  C   UNL     1       0.002  -0.004   0.002  0.00  0.00    +0.194 C 
ATOM     15  H   UNL     1       3.143   2.488   1.113  0.00  0.00    +0.155 HD
ENDROOT
BRANCH  14  16
ATOM     16  C   UNL     1      -1.373  -0.533   0.414  0.00  0.00    +0.409 C 
ATOM     17  F   UNL     1      -2.339  -0.075  -0.488  0.00  0.00    -0.169 F 
ATOM     18  F   UNL     1      -1.355  -1.932   0.407  0.00  0.00    -0.169 F 
ATOM     19  F   UNL     1      -1.682  -0.078   1.700  0.00  0.00    -0.169 F 
ENDBRANCH  14  16
BRANCH   1  20
ATOM     20  C   UNL     1       2.857  -2.008   1.588  0.00  0.00    +0.173 C 
BRANCH  20  21
ATOM     21  S   UNL     1       3.780  -3.385   0.853  0.00  0.00    -0.076 S 
BRANCH  21  32
ATOM     22  C   UNL     1       7.707  -7.959  -0.003  0.00  0.00    +0.002 A 
ATOM     23  C   UNL     1       6.692  -7.312  -0.686  0.00  0.00    +0.002 A 
ATOM     24  C   UNL     1       6.016  -6.262  -0.097  0.00  0.00    +0.028 A 
ATOM     25  C   UNL     1       6.354  -5.853   1.185  0.00  0.00    +0.075 A 
ATOM     26  C   UNL     1       7.378  -6.504   1.873  0.00  0.00    +0.066 A 
ATOM     27  C   UNL     1       8.052  -7.559   1.273  0.00  0.00    +0.028 A 
ATOM     28  N   UNL     1       7.506  -5.886   3.113  0.00  0.00    -0.322 N 
ATOM     29  H   UNL     1       8.267  -6.235   3.826  0.00  0.00    +0.169 HD
ATOM     30  C   UNL     1       6.563  -4.875   3.188  0.00  0.00    +0.235 A 
ATOM     31  N   UNL     1       5.859  -4.846   2.017  0.00  0.00    -0.255 N 
ATOM     32  C   UNL     1       4.936  -3.840   2.103  0.00  0.00    +0.198 A 
ATOM     33  N   UNL     1       5.058  -3.277   3.281  0.00  0.00    -0.120 NA
ATOM     34  N   UNL     1       6.087  -3.932   3.969  0.00  0.00    -0.110 NA
ENDBRANCH  21  32
ENDBRANCH  20  21
ENDBRANCH   1  20
TORSDOF 4
