REMARK  Name = ZINC39706854
REMARK  9 active torsions:
REMARK  status: ('A' for Active; 'I' for Inactive)
REMARK    1  A    between atoms: C_1  and  C_2
REMARK    2  A    between atoms: C_2  and  O_3
REMARK    3  A    between atoms: O_3  and  C_4
REMARK    4  A    between atoms: C_4  and  C_6
REMARK    5  A    between atoms: C_8  and  N_16
REMARK    6  A    between atoms: C_17  and  C_19
REMARK    7  A    between atoms: C_19  and  S_20
REMARK    8  A    between atoms: S_20  and  C_21
REMARK    9  A    between atoms: C_25  and  C_28
REMARK                            x       y       z     vdW  Elec       q    Type
REMARK                         _______ _______ _______ _____ _____    ______ ____
ROOT
ATOM      1  N   UNL     1       3.073  -0.673  -3.444  0.00  0.00    -0.301 N 
ATOM      2  C   UNL     1       3.786   0.390  -3.025  0.00  0.00    +0.224 C 
ATOM      3  O   UNL     1       4.308   0.377  -1.930  0.00  0.00    -0.275 OA
ATOM      4  H   UNL     1       2.656  -0.663  -4.320  0.00  0.00    +0.150 HD
ENDROOT
BRANCH   1   6
ATOM      5  C   UNL     1       1.468  -2.353  -2.550  0.00  0.00    +0.155 C 
ATOM      6  C   UNL     1       2.928  -1.846  -2.578  0.00  0.00    +0.153 C 
ATOM      7  S   UNL     1       3.725  -3.334  -3.312  0.00  0.00    -0.106 S 
ATOM      8  C   UNL     1       2.482  -4.536  -2.876  0.00  0.00    -0.013 C 
ATOM      9  C   UNL     1       1.408  -3.868  -2.501  0.00  0.00    -0.044 C 
ATOM     10  C   UNL     1       0.326  -4.876  -2.093  0.00  0.00    +0.033 C 
ATOM     11  C   UNL     1       0.760  -6.217  -2.716  0.00  0.00    +0.009 C 
ATOM     12  C   UNL     1       2.284  -6.031  -2.804  0.00  0.00    +0.042 C 
BRANCH   5  13
ATOM     13  C   UNL     1       0.775  -1.794  -1.334  0.00  0.00    +0.317 C 
ATOM     14  O   UNL     1       0.314  -2.540  -0.504  0.00  0.00    -0.250 OA
BRANCH  13  15
ATOM     15  O   UNL     1       0.671  -0.465  -1.174  0.00  0.00    -0.464 OA
BRANCH  15  17
ATOM     16  C   UNL     1      -0.019   1.526   0.010  0.00  0.00    +0.048 C 
ATOM     17  C   UNL     1       0.002  -0.004   0.002  0.00  0.00    +0.229 C 
ENDBRANCH  15  17
ENDBRANCH  13  15
ENDBRANCH   5  13
ENDBRANCH   1   6
BRANCH   2  18
ATOM     18  C   UNL     1       3.936   1.596  -3.916  0.00  0.00    +0.173 C 
BRANCH  18  19
ATOM     19  S   UNL     1       4.943   2.849  -3.074  0.00  0.00    -0.075 S 
BRANCH  19  20
ATOM     20  C   UNL     1       5.024   4.177  -4.229  0.00  0.00    +0.213 A 
ATOM     21  N   UNL     1       5.701   5.276  -3.919  0.00  0.00    -0.180 NA
ATOM     22  C   UNL     1       5.759   6.274  -4.794  0.00  0.00    +0.295 A 
ATOM     23  O   UNL     1       6.443   7.408  -4.504  0.00  0.00    -0.264 OA
ATOM     24  C   UNL     1       5.101   6.133  -6.016  0.00  0.00    +0.126 A 
ATOM     25  N   UNL     1       4.443   5.016  -6.268  0.00  0.00    -0.146 NA
ATOM     26  N   UNL     1       4.411   4.065  -5.402  0.00  0.00    -0.122 NA
ATOM     27  C   UNL     1       5.140   7.241  -7.036  0.00  0.00    +0.073 C 
ENDBRANCH  19  20
ENDBRANCH  18  19
ENDBRANCH   2  18
TORSDOF 7
