REMARK  Name = ZINC35270922
REMARK  8 active torsions:
REMARK  status: ('A' for Active; 'I' for Inactive)
REMARK    1  A    between atoms: C_1  and  O_2
REMARK    2  A    between atoms: O_2  and  C_3
REMARK    3  A    between atoms: C_3  and  C_5
REMARK    4  A    between atoms: C_6  and  C_22
REMARK    5  A    between atoms: N_7  and  C_19
REMARK    6  A    between atoms: C_11  and  C_13
REMARK    7  A    between atoms: C_22  and  N_23
REMARK    8  A    between atoms: C_27  and  O_30
REMARK                            x       y       z     vdW  Elec       q    Type
REMARK                         _______ _______ _______ _____ _____    ______ ____
ROOT
ATOM      1  C   UNL     1      -1.271  -2.096  -0.379  0.00  0.00    +0.076 C 
ATOM      2  C   UNL     1      -2.440  -2.727  -0.136  0.00  0.00    +0.011 C 
ATOM      3  N   UNL     1      -2.468  -4.044   0.227  0.00  0.00    -0.257 N 
ATOM      4  C   UNL     1      -1.371  -4.798   0.368  0.00  0.00    +0.307 C 
ATOM      5  O   UNL     1      -1.496  -5.962   0.695  0.00  0.00    -0.252 OA
ATOM      6  N   UNL     1      -0.132  -4.309   0.159  0.00  0.00    -0.288 N 
ATOM      7  C   UNL     1       0.006  -2.899  -0.242  0.00  0.00    +0.143 C 
ATOM      8  H   UNL     1       0.649  -4.874   0.267  0.00  0.00    +0.151 HD
ENDROOT
BRANCH   7   9
ATOM      9  C   UNL     1       0.726  -2.857  -1.566  0.00  0.00    -0.023 A 
ATOM     10  C   UNL     1       0.327  -3.686  -2.597  0.00  0.00    +0.006 A 
ATOM     11  C   UNL     1       0.987  -3.647  -3.811  0.00  0.00    +0.000 A 
ATOM     12  C   UNL     1       2.046  -2.778  -3.994  0.00  0.00    +0.000 A 
ATOM     13  C   UNL     1       2.445  -1.948  -2.963  0.00  0.00    +0.000 A 
ATOM     14  C   UNL     1       1.782  -1.984  -1.750  0.00  0.00    +0.006 A 
ENDBRANCH   7   9
BRANCH   3  15
ATOM     15  C   UNL     1      -3.771  -4.665   0.476  0.00  0.00    +0.083 C 
ATOM     16  C   UNL     1      -4.702  -3.977   1.477  0.00  0.00    +0.025 C 
ATOM     17  C   UNL     1      -4.005  -5.286   1.855  0.00  0.00    +0.025 C 
ENDBRANCH   3  15
BRANCH   1  18
ATOM     18  C   UNL     1      -1.241  -0.733  -0.756  0.00  0.00    +0.338 C 
ATOM     19  O   UNL     1      -1.107  -0.427  -1.926  0.00  0.00    -0.245 OA
BRANCH  18  21
ATOM     20  C   UNL     1      -1.322   1.584  -0.268  0.00  0.00    +0.280 C 
ATOM     21  O   UNL     1      -1.361   0.229   0.183  0.00  0.00    -0.465 OA
ENDBRANCH  18  21
ENDBRANCH   1  18
BRANCH   2  22
ATOM     22  C   UNL     1      -3.735  -1.967  -0.265  0.00  0.00    -0.026 C 
BRANCH  22  23
ATOM     23  N   UNL     1      -4.515  -2.516  -1.382  0.00  0.00    +0.385 N 
ATOM     24  C   UNL     1      -3.794  -2.289  -2.640  0.00  0.00    -0.078 C 
ATOM     25  C   UNL     1      -4.564  -2.931  -3.796  0.00  0.00    -0.016 C 
ATOM     26  C   UNL     1      -5.958  -2.303  -3.885  0.00  0.00    +0.027 C 
ATOM     27  C   UNL     1      -6.673  -2.480  -2.543  0.00  0.00    +0.098 C 
ATOM     28  C   UNL     1      -5.825  -1.856  -1.433  0.00  0.00    -0.047 C 
ATOM     29  H   UNL     1      -4.645  -3.507  -1.245  0.00  0.00    -0.081 HD
BRANCH  27  30
ATOM     30  O   UNL     1      -7.947  -1.835  -2.592  0.00  0.00    -0.394 OA
ATOM     31  H   UNL     1      -8.536  -2.180  -3.276  0.00  0.00    +0.210 HD
ENDBRANCH  27  30
ENDBRANCH  22  23
ENDBRANCH   2  22
TORSDOF 7
