REMARK  Name = ZINC66541342
REMARK  9 active torsions:
REMARK  status: ('A' for Active; 'I' for Inactive)
REMARK    1  A    between atoms: C_1  and  N_2
REMARK    2  A    between atoms: N_2  and  C_3
REMARK    3  A    between atoms: N_2  and  C_16
REMARK    4  A    between atoms: C_3  and  C_4
REMARK    5  A    between atoms: C_4  and  C_5
REMARK    6  A    between atoms: C_5  and  N_6
REMARK    7  A    between atoms: C_14  and  N_15
REMARK    8  A    between atoms: C_16  and  C_18
REMARK    9  A    between atoms: C_16  and  C_24
REMARK                            x       y       z     vdW  Elec       q    Type
REMARK                         _______ _______ _______ _____ _____    ______ ____
ROOT
ATOM      1  C   UNL     1      -0.018   1.465   0.010  0.00  0.00    -0.095 C 
ATOM      2  N   UNL     1       0.002  -0.004   0.002  0.00  0.00    +0.386 N 
ATOM      3  H   UNL     1       0.490  -0.338   0.820  0.00  0.00    -0.081 HD
ENDROOT
BRANCH   2   4
ATOM      4  C   UNL     1       0.690  -0.478  -1.207  0.00  0.00    -0.076 C 
BRANCH   4   5
ATOM      5  C   UNL     1       2.159  -0.053  -1.157  0.00  0.00    +0.003 C 
BRANCH   5   6
ATOM      6  C   UNL     1       2.875  -0.547  -2.416  0.00  0.00    +0.123 C 
BRANCH   6   7
ATOM      7  N   UNL     1       4.282  -0.140  -2.368  0.00  0.00    -0.315 N 
ATOM      8  C   UNL     1       4.817   0.979  -2.932  0.00  0.00    +0.201 A 
ATOM      9  N   UNL     1       6.096   1.028  -2.695  0.00  0.00    -0.231 NA
ATOM     10  C   UNL     1       6.461  -0.054  -1.966  0.00  0.00    +0.147 A 
ATOM     11  C   UNL     1       5.301  -0.814  -1.743  0.00  0.00    +0.165 A 
ATOM     12  N   UNL     1       5.390  -1.937  -1.039  0.00  0.00    -0.216 NA
ATOM     13  C   UNL     1       6.547  -2.334  -0.553  0.00  0.00    +0.225 A 
ATOM     14  N   UNL     1       7.663  -1.653  -0.734  0.00  0.00    -0.219 NA
ATOM     15  C   UNL     1       7.674  -0.522  -1.432  0.00  0.00    +0.147 A 
BRANCH  15  16
ATOM     16  N   UNL     1       8.848   0.187  -1.615  0.00  0.00    -0.341 N 
ATOM     17  H   UNL     1       8.841   1.016  -2.117  0.00  0.00    +0.144 HD
ATOM     18  H   UNL     1       9.679  -0.147  -1.242  0.00  0.00    +0.144 HD
ENDBRANCH  15  16
ENDBRANCH   6   7
ENDBRANCH   5   6
ENDBRANCH   4   5
ENDBRANCH   2   4
BRANCH   2  19
ATOM     19  C   UNL     1      -1.376  -0.512   0.012  0.00  0.00    +0.012 C 
BRANCH  19  20
ATOM     20  C   UNL     1      -1.356  -2.019   0.004  0.00  0.00    -0.055 A 
ATOM     21  C   UNL     1      -0.426  -2.702   0.765  0.00  0.00    +0.002 A 
ATOM     22  C   UNL     1      -0.407  -4.084   0.758  0.00  0.00    +0.000 A 
ATOM     23  C   UNL     1      -1.318  -4.784  -0.011  0.00  0.00    +0.000 A 
ATOM     24  C   UNL     1      -2.249  -4.101  -0.771  0.00  0.00    +0.000 A 
ATOM     25  C   UNL     1      -2.271  -2.719  -0.760  0.00  0.00    +0.002 A 
ENDBRANCH  19  20
BRANCH  19  26
ATOM     26  C   UNL     1      -2.082  -0.026   1.252  0.00  0.00    +0.032 A 
ATOM     27  C   UNL     1      -3.460   0.078   1.257  0.00  0.00    +0.022 A 
ATOM     28  C   UNL     1      -4.099   0.526   2.403  0.00  0.00    +0.003 A 
ATOM     29  C   UNL     1      -3.324   0.854   3.506  0.00  0.00    +0.020 A 
ATOM     30  C   UNL     1      -1.951   0.723   3.427  0.00  0.00    +0.111 A 
ATOM     31  N   UNL     1      -1.377   0.289   2.321  0.00  0.00    -0.261 NA
ENDBRANCH  19  26
ENDBRANCH   2  19
TORSDOF 8
