REMARK  Name = ZINC11912974
REMARK  10 active torsions:
REMARK  status: ('A' for Active; 'I' for Inactive)
REMARK    1  A    between atoms: C_1  and  C_2
REMARK    2  A    between atoms: C_2  and  C_4
REMARK    3  A    between atoms: C_2  and  N_62
REMARK    4  A    between atoms: C_4  and  C_5
REMARK    5  A    between atoms: C_10  and  N_62
REMARK    6  A    between atoms: N_13  and  C_16
REMARK    7  A    between atoms: C_19  and  N_22
REMARK    8  A    between atoms: C_23  and  C_25
REMARK    9  A    between atoms: C_25  and  O_26
REMARK   10  A    between atoms: O_26  and  C_27
REMARK                            x       y       z     vdW  Elec       q    Type
REMARK                         _______ _______ _______ _____ _____    ______ ____
ROOT
ATOM      1  C   UNL     1       0.334  -1.634   1.405  0.00  0.00    +0.030 A 
ATOM      2  C   UNL     1      -0.435  -2.367   0.510  0.00  0.00    +0.025 A 
ATOM      3  C   UNL     1      -0.571  -3.731   0.672  0.00  0.00    +0.025 A 
ATOM      4  C   UNL     1       0.051  -4.369   1.737  0.00  0.00    +0.034 A 
ATOM      5  C   UNL     1       0.815  -3.636   2.635  0.00  0.00    +0.025 A 
ATOM      6  C   UNL     1       0.957  -2.272   2.470  0.00  0.00    +0.025 A 
ENDROOT
BRANCH   1  10
ATOM      7  C   UNL     1       1.260   2.188  -0.093  0.00  0.00    -0.069 C 
ATOM      8  C   UNL     1      -0.202   1.740  -0.015  0.00  0.00    +0.003 C 
ATOM      9  C   UNL     1      -0.260   0.213   0.055  0.00  0.00    +0.103 C 
ATOM     10  N   UNL     1       0.477  -0.253   1.237  0.00  0.00    -0.330 N 
ATOM     11  C   UNL     1       1.894   0.124   1.162  0.00  0.00    +0.103 C 
ATOM     12  C   UNL     1       2.016   1.649   1.125  0.00  0.00    +0.003 C 
BRANCH   7  13
ATOM     13  N   UNL     1       1.319   3.662  -0.096  0.00  0.00    +0.383 N 
ATOM     14  H   UNL     1       0.425   4.035  -0.437  0.00  0.00    -0.085 HD
ATOM     15  H   UNL     1       1.486   3.996   0.861  0.00  0.00    -0.085 HD
BRANCH  13  17
ATOM     16  C   UNL     1       3.679   4.330  -0.143  0.00  0.00    -0.013 C 
ATOM     17  C   UNL     1       2.409   4.130  -0.972  0.00  0.00    -0.070 C 
BRANCH  17  18
ATOM     18  C   UNL     1       2.004   5.459  -1.612  0.00  0.00    +0.019 C 
BRANCH  18  19
ATOM     19  C   UNL     1       0.826   5.238  -2.526  0.00  0.00    -0.042 A 
ATOM     20  C   UNL     1      -0.465   5.346  -2.045  0.00  0.00    +0.011 A 
ATOM     21  C   UNL     1      -1.502   5.141  -2.893  0.00  0.00    +0.045 A 
ATOM     22  S   UNL     1      -0.660   4.783  -4.426  0.00  0.00    -0.105 S 
ATOM     23  C   UNL     1       1.017   4.936  -3.834  0.00  0.00    +0.048 A 
ENDBRANCH  18  19
ENDBRANCH  17  18
ENDBRANCH  13  17
ENDBRANCH   7  13
ENDBRANCH   1  10
BRANCH   4  24
ATOM     24  N   UNL     1      -0.091  -5.753   1.905  0.00  0.00    -0.283 N 
ATOM     25  C   UNL     1      -0.103  -6.284   3.143  0.00  0.00    +0.255 C 
ATOM     26  O   UNL     1      -0.083  -5.558   4.115  0.00  0.00    -0.272 OA
ATOM     27  H   UNL     1      -0.182  -6.329   1.129  0.00  0.00    +0.155 HD
BRANCH  25  28
ATOM     28  C   UNL     1      -0.141  -7.780   3.322  0.00  0.00    +0.324 C 
BRANCH  28  29
ATOM     29  O   UNL     1      -0.147  -8.093   4.716  0.00  0.00    -0.483 OA
BRANCH  29  30
ATOM     30  C   UNL     1      -0.180  -9.410   5.052  0.00  0.00    +0.121 A 
ATOM     31  C   UNL     1      -0.211 -10.380   4.061  0.00  0.00    +0.045 A 
ATOM     32  C   UNL     1      -0.238 -11.717   4.405  0.00  0.00    +0.004 A 
ATOM     33  C   UNL     1      -0.246 -12.089   5.737  0.00  0.00    +0.000 A 
ATOM     34  C   UNL     1      -0.221 -11.124   6.727  0.00  0.00    +0.004 A 
ATOM     35  C   UNL     1      -0.187  -9.786   6.387  0.00  0.00    +0.045 A 
ENDBRANCH  29  30
ENDBRANCH  28  29
ENDBRANCH  25  28
ENDBRANCH   4  24
TORSDOF 9
