REMARK  Name = ZINC40851108
REMARK  10 active torsions:
REMARK  status: ('A' for Active; 'I' for Inactive)
REMARK    1  A    between atoms: C_1  and  C_2
REMARK    2  A    between atoms: C_2  and  C_3
REMARK    3  A    between atoms: C_4  and  C_30
REMARK    4  A    between atoms: C_5  and  S_16
REMARK    5  A    between atoms: C_10  and  C_15
REMARK    6  A    between atoms: C_12  and  C_14
REMARK    7  A    between atoms: S_16  and  C_17
REMARK    8  A    between atoms: C_17  and  C_18
REMARK    9  A    between atoms: C_18  and  C_19
REMARK   10  A    between atoms: N_21  and  C_22
REMARK                            x       y       z     vdW  Elec       q    Type
REMARK                         _______ _______ _______ _____ _____    ______ ____
ROOT
ATOM      1  C   UNL     1       0.702  -0.544  -1.222  0.00  0.00    +0.050 A 
ATOM      2  C   UNL     1      -0.008  -0.771  -2.384  0.00  0.00    +0.003 A 
ATOM      3  C   UNL     1       0.688  -1.211  -3.514  0.00  0.00    +0.105 A 
ATOM      4  N   UNL     1       2.002  -1.395  -3.430  0.00  0.00    -0.204 NA
ATOM      5  C   UNL     1       2.644  -1.166  -2.296  0.00  0.00    +0.253 A 
ATOM      6  N   UNL     1       2.012  -0.743  -1.213  0.00  0.00    -0.215 NA
ATOM      7  N   UNL     1       4.023  -1.369  -2.243  0.00  0.00    -0.202 N 
ATOM      8  C   UNL     1       4.811  -1.788  -3.268  0.00  0.00    +0.045 A 
ATOM      9  C   UNL     1       6.080  -1.857  -2.806  0.00  0.00    +0.048 A 
ATOM     10  C   UNL     1       6.072  -1.470  -1.461  0.00  0.00    +0.061 A 
ATOM     11  N   UNL     1       4.844  -1.172  -1.125  0.00  0.00    -0.169 NA
ATOM     12  C   UNL     1       7.275  -1.401  -0.556  0.00  0.00    +0.067 C 
ATOM     13  C   UNL     1       4.354  -2.117  -4.665  0.00  0.00    +0.066 C 
ATOM     14  C   UNL     1      -1.498  -0.550  -2.434  0.00  0.00    +0.048 C 
ENDROOT
BRANCH   1  16
ATOM     15  C   UNL     1      -0.033   1.460   0.039  0.00  0.00    +0.010 C 
ATOM     16  C   UNL     1      -0.004  -0.069   0.022  0.00  0.00    +0.052 C 
ENDBRANCH   1  16
BRANCH   3  17
ATOM     17  S   UNL     1      -0.164  -1.518  -5.025  0.00  0.00    -0.105 S 
BRANCH  17  18
ATOM     18  C   UNL     1       1.142  -2.058  -6.163  0.00  0.00    +0.085 C 
BRANCH  18  19
ATOM     19  C   UNL     1       0.532  -2.361  -7.533  0.00  0.00    +0.107 C 
BRANCH  19  20
ATOM     20  C   UNL     1       1.617  -2.809  -8.478  0.00  0.00    +0.218 C 
ATOM     21  O   UNL     1       2.765  -2.878  -8.094  0.00  0.00    -0.275 OA
ATOM     22  N   UNL     1       1.311  -3.132  -9.750  0.00  0.00    -0.284 N 
ATOM     23  H   UNL     1       0.385  -3.140 -10.039  0.00  0.00    +0.155 HD
BRANCH  22  24
ATOM     24  C   UNL     1       2.329  -3.458 -10.654  0.00  0.00    +0.053 A 
ATOM     25  C   UNL     1       3.458  -4.136 -10.214  0.00  0.00    +0.044 A 
ATOM     26  C   UNL     1       4.462  -4.456 -11.109  0.00  0.00    +0.043 A 
ATOM     27  C   UNL     1       4.342  -4.101 -12.442  0.00  0.00    +0.021 A 
ATOM     28  C   UNL     1       3.219  -3.425 -12.882  0.00  0.00    +0.023 A 
ATOM     29  C   UNL     1       2.210  -3.107 -11.993  0.00  0.00    +0.062 A 
ATOM     30 CL   UNL     1       0.797  -2.265 -12.548  0.00  0.00    -0.082 Cl
ATOM     31 CL   UNL     1       5.875  -5.303 -10.561  0.00  0.00    -0.083 Cl
ENDBRANCH  22  24
ENDBRANCH  19  20
ENDBRANCH  18  19
ENDBRANCH  17  18
ENDBRANCH   3  17
TORSDOF 6
