REMARK  Name = ZINC06268958
REMARK  8 active torsions:
REMARK  status: ('A' for Active; 'I' for Inactive)
REMARK    1  A    between atoms: C_1  and  C_2
REMARK    2  A    between atoms: C_2  and  C_4
REMARK    3  A    between atoms: C_2  and  N_10
REMARK    4  A    between atoms: C_11  and  C_13
REMARK    5  A    between atoms: C_18  and  N_19
REMARK    6  A    between atoms: N_19  and  S_20
REMARK    7  A    between atoms: S_20  and  C_23
REMARK    8  A    between atoms: C_26  and  N_29
REMARK                            x       y       z     vdW  Elec       q    Type
REMARK                         _______ _______ _______ _____ _____    ______ ____
ROOT
ATOM      1  C   UNL     1      -1.145   1.819  -0.251  0.00  0.00    +0.061 A 
ATOM      2  C   UNL     1      -1.064   3.205  -0.412  0.00  0.00    +0.015 A 
ATOM      3  C   UNL     1      -2.215   3.959  -0.470  0.00  0.00    +0.001 A 
ATOM      4  C   UNL     1      -3.456   3.351  -0.368  0.00  0.00    +0.002 A 
ATOM      5  C   UNL     1      -3.554   1.984  -0.208  0.00  0.00    +0.027 A 
ATOM      6  C   UNL     1      -2.404   1.206  -0.154  0.00  0.00    +0.086 A 
ENDROOT
BRANCH   1   8
ATOM      7  N   UNL     1       1.289   1.597  -0.294  0.00  0.00    -0.305 N 
ATOM      8  C   UNL     1       0.083   1.006  -0.189  0.00  0.00    +0.246 C 
ATOM      9  O   UNL     1       0.007  -0.200  -0.048  0.00  0.00    -0.270 OA
ATOM     10  H   UNL     1       1.357   2.688  -0.421  0.00  0.00    +0.150 HD
BRANCH   7  12
ATOM     11  C   UNL     1       2.821   0.239  -1.632  0.00  0.00    +0.033 C 
ATOM     12  C   UNL     1       2.509   0.789  -0.238  0.00  0.00    +0.100 C 
BRANCH  12  13
ATOM     13  C   UNL     1       3.657   1.643   0.233  0.00  0.00    -0.027 A 
ATOM     14  C   UNL     1       3.783   2.943  -0.219  0.00  0.00    +0.005 A 
ATOM     15  C   UNL     1       4.833   3.729   0.216  0.00  0.00    +0.000 A 
ATOM     16  C   UNL     1       5.764   3.211   1.097  0.00  0.00    +0.000 A 
ATOM     17  C   UNL     1       5.642   1.909   1.546  0.00  0.00    +0.000 A 
ATOM     18  C   UNL     1       4.588   1.125   1.114  0.00  0.00    +0.005 A 
ENDBRANCH  12  13
ENDBRANCH   7  12
ENDBRANCH   1   8
BRANCH   6  19
ATOM     19  N   UNL     1      -2.500  -0.171   0.001  0.00  0.00    -0.097 NA
BRANCH  19  20
ATOM     20  S   UNL     1      -3.741  -1.000  -0.716  0.00  0.00    +0.092 S 
ATOM     21  O   UNL     1      -3.492  -2.381  -0.488  0.00  0.00    -0.148 OA
ATOM     22  O   UNL     1      -4.944  -0.365  -0.306  0.00  0.00    -0.148 OA
BRANCH  20  23
ATOM     23  C   UNL     1      -3.603  -0.744  -2.454  0.00  0.00    +0.110 A 
ATOM     24  C   UNL     1      -4.252   0.322  -3.049  0.00  0.00    +0.031 A 
ATOM     25  C   UNL     1      -4.140   0.526  -4.412  0.00  0.00    +0.034 A 
ATOM     26  C   UNL     1      -3.388  -0.342  -5.181  0.00  0.00    +0.126 A 
ATOM     27  C   UNL     1      -2.743  -1.411  -4.587  0.00  0.00    +0.034 A 
ATOM     28  C   UNL     1      -2.851  -1.612  -3.223  0.00  0.00    +0.031 A 
BRANCH  26  29
ATOM     29  N   UNL     1      -3.272  -0.127  -6.641  0.00  0.00    +0.056 N 
ATOM     30  O   UNL     1      -2.609  -0.891  -7.319  0.00  0.00    -0.126 OA
ATOM     31  O   UNL     1      -3.841   0.815  -7.164  0.00  0.00    -0.126 OA
ENDBRANCH  26  29
ENDBRANCH  20  23
ENDBRANCH  19  20
ENDBRANCH   6  19
TORSDOF 7
