REMARK  Name = ZINC13124246
REMARK  3 active torsions:
REMARK  status: ('A' for Active; 'I' for Inactive)
REMARK    1  A    between atoms: N_8  and  N_9
REMARK    2  A    between atoms: N_9  and  C_10
REMARK    3  A    between atoms: C_13  and  C_18
REMARK                            x       y       z     vdW  Elec       q    Type
REMARK                         _______ _______ _______ _____ _____    ______ ____
ROOT
ATOM      1  N   UNL     1      -0.501  -2.965   0.088  0.00  0.00    -0.231 N 
ATOM      2  H   UNL     1      -0.864  -2.065   0.097  0.00  0.00    +0.175 HD
ENDROOT
BRANCH   1  10
ATOM      3  C   UNL     1       0.046   1.320   0.753  0.00  0.00    +0.001 A 
ATOM      4  C   UNL     1       1.228   2.037   0.665  0.00  0.00    +0.002 A 
ATOM      5  C   UNL     1       2.417   1.399   0.377  0.00  0.00    +0.024 A 
ATOM      6  C   UNL     1       2.440   0.023   0.171  0.00  0.00    +0.043 A 
ATOM      7  C   UNL     1       1.242  -0.698   0.261  0.00  0.00    +0.028 A 
ATOM      8  C   UNL     1       0.049  -0.046   0.552  0.00  0.00    +0.012 A 
ATOM      9  C   UNL     1       1.586  -2.114  -0.004  0.00  0.00    +0.152 C 
ATOM     10  N   UNL     1       0.771  -3.146  -0.022  0.00  0.00    -0.177 NA
ATOM     11  C   UNL     1       3.039  -2.115  -0.241  0.00  0.00    +0.269 C 
ATOM     12  O   UNL     1       3.722  -3.090  -0.496  0.00  0.00    -0.268 OA
ATOM     13  N   UNL     1       3.479  -0.850  -0.127  0.00  0.00    -0.280 N 
ATOM     14  H   UNL     1       4.404  -0.581  -0.239  0.00  0.00    +0.155 HD
ENDBRANCH   1  10
BRANCH   1  15
ATOM     15  C   UNL     1      -1.356  -4.064   0.196  0.00  0.00    +0.124 A 
ATOM     16  C   UNL     1      -0.896  -5.338  -0.119  0.00  0.00    +0.184 A 
ATOM     17  C   UNL     1      -1.746  -6.426  -0.011  0.00  0.00    +0.175 A 
ATOM     18  C   UNL     1      -3.054  -6.246   0.409  0.00  0.00    +0.131 A 
ATOM     19  C   UNL     1      -3.515  -4.978   0.722  0.00  0.00    +0.175 A 
ATOM     20  C   UNL     1      -2.668  -3.887   0.623  0.00  0.00    +0.184 A 
ATOM     21  F   UNL     1      -3.117  -2.652   0.935  0.00  0.00    -0.200 F 
ATOM     22  F   UNL     1      -4.791  -4.807   1.130  0.00  0.00    -0.202 F 
ATOM     23  F   UNL     1      -1.300  -7.664  -0.316  0.00  0.00    -0.202 F 
ATOM     24  F   UNL     1       0.379  -5.515  -0.529  0.00  0.00    -0.200 F 
BRANCH  18  25
ATOM     25  C   UNL     1      -3.976  -7.432   0.524  0.00  0.00    +0.423 C 
ATOM     26  F   UNL     1      -3.884  -7.971   1.812  0.00  0.00    -0.166 F 
ATOM     27  F   UNL     1      -5.292  -7.024   0.283  0.00  0.00    -0.166 F 
ATOM     28  F   UNL     1      -3.609  -8.401  -0.415  0.00  0.00    -0.166 F 
ENDBRANCH  18  25
ENDBRANCH   1  15
TORSDOF 3
