REMARK  Name = ZINC09089758
REMARK  5 active torsions:
REMARK  status: ('A' for Active; 'I' for Inactive)
REMARK    1  A    between atoms: C_1  and  O_2
REMARK    2  A    between atoms: O_2  and  C_3
REMARK    3  A    between atoms: C_6  and  C_9
REMARK    4  A    between atoms: C_14  and  C_26
REMARK    5  A    between atoms: C_29  and  N_31
REMARK                            x       y       z     vdW  Elec       q    Type
REMARK                         _______ _______ _______ _____ _____    ______ ____
ROOT
ATOM      1  C   UNL     1       1.299   5.312  -4.163  0.00  0.00    +0.032 C 
ATOM      2  C   UNL     1       2.689   5.008  -3.591  0.00  0.00    +0.088 C 
ATOM      3  C   UNL     1       2.533   4.562  -2.167  0.00  0.00    +0.163 C 
ATOM      4  C   UNL     1       1.522   4.985  -1.381  0.00  0.00    +0.039 C 
ATOM      5  C   UNL     1       1.476   4.447   0.011  0.00  0.00    +0.172 C 
ATOM      6  N   UNL     1       0.930   5.361   0.982  0.00  0.00    -0.329 N 
ATOM      7  C   UNL     1      -0.430   5.580   1.084  0.00  0.00    +0.049 A 
ATOM      8  C   UNL     1      -1.134   5.317   2.241  0.00  0.00    +0.025 A 
ATOM      9  C   UNL     1      -2.505   5.495   2.279  0.00  0.00    +0.002 A 
ATOM     10  C   UNL     1      -3.174   5.941   1.152  0.00  0.00    +0.002 A 
ATOM     11  C   UNL     1      -2.486   6.226  -0.005  0.00  0.00    +0.025 A 
ATOM     12  C   UNL     1      -1.096   6.069  -0.066  0.00  0.00    +0.052 A 
ATOM     13  N   UNL     1      -0.430   6.384  -1.183  0.00  0.00    -0.316 N 
ATOM     14  C   UNL     1       0.551   5.895  -1.854  0.00  0.00    +0.017 C 
ATOM     15  C   UNL     1       0.654   6.388  -3.292  0.00  0.00    +0.059 C 
ATOM     16  O   UNL     1       3.440   3.704  -1.653  0.00  0.00    -0.292 OA
ATOM     17  H   UNL     1       1.602   5.904   1.664  0.00  0.00    +0.147 HD
ATOM     18  H   UNL     1      -0.928   7.302  -1.528  0.00  0.00    +0.152 HD
ENDROOT
BRANCH   1  22
ATOM     19  C   UNL     1       1.668   6.732  -8.176  0.00  0.00    +0.120 A 
ATOM     20  C   UNL     1       0.942   5.580  -7.911  0.00  0.00    +0.046 A 
ATOM     21  C   UNL     1       0.825   5.123  -6.612  0.00  0.00    +0.007 A 
ATOM     22  C   UNL     1       1.429   5.813  -5.578  0.00  0.00    -0.043 A 
ATOM     23  C   UNL     1       2.148   6.965  -5.839  0.00  0.00    +0.007 A 
ATOM     24  C   UNL     1       2.274   7.423  -7.137  0.00  0.00    +0.046 A 
BRANCH  19  26
ATOM     25  C   UNL     1       2.547   8.376  -9.652  0.00  0.00    +0.277 C 
ATOM     26  O   UNL     1       1.786   7.184  -9.453  0.00  0.00    -0.495 OA
ENDBRANCH  19  26
ENDBRANCH   1  22
BRANCH   5  27
ATOM     27  C   UNL     1       0.640   3.193   0.012  0.00  0.00    +0.132 A 
ATOM     28  C   UNL     1       1.111   1.933   0.001  0.00  0.00    +0.049 A 
ATOM     29  C   UNL     1      -0.013   1.075   0.007  0.00  0.00    +0.076 A 
ATOM     30  C   UNL     1      -1.103   1.862   0.016  0.00  0.00    +0.280 A 
ATOM     31  O   UNL     1      -0.702   3.144   0.024  0.00  0.00    -0.437 OA
BRANCH  30  32
ATOM     32  N   UNL     1      -2.508   1.395   0.019  0.00  0.00    +0.093 N 
ATOM     33  O   UNL     1      -2.753   0.201   0.014  0.00  0.00    -0.123 OA
ATOM     34  O   UNL     1      -3.419   2.203   0.027  0.00  0.00    -0.123 OA
ENDBRANCH  30  32
ENDBRANCH   5  27
TORSDOF 4
