REMARK  Name = ZINC41358992
REMARK  7 active torsions:
REMARK  status: ('A' for Active; 'I' for Inactive)
REMARK    1  A    between atoms: C_1  and  C_2
REMARK    2  A    between atoms: C_5  and  C_14
REMARK    3  A    between atoms: C_12  and  C_13
REMARK    4  A    between atoms: C_14  and  N_15
REMARK    5  A    between atoms: C_16  and  C_18
REMARK    6  A    between atoms: C_18  and  C_19
REMARK    7  A    between atoms: C_19  and  C_20
REMARK                            x       y       z     vdW  Elec       q    Type
REMARK                         _______ _______ _______ _____ _____    ______ ____
ROOT
ATOM      1  C   UNL     1      -0.018   1.503   0.010  0.00  0.00    +0.044 C 
ATOM      2  C   UNL     1       0.002  -0.004   0.002  0.00  0.00    -0.047 A 
ATOM      3  C   UNL     1       0.006  -0.676  -1.188  0.00  0.00    +0.015 A 
ATOM      4  C   UNL     1       0.025  -2.074  -1.195  0.00  0.00    +0.023 A 
ATOM      5  C   UNL     1       0.029  -2.824  -2.455  0.00  0.00    -0.013 A 
ATOM      6  C   UNL     1       0.049  -4.179  -2.393  0.00  0.00    +0.097 A 
ATOM      7  C   UNL     1       0.063  -4.825  -1.138  0.00  0.00    +0.338 A 
ATOM      8  O   UNL     1       0.080  -6.042  -1.097  0.00  0.00    -0.245 OA
ATOM      9  O   UNL     1       0.059  -4.131   0.011  0.00  0.00    -0.422 OA
ATOM     10  C   UNL     1       0.040  -2.781   0.019  0.00  0.00    +0.140 A 
ATOM     11  C   UNL     1       0.036  -2.078   1.217  0.00  0.00    +0.050 A 
ATOM     12  C   UNL     1       0.023  -0.699   1.202  0.00  0.00    -0.044 A 
ATOM     13  C   UNL     1       0.025   0.061   2.504  0.00  0.00    +0.044 C 
ENDROOT
BRANCH   5  14
ATOM     14  C   UNL     1       0.013  -2.109  -3.782  0.00  0.00    +0.140 C 
BRANCH  14  15
ATOM     15  N   UNL     1      -1.369  -1.791  -4.148  0.00  0.00    -0.311 N 
ATOM     16  C   UNL     1      -1.629  -1.147  -5.303  0.00  0.00    +0.214 C 
ATOM     17  O   UNL     1      -0.719  -0.832  -6.040  0.00  0.00    -0.276 OA
ATOM     18  H   UNL     1      -2.098  -2.044  -3.559  0.00  0.00    +0.149 HD
BRANCH  16  19
ATOM     19  C   UNL     1      -3.051  -0.821  -5.680  0.00  0.00    +0.103 C 
BRANCH  19  20
ATOM     20  C   UNL     1      -3.068  -0.095  -7.027  0.00  0.00    +0.086 C 
BRANCH  20  21
ATOM     21  C   UNL     1      -4.490   0.232  -7.404  0.00  0.00    +0.139 A 
ATOM     22  C   UNL     1      -5.151   1.363  -7.092  0.00  0.00    +0.087 A 
ATOM     23  C   UNL     1      -6.449   1.274  -7.630  0.00  0.00    +0.172 A 
ATOM     24  N   UNL     1      -6.555   0.127  -8.241  0.00  0.00    -0.066 NA
ATOM     25  O   UNL     1      -5.317  -0.550  -8.114  0.00  0.00    -0.358 OA
ATOM     26 CL   UNL     1      -7.691   2.479  -7.501  0.00  0.00    -0.058 Cl
ENDBRANCH  20  21
ENDBRANCH  19  20
ENDBRANCH  16  19
ENDBRANCH  14  15
ENDBRANCH   5  14
TORSDOF 5
