REMARK  Name = ZINC13343100
REMARK  8 active torsions:
REMARK  status: ('A' for Active; 'I' for Inactive)
REMARK    1  A    between atoms: C_1  and  C_2
REMARK    2  A    between atoms: C_5  and  N_24
REMARK    3  A    between atoms: C_7  and  S_8
REMARK    4  A    between atoms: S_8  and  N_11
REMARK    5  A    between atoms: N_11  and  C_12
REMARK    6  A    between atoms: C_12  and  C_14
REMARK    7  A    between atoms: C_12  and  C_17
REMARK    8  A    between atoms: C_14  and  C_15
REMARK                            x       y       z     vdW  Elec       q    Type
REMARK                         _______ _______ _______ _____ _____    ______ ____
ROOT
ATOM      1  N   UNL     1       0.304  -0.187   1.019  0.00  0.00    -0.182 NA
ATOM      2  H   UNL     1       1.029  -0.367   1.638  0.00  0.00    +0.149 HD
ENDROOT
BRANCH   1   3
ATOM      3  S   UNL     1      -0.914  -1.291   0.827  0.00  0.00    +0.059 S 
ATOM      4  O   UNL     1      -1.524  -1.009  -0.425  0.00  0.00    -0.153 OA
ATOM      5  O   UNL     1      -0.362  -2.564   1.136  0.00  0.00    -0.153 OA
BRANCH   3  12
ATOM      6  C   UNL     1      -3.755  -2.329   0.755  0.00  0.00    +0.046 C 
ATOM      7  C   UNL     1      -3.398  -1.474   1.944  0.00  0.00    -0.024 A 
ATOM      8  C   UNL     1      -4.345  -1.213   2.917  0.00  0.00    +0.007 A 
ATOM      9  C   UNL     1      -4.020  -0.424   4.004  0.00  0.00    +0.033 A 
ATOM     10  C   UNL     1      -2.746   0.101   4.121  0.00  0.00    +0.128 A 
ATOM     11  C   UNL     1      -1.798  -0.165   3.151  0.00  0.00    +0.061 A 
ATOM     12  C   UNL     1      -2.123  -0.954   2.064  0.00  0.00    +0.110 A 
BRANCH  10  13
ATOM     13  N   UNL     1      -2.398   0.946   5.285  0.00  0.00    +0.056 N 
ATOM     14  O   UNL     1      -1.276   1.408   5.388  0.00  0.00    -0.126 OA
ATOM     15  O   UNL     1      -3.234   1.180   6.140  0.00  0.00    -0.126 OA
ENDBRANCH  10  13
ENDBRANCH   3  12
ENDBRANCH   1   3
BRANCH   1  16
ATOM     16  C   UNL     1       0.287   1.063   0.255  0.00  0.00    +0.117 C 
BRANCH  16  17
ATOM     17  C   UNL     1       1.684   1.386  -0.211  0.00  0.00    -0.028 A 
ATOM     18  C   UNL     1       2.759   1.176   0.632  0.00  0.00    +0.006 A 
ATOM     19  C   UNL     1       4.041   1.466   0.203  0.00  0.00    +0.020 A 
ATOM     20  C   UNL     1       4.246   1.978  -1.067  0.00  0.00    +0.041 A 
ATOM     21  C   UNL     1       3.168   2.193  -1.907  0.00  0.00    +0.020 A 
ATOM     22  C   UNL     1       1.888   1.897  -1.479  0.00  0.00    +0.006 A 
ATOM     23 CL   UNL     1       5.854   2.349  -1.604  0.00  0.00    -0.084 Cl
ENDBRANCH  16  17
BRANCH  16  24
ATOM     24  C   UNL     1      -0.229   2.197   1.143  0.00  0.00    +0.150 C 
BRANCH  24  25
ATOM     25  C   UNL     1      -1.693   1.985   1.428  0.00  0.00    +0.358 C 
ATOM     26  O   UNL     1      -2.308   1.135   0.830  0.00  0.00    -0.246 OA
ATOM     27  O   UNL     1      -2.315   2.742   2.346  0.00  0.00    -0.246 OA
ENDBRANCH  24  25
ENDBRANCH  16  24
ENDBRANCH   1  16
TORSDOF 7
