REMARK  Name = ZINC06878307
REMARK  8 active torsions:
REMARK  status: ('A' for Active; 'I' for Inactive)
REMARK    1  A    between atoms: C_1  and  C_2
REMARK    2  A    between atoms: C_2  and  N_3
REMARK    3  A    between atoms: C_4  and  C_24
REMARK    4  A    between atoms: C_7  and  S_8
REMARK    5  A    between atoms: S_8  and  C_9
REMARK    6  A    between atoms: C_9  and  C_10
REMARK    7  A    between atoms: N_12  and  C_13
REMARK    8  A    between atoms: C_14  and  C_21
REMARK                            x       y       z     vdW  Elec       q    Type
REMARK                         _______ _______ _______ _____ _____    ______ ____
ROOT
ATOM      1  C   UNL     1      -1.221  -0.786  -0.147  0.00  0.00    +0.228 C 
ATOM      2  O   UNL     1      -2.201  -0.071  -0.129  0.00  0.00    -0.275 OA
ATOM      3  N   UNL     1      -1.365  -2.125  -0.194  0.00  0.00    -0.279 N 
ATOM      4  H   UNL     1      -0.581  -2.697  -0.209  0.00  0.00    +0.155 HD
ENDROOT
BRANCH   3   5
ATOM      5  C   UNL     1      -2.633  -2.686  -0.222  0.00  0.00    +0.084 A 
ATOM      6  C   UNL     1      -2.980  -4.025  -0.276  0.00  0.00    +0.068 A 
ATOM      7  C   UNL     1      -4.405  -4.355  -0.292  0.00  0.00    -0.023 A 
ATOM      8  C   UNL     1      -5.236  -3.298  -0.260  0.00  0.00    -0.004 A 
ATOM      9  S   UNL     1      -4.165  -1.882  -0.205  0.00  0.00    -0.077 S 
ATOM     10  C   UNL     1      -6.681  -3.716  -0.281  0.00  0.00    +0.043 C 
ATOM     11  C   UNL     1      -6.659  -5.212   0.106  0.00  0.00    +0.010 C 
ATOM     12  C   UNL     1      -5.245  -5.631  -0.343  0.00  0.00    +0.037 C 
BRANCH   6  13
ATOM     13  C   UNL     1      -1.957  -5.074  -0.313  0.00  0.00    +0.244 C 
ATOM     14  O   UNL     1      -1.537  -5.552   0.725  0.00  0.00    -0.270 OA
ATOM     15  N   UNL     1      -1.481  -5.511  -1.497  0.00  0.00    -0.325 N 
ATOM     16  H   UNL     1      -1.815  -5.130  -2.324  0.00  0.00    +0.145 HD
ATOM     17  H   UNL     1      -0.804  -6.205  -1.521  0.00  0.00    +0.145 HD
ENDBRANCH   6  13
ENDBRANCH   3   5
BRANCH   1  18
ATOM     18  C   UNL     1       0.157  -0.176  -0.117  0.00  0.00    +0.173 C 
BRANCH  18  19
ATOM     19  S   UNL     1       0.017   1.627  -0.055  0.00  0.00    -0.077 S 
BRANCH  19  24
ATOM     20  N   UNL     1       2.235   3.331   0.018  0.00  0.00    -0.302 N 
ATOM     21  C   UNL     1       3.602   3.179   0.022  0.00  0.00    +0.165 A 
ATOM     22  N   UNL     1       3.847   1.891  -0.021  0.00  0.00    -0.128 NA
ATOM     23  N   UNL     1       2.742   1.234  -0.046  0.00  0.00    -0.122 NA
ATOM     24  C   UNL     1       1.724   2.065  -0.029  0.00  0.00    +0.192 A 
BRANCH  21  25
ATOM     25  C   UNL     1       4.606   4.264   0.066  0.00  0.00    +0.019 A 
ATOM     26  C   UNL     1       4.242   5.539   0.502  0.00  0.00    +0.011 A 
ATOM     27  C   UNL     1       5.185   6.545   0.546  0.00  0.00    +0.001 A 
ATOM     28  C   UNL     1       6.486   6.295   0.148  0.00  0.00    +0.000 A 
ATOM     29  C   UNL     1       6.853   5.035  -0.289  0.00  0.00    +0.001 A 
ATOM     30  C   UNL     1       5.921   4.018  -0.333  0.00  0.00    +0.011 A 
ENDBRANCH  21  25
BRANCH  20  32
ATOM     31  C   UNL     1       1.144   4.936   1.507  0.00  0.00    +0.027 C 
ATOM     32  C   UNL     1       1.483   4.588   0.056  0.00  0.00    +0.122 C 
ENDBRANCH  20  32
ENDBRANCH  19  24
ENDBRANCH  18  19
ENDBRANCH   1  18
TORSDOF 7
