REMARK  Name = ZINC02936406
REMARK  7 active torsions:
REMARK  status: ('A' for Active; 'I' for Inactive)
REMARK    1  A    between atoms: C_1  and  C_2
REMARK    2  A    between atoms: C_3  and  C_10
REMARK    3  A    between atoms: C_7  and  C_8
REMARK    4  A    between atoms: C_13  and  C_15
REMARK    5  A    between atoms: C_16  and  C_17
REMARK    6  A    between atoms: C_16  and  C_19
REMARK    7  A    between atoms: N_21  and  C_22
REMARK                            x       y       z     vdW  Elec       q    Type
REMARK                         _______ _______ _______ _____ _____    ______ ____
ROOT
ATOM      1  C   UNL     1       3.442  -1.028   0.316  0.00  0.00    +0.136 A 
ATOM      2  C   UNL     1       4.628  -0.939  -0.383  0.00  0.00    +0.050 A 
ATOM      3  C   UNL     1       5.430  -1.999   0.038  0.00  0.00    +0.050 A 
ATOM      4  C   UNL     1       4.697  -2.708   0.979  0.00  0.00    +0.130 A 
ATOM      5  O   UNL     1       3.501  -2.099   1.126  0.00  0.00    -0.455 OA
ENDROOT
BRANCH   1   8
ATOM      6  C   UNL     1       0.788  -2.098  -0.106  0.00  0.00    +0.045 C 
ATOM      7  C   UNL     1       1.012  -0.610  -0.015  0.00  0.00    -0.026 A 
ATOM      8  C   UNL     1       2.297  -0.106   0.189  0.00  0.00    +0.021 A 
ATOM      9  C   UNL     1       2.497   1.275   0.273  0.00  0.00    +0.012 A 
ATOM     10  C   UNL     1       1.427   2.139   0.154  0.00  0.00    +0.002 A 
ATOM     11  C   UNL     1       0.152   1.647  -0.048  0.00  0.00    +0.015 A 
ATOM     12  C   UNL     1      -0.063   0.268  -0.133  0.00  0.00    +0.067 A 
BRANCH  12  13
ATOM     13  C   UNL     1      -1.427  -0.256  -0.349  0.00  0.00    +0.387 C 
ATOM     14  O   UNL     1      -1.597  -1.442  -0.553  0.00  0.00    -0.241 OA
ATOM     15  O   UNL     1      -2.482   0.580  -0.320  0.00  0.00    -0.241 OA
ENDBRANCH  12  13
ENDBRANCH   1   8
BRANCH   4  16
ATOM     16  C   UNL     1       5.125  -3.860   1.659  0.00  0.00    +0.070 C 
ATOM     17  C   UNL     1       4.286  -4.473   2.579  0.00  0.00    +0.117 C 
BRANCH  17  18
ATOM     18  C   UNL     1       4.733  -5.677   3.290  0.00  0.00    +0.259 C 
ATOM     19  O   UNL     1       5.839  -6.137   3.073  0.00  0.00    -0.269 OA
ATOM     20  N   UNL     1       3.919  -6.273   4.184  0.00  0.00    -0.281 N 
ATOM     21  H   UNL     1       3.014  -5.947   4.308  0.00  0.00    +0.155 HD
BRANCH  20  22
ATOM     22  C   UNL     1       4.380  -7.361   4.933  0.00  0.00    +0.034 A 
ATOM     23  C   UNL     1       3.507  -8.380   5.289  0.00  0.00    +0.024 A 
ATOM     24  C   UNL     1       3.966  -9.456   6.024  0.00  0.00    +0.017 A 
ATOM     25  C   UNL     1       5.292  -9.513   6.415  0.00  0.00    +0.018 A 
ATOM     26  C   UNL     1       6.163  -8.495   6.066  0.00  0.00    +0.017 A 
ATOM     27  C   UNL     1       5.711  -7.420   5.327  0.00  0.00    +0.024 A 
ATOM     28 BR   UNL     1       5.915 -10.983   7.427  0.00  0.00    -0.050 Br
ENDBRANCH  20  22
ENDBRANCH  17  18
BRANCH  17  29
ATOM     29  C   UNL     1       2.986  -3.932   2.835  0.00  0.00    +0.104 C 
ATOM     30  N   UNL     1       1.954  -3.503   3.038  0.00  0.00    -0.191 NA
ENDBRANCH  17  29
ENDBRANCH   4  16
TORSDOF 6
