REMARK  Name = ZINC39710309
REMARK  13 active torsions:
REMARK  status: ('A' for Active; 'I' for Inactive)
REMARK    1  A    between atoms: C_1  and  C_2
REMARK    2  A    between atoms: C_2  and  C_3
REMARK    3  A    between atoms: C_3  and  C_4
REMARK    4  A    between atoms: C_3  and  C_5
REMARK    5  A    between atoms: C_3  and  N_6
REMARK    6  A    between atoms: C_7  and  C_12
REMARK    7  A    between atoms: C_12  and  C_14
REMARK    8  A    between atoms: C_12  and  N_27
REMARK    9  A    between atoms: C_19  and  C_26
REMARK   10  A    between atoms: N_27  and  C_28
REMARK   11  A    between atoms: N_27  and  C_35
REMARK   12  A    between atoms: C_28  and  C_29
REMARK   13  A    between atoms: C_35  and  C_36
REMARK                            x       y       z     vdW  Elec       q    Type
REMARK                         _______ _______ _______ _____ _____    ______ ____
ROOT
ATOM      1  C   UNL     1       2.882  -2.967  -2.200  0.00  0.00    -0.009 C 
ENDROOT
BRANCH   1   2
ATOM      2  C   UNL     1       2.232  -3.861  -1.142  0.00  0.00    +0.088 C 
ATOM      3  C   UNL     1       1.097  -4.616  -1.805  0.00  0.00    -0.006 C 
ATOM      4  C   UNL     1      -0.151  -4.459  -1.278  0.00  0.00    -0.007 A 
ATOM      5  C   UNL     1      -1.303  -5.151  -1.856  0.00  0.00    +0.012 A 
ATOM      6  C   UNL     1      -2.527  -4.964  -1.298  0.00  0.00    -0.050 A 
ATOM      7  C   UNL     1      -2.702  -4.131  -0.192  0.00  0.00    +0.005 A 
ATOM      8  C   UNL     1      -1.673  -3.462   0.391  0.00  0.00    +0.024 A 
ATOM      9  C   UNL     1      -0.365  -3.586  -0.111  0.00  0.00    +0.040 A 
ATOM     10  N   UNL     1       0.637  -2.925   0.470  0.00  0.00    -0.285 N 
ATOM     11  C   UNL     1       1.888  -2.995   0.049  0.00  0.00    +0.223 C 
ATOM     12  O   UNL     1       2.759  -2.367   0.620  0.00  0.00    -0.275 OA
ATOM     13  C   UNL     1      -3.721  -5.671  -1.885  0.00  0.00    +0.044 C 
ATOM     14  H   UNL     1       0.437  -2.364   1.236  0.00  0.00    +0.155 HD
ENDBRANCH   1   2
BRANCH   1  16
ATOM     15  N   UNL     1       1.385  -1.101  -1.585  0.00  0.00    -0.182 NA
ATOM     16  C   UNL     1       1.860  -1.944  -2.701  0.00  0.00    +0.205 C 
ATOM     17  N   UNL     1       0.652  -2.621  -3.192  0.00  0.00    -0.152 NA
ATOM     18  N   UNL     1      -0.312  -2.256  -2.515  0.00  0.00    -0.070 NA
ATOM     19  N   UNL     1       0.037  -1.340  -1.524  0.00  0.00    -0.179 N 
ATOM     20  H   UNL     1      -0.578  -0.936  -0.891  0.00  0.00    +0.191 HD
BRANCH  15  21
ATOM     21  C   UNL     1       1.656   0.319  -1.846  0.00  0.00    +0.037 C 
ATOM     22  C   UNL     1       1.028   0.721  -3.182  0.00  0.00    +0.029 C 
ATOM     23  C   UNL     1       3.168   0.548  -1.903  0.00  0.00    +0.029 C 
BRANCH  21  25
ATOM     24  C   UNL     1       1.337   2.647  -0.995  0.00  0.00    +0.006 C 
ATOM     25  C   UNL     1       1.054   1.168  -0.724  0.00  0.00    +0.020 C 
ENDBRANCH  21  25
ENDBRANCH  15  21
ENDBRANCH   1  16
BRANCH   1  26
ATOM     26  N   UNL     1       3.340  -3.793  -3.325  0.00  0.00    +0.390 N 
ATOM     27  H   UNL     1       2.564  -4.325  -3.689  0.00  0.00    -0.080 HD
BRANCH  26  28
ATOM     28  C   UNL     1       4.389  -4.712  -2.862  0.00  0.00    -0.042 C 
BRANCH  28  29
ATOM     29  C   UNL     1       5.457  -3.931  -2.139  0.00  0.00    -0.064 A 
ATOM     30  C   UNL     1       6.454  -3.296  -2.855  0.00  0.00    +0.002 A 
ATOM     31  C   UNL     1       7.433  -2.580  -2.192  0.00  0.00    +0.000 A 
ATOM     32  C   UNL     1       7.415  -2.500  -0.812  0.00  0.00    +0.000 A 
ATOM     33  C   UNL     1       6.417  -3.134  -0.096  0.00  0.00    +0.000 A 
ATOM     34  C   UNL     1       5.436  -3.846  -0.759  0.00  0.00    +0.002 A 
ENDBRANCH  28  29
ENDBRANCH  26  28
BRANCH  26  35
ATOM     35  C   UNL     1       3.879  -2.926  -4.381  0.00  0.00    -0.040 C 
BRANCH  35  36
ATOM     36  C   UNL     1       4.114  -3.740  -5.628  0.00  0.00    -0.046 A 
ATOM     37  C   UNL     1       5.287  -4.464  -5.783  0.00  0.00    +0.005 A 
ATOM     38  C   UNL     1       5.460  -5.198  -6.946  0.00  0.00    +0.020 A 
ATOM     39  C   UNL     1       4.465  -5.185  -7.905  0.00  0.00    +0.111 A 
ATOM     40  N   UNL     1       3.362  -4.485  -7.724  0.00  0.00    -0.263 NA
ATOM     41  C   UNL     1       3.161  -3.780  -6.627  0.00  0.00    +0.112 A 
ENDBRANCH  35  36
ENDBRANCH  26  35
ENDBRANCH   1  26
TORSDOF 9
