REMARK  Name = ZINC49739162
REMARK  4 active torsions:
REMARK  status: ('A' for Active; 'I' for Inactive)
REMARK    1  A    between atoms: C_10  and  C_13
REMARK    2  A    between atoms: C_13  and  N_14
REMARK    3  A    between atoms: N_14  and  S_15
REMARK    4  A    between atoms: S_15  and  C_18
REMARK                            x       y       z     vdW  Elec       q    Type
REMARK                         _______ _______ _______ _____ _____    ______ ____
ROOT
ATOM      1  N   UNL     1       4.880  -0.891   2.448  0.00  0.00    -0.186 NA
ATOM      2  H   UNL     1       5.594  -0.781   1.801  0.00  0.00    +0.148 HD
ENDROOT
BRANCH   1   3
ATOM      3  S   UNL     1       5.002  -0.189   3.943  0.00  0.00    +0.059 S 
ATOM      4  O   UNL     1       6.260   0.472   3.980  0.00  0.00    -0.153 OA
ATOM      5  O   UNL     1       3.777   0.493   4.173  0.00  0.00    -0.153 OA
BRANCH   3   6
ATOM      6  C   UNL     1       5.083  -1.492   5.126  0.00  0.00    +0.109 A 
ATOM      7  C   UNL     1       3.920  -1.996   5.678  0.00  0.00    +0.032 A 
ATOM      8  C   UNL     1       3.979  -3.018   6.607  0.00  0.00    +0.051 A 
ATOM      9  C   UNL     1       5.207  -3.541   6.987  0.00  0.00    +0.162 A 
ATOM     10  C   UNL     1       6.375  -3.036   6.430  0.00  0.00    +0.164 A 
ATOM     11  C   UNL     1       6.309  -2.013   5.496  0.00  0.00    +0.078 A 
ATOM     12  O   UNL     1       7.589  -3.540   6.784  0.00  0.00    -0.485 OA
ATOM     13  C   UNL     1       7.641  -4.309   7.990  0.00  0.00    +0.270 C 
ATOM     14  C   UNL     1       6.465  -5.296   7.981  0.00  0.00    +0.270 C 
ATOM     15  O   UNL     1       5.249  -4.544   7.905  0.00  0.00    -0.485 OA
ENDBRANCH   3   6
ENDBRANCH   1   3
BRANCH   1  16
ATOM     16  C   UNL     1       3.693  -1.677   2.103  0.00  0.00    +0.160 C 
BRANCH  16  26
ATOM     17  C   UNL     1      -0.017   1.378   0.010  0.00  0.00    +0.002 A 
ATOM     18  C   UNL     1       1.169   2.090   0.002  0.00  0.00    +0.004 A 
ATOM     19  C   UNL     1       2.381   1.424  -0.019  0.00  0.00    +0.047 A 
ATOM     20  C   UNL     1       2.408   0.040  -0.030  0.00  0.00    +0.143 A 
ATOM     21  C   UNL     1       1.213  -0.677  -0.012  0.00  0.00    +0.076 A 
ATOM     22  C   UNL     1       0.002  -0.004   0.002  0.00  0.00    +0.027 A 
ATOM     23  N   UNL     1       1.250  -2.078   0.012  0.00  0.00    -0.279 N 
ATOM     24  C   UNL     1       2.425  -2.703   0.235  0.00  0.00    +0.259 C 
ATOM     25  O   UNL     1       2.498  -3.911   0.151  0.00  0.00    -0.271 OA
ATOM     26  C   UNL     1       3.647  -1.893   0.589  0.00  0.00    +0.274 C 
ATOM     27  O   UNL     1       3.593  -0.626  -0.070  0.00  0.00    -0.476 OA
ATOM     28  H   UNL     1       0.440  -2.592  -0.130  0.00  0.00    +0.155 HD
ENDBRANCH  16  26
ENDBRANCH   1  16
TORSDOF 4
