REMARK  Name = ZINC13122602
REMARK  5 active torsions:
REMARK  status: ('A' for Active; 'I' for Inactive)
REMARK    1  A    between atoms: C_3  and  C_6
REMARK    2  A    between atoms: C_6  and  C_7
REMARK    3  A    between atoms: C_7  and  N_9
REMARK    4  A    between atoms: N_10  and  C_11
REMARK    5  A    between atoms: C_20  and  O_21
REMARK                            x       y       z     vdW  Elec       q    Type
REMARK                         _______ _______ _______ _____ _____    ______ ____
ROOT
ATOM      1  C   UNL     1       7.143   3.034   3.075  0.00  0.00    +0.152 A 
ATOM      2  C   UNL     1       7.777   3.244   4.392  0.00  0.00    +0.032 A 
ATOM      3  C   UNL     1       7.347   3.072   5.704  0.00  0.00    +0.027 A 
ATOM      4  C   UNL     1       8.201   3.366   6.748  0.00  0.00    +0.019 A 
ATOM      5  C   UNL     1       9.482   3.830   6.491  0.00  0.00    +0.017 A 
ATOM      6  C   UNL     1       9.919   4.005   5.194  0.00  0.00    +0.027 A 
ATOM      7  C   UNL     1       9.072   3.714   4.130  0.00  0.00    +0.051 A 
ATOM      8  N   UNL     1       9.232   3.790   2.756  0.00  0.00    -0.324 N 
ATOM      9  H   UNL     1      10.040   4.087   2.310  0.00  0.00    +0.169 HD
ATOM     10  C   UNL     1       8.106   3.388   2.120  0.00  0.00    +0.219 A 
ATOM     11 BR   UNL     1       7.623   3.134   8.533  0.00  0.00    -0.050 Br
ENDROOT
BRANCH   1  13
ATOM     12  N   UNL     1       5.490   2.452   1.628  0.00  0.00    -0.080 NA
ATOM     13  N   UNL     1       5.906   2.592   2.841  0.00  0.00    -0.151 NA
BRANCH  12  14
ATOM     14  C   UNL     1       4.247   2.008   1.393  0.00  0.00    +0.259 C 
ATOM     15  O   UNL     1       3.514   1.736   2.322  0.00  0.00    -0.272 OA
BRANCH  14  16
ATOM     16  C   UNL     1       3.761   1.845  -0.024  0.00  0.00    +0.141 C 
BRANCH  16  19
ATOM     17  C   UNL     1      -0.016   1.351   0.009  0.00  0.00    +0.008 A 
ATOM     18  C   UNL     1       1.183   2.038   0.002  0.00  0.00    +0.011 A 
ATOM     19  C   UNL     1       2.343   1.336  -0.013  0.00  0.00    -0.001 A 
ATOM     20  S   UNL     1       1.754  -0.349  -0.017  0.00  0.00    -0.101 S 
ATOM     21  C   UNL     1       0.002  -0.004   0.002  0.00  0.00    +0.045 A 
ENDBRANCH  16  19
ENDBRANCH  14  16
ENDBRANCH  12  14
ENDBRANCH   1  13
BRANCH  10  22
ATOM     22  O   UNL     1       7.938   3.339   0.783  0.00  0.00    -0.492 OA
ATOM     23  H   UNL     1       7.590   4.156   0.400  0.00  0.00    +0.294 HD
ENDBRANCH  10  22
TORSDOF 5
