REMARK  Name = ZINC02358961
REMARK  12 active torsions:
REMARK  status: ('A' for Active; 'I' for Inactive)
REMARK    1  A    between atoms: C_1  and  C_2
REMARK    2  A    between atoms: C_2  and  C_3
REMARK    3  A    between atoms: C_3  and  C_4
REMARK    4  A    between atoms: C_4  and  C_5
REMARK    5  A    between atoms: C_5  and  O_6
REMARK    6  A    between atoms: O_6  and  C_7
REMARK    7  A    between atoms: C_10  and  C_13
REMARK    8  A    between atoms: C_16  and  C_34
REMARK    9  A    between atoms: N_18  and  C_25
REMARK   10  A    between atoms: C_21  and  O_24
REMARK   11  A    between atoms: C_30  and  C_32
REMARK   12  A    between atoms: C_30  and  C_33
REMARK                            x       y       z     vdW  Elec       q    Type
REMARK                         _______ _______ _______ _____ _____    ______ ____
ROOT
ATOM      1  C   UNL     1       3.692  -6.948   6.397  0.00  0.00    +0.112 C 
ATOM      2  C   UNL     1       4.996  -7.608   6.062  0.00  0.00    +0.036 A 
ATOM      3  C   UNL     1       5.805  -7.183   4.993  0.00  0.00    +0.067 A 
ATOM      4  N   UNL     1       6.870  -7.932   4.945  0.00  0.00    -0.174 NA
ATOM      5  N   UNL     1       6.800  -8.870   5.975  0.00  0.00    -0.243 N 
ATOM      6  C   UNL     1       5.623  -8.665   6.664  0.00  0.00    +0.160 A 
ATOM      7  N   UNL     1       5.276  -9.440   7.706  0.00  0.00    -0.197 NA
ATOM      8  C   UNL     1       4.314  -9.514   8.504  0.00  0.00    +0.199 C 
ATOM      9  C   UNL     1       3.120  -8.652   8.631  0.00  0.00    +0.165 C 
ATOM     10  S   UNL     1       2.477  -8.101   7.044  0.00  0.00    -0.138 S 
ATOM     11  C   UNL     1       5.490  -6.047   4.054  0.00  0.00    +0.068 C 
ENDROOT
BRANCH   5  12
ATOM     12  C   UNL     1       7.804  -9.894   6.274  0.00  0.00    +0.114 C 
ATOM     13  C   UNL     1       9.144  -9.222   6.588  0.00  0.00    +0.055 C 
ATOM     14  C   UNL     1      10.205 -10.301   6.822  0.00  0.00    +0.162 C 
ATOM     15  O   UNL     1      10.294 -11.137   5.667  0.00  0.00    -0.374 OA
ATOM     16  C   UNL     1       9.083 -11.829   5.352  0.00  0.00    +0.066 C 
ATOM     17  C   UNL     1       7.976 -10.812   5.061  0.00  0.00    +0.061 C 
ATOM     18  C   UNL     1       9.304 -12.710   4.122  0.00  0.00    +0.041 C 
ATOM     19  C   UNL     1       8.672 -12.702   6.539  0.00  0.00    +0.041 C 
ENDBRANCH   5  12
BRANCH   1  23
ATOM     20  C   UNL     1       2.122  -5.125   2.865  0.00  0.00    +0.121 A 
ATOM     21  C   UNL     1       2.642  -4.337   3.881  0.00  0.00    +0.046 A 
ATOM     22  C   UNL     1       3.149  -4.928   5.022  0.00  0.00    +0.008 A 
ATOM     23  C   UNL     1       3.139  -6.305   5.152  0.00  0.00    -0.030 A 
ATOM     24  C   UNL     1       2.621  -7.093   4.141  0.00  0.00    +0.008 A 
ATOM     25  C   UNL     1       2.107  -6.506   3.000  0.00  0.00    +0.046 A 
BRANCH  20  26
ATOM     26  O   UNL     1       1.622  -4.546   1.742  0.00  0.00    -0.492 OA
BRANCH  26  27
ATOM     27  C   UNL     1       1.670  -3.119   1.672  0.00  0.00    +0.229 C 
BRANCH  27  28
ATOM     28  C   UNL     1       1.068  -2.653   0.345  0.00  0.00    +0.041 C 
BRANCH  28  29
ATOM     29  C   UNL     1       1.119  -1.126   0.270  0.00  0.00    +0.003 C 
BRANCH  29  31
ATOM     30  C   UNL     1       0.568   0.867  -1.132  0.00  0.00    +0.004 C 
ATOM     31  C   UNL     1       0.516  -0.660  -1.057  0.00  0.00    -0.003 C 
ENDBRANCH  29  31
ENDBRANCH  28  29
ENDBRANCH  27  28
ENDBRANCH  26  27
ENDBRANCH  20  26
ENDBRANCH   1  23
BRANCH   8  32
ATOM     32  O   UNL     1       4.377 -10.535   9.382  0.00  0.00    -0.495 OA
ATOM     33  H   UNL     1       5.164 -11.089   9.286  0.00  0.00    +0.293 HD
ENDBRANCH   8  32
TORSDOF 8
