REMARK  Name = ZINC43535416
REMARK  2 active torsions:
REMARK  status: ('A' for Active; 'I' for Inactive)
REMARK    1  A    between atoms: C_5  and  C_11
REMARK    2  A    between atoms: C_11  and  N_12
REMARK                            x       y       z     vdW  Elec       q    Type
REMARK                         _______ _______ _______ _____ _____    ______ ____
ROOT
ATOM      1  N   UNL     1       6.414   0.873  -1.433  0.00  0.00    -0.323 N 
ATOM      2  C   UNL     1       7.773   0.919  -1.698  0.00  0.00    +0.125 A 
ATOM      3  C   UNL     1       8.701   0.832  -0.659  0.00  0.00    +0.083 A 
ATOM      4  C   UNL     1      10.047   0.882  -0.972  0.00  0.00    +0.136 A 
ATOM      5  N   UNL     1      10.414   1.012  -2.240  0.00  0.00    -0.203 NA
ATOM      6  C   UNL     1       9.510   1.093  -3.205  0.00  0.00    +0.216 A 
ATOM      7  N   UNL     1       8.212   1.043  -2.947  0.00  0.00    -0.200 NA
ATOM      8  N   UNL     1       9.933   1.228  -4.515  0.00  0.00    -0.327 N 
ATOM      9 CL   UNL     1      11.243   0.778   0.282  0.00  0.00    -0.062 Cl
ATOM     10  H   UNL     1       5.775   0.930  -2.160  0.00  0.00    +0.148 HD
ATOM     11  H   UNL     1      10.881   1.262  -4.718  0.00  0.00    +0.145 HD
ATOM     12  H   UNL     1       9.282   1.288  -5.231  0.00  0.00    +0.145 HD
ENDROOT
BRANCH   1  13
ATOM     13  C   UNL     1       5.942   0.736  -0.052  0.00  0.00    +0.160 C 
BRANCH  13  18
ATOM     14  C   UNL     1      -0.017   1.401   0.010  0.00  0.00    +0.025 A 
ATOM     15  C   UNL     1       1.155   2.091   0.002  0.00  0.00    +0.048 A 
ATOM     16  C   UNL     1       2.373   1.383  -0.013  0.00  0.00    +0.138 A 
ATOM     17  N   UNL     1       3.638   1.781  -0.024  0.00  0.00    -0.231 NA
ATOM     18  C   UNL     1       4.435   0.711  -0.037  0.00  0.00    +0.077 A 
ATOM     19  C   UNL     1       3.666  -0.400  -0.036  0.00  0.00    +0.117 A 
ATOM     20  N   UNL     1       2.361   0.012  -0.020  0.00  0.00    -0.305 N 
ATOM     21  C   UNL     1       1.177  -0.669  -0.013  0.00  0.00    +0.112 A 
ATOM     22  C   UNL     1       0.002  -0.004   0.002  0.00  0.00    +0.058 A 
ATOM     23 CL   UNL     1      -1.492  -0.889   0.012  0.00  0.00    -0.082 Cl
ENDBRANCH  13  18
ENDBRANCH   1  13
TORSDOF 2
