REMARK  Name = ZINC11658513
REMARK  8 active torsions:
REMARK  status: ('A' for Active; 'I' for Inactive)
REMARK    1  A    between atoms: C_1  and  O_2
REMARK    2  A    between atoms: O_2  and  C_3
REMARK    3  A    between atoms: C_6  and  C_9
REMARK    4  A    between atoms: C_9  and  C_11
REMARK    5  A    between atoms: C_9  and  N_60
REMARK    6  A    between atoms: C_11  and  N_12
REMARK    7  A    between atoms: C_13  and  C_15
REMARK    8  A    between atoms: C_15  and  C_16
REMARK                            x       y       z     vdW  Elec       q    Type
REMARK                         _______ _______ _______ _____ _____    ______ ____
ROOT
ATOM      1  N   UNL     1      -0.105   0.681   0.750  0.00  0.00    -0.316 N 
ATOM      2  C   UNL     1       1.006   1.190   1.317  0.00  0.00    +0.215 C 
ATOM      3  O   UNL     1       0.984   2.300   1.806  0.00  0.00    -0.276 OA
ATOM      4  H   UNL     1      -0.088  -0.206   0.358  0.00  0.00    +0.149 HD
ENDROOT
BRANCH   1   5
ATOM      5  C   UNL     1      -1.339   1.471   0.718  0.00  0.00    +0.093 C 
BRANCH   5   6
ATOM      6  C   UNL     1      -2.439   0.671   0.017  0.00  0.00    -0.020 C 
BRANCH   6  12
ATOM      7  C   UNL     1      -1.683   1.427  -2.155  0.00  0.00    -0.078 C 
ATOM      8  C   UNL     1      -1.065   0.965  -3.476  0.00  0.00    -0.019 C 
ATOM      9  C   UNL     1      -2.042   0.028  -4.191  0.00  0.00    -0.004 C 
ATOM     10  C   UNL     1      -2.364  -1.156  -3.275  0.00  0.00    -0.019 C 
ATOM     11  C   UNL     1      -2.945  -0.632  -1.959  0.00  0.00    -0.078 C 
ATOM     12  N   UNL     1      -1.947   0.244  -1.309  0.00  0.00    +0.385 N 
ATOM     13  H   UNL     1      -1.073  -0.280  -1.187  0.00  0.00    -0.081 HD
ENDBRANCH   6  12
BRANCH   6  17
ATOM     14  C   UNL     1      -5.931   3.101  -0.386  0.00  0.00    +0.120 A 
ATOM     15  C   UNL     1      -6.030   1.827   0.155  0.00  0.00    +0.046 A 
ATOM     16  C   UNL     1      -4.899   1.044   0.284  0.00  0.00    +0.005 A 
ATOM     17  C   UNL     1      -3.670   1.528  -0.125  0.00  0.00    -0.059 A 
ATOM     18  C   UNL     1      -3.569   2.800  -0.658  0.00  0.00    +0.005 A 
ATOM     19  C   UNL     1      -4.697   3.585  -0.795  0.00  0.00    +0.046 A 
BRANCH  14  21
ATOM     20  C   UNL     1      -6.865   5.175  -1.079  0.00  0.00    +0.277 C 
ATOM     21  O   UNL     1      -7.042   3.874  -0.514  0.00  0.00    -0.495 OA
ENDBRANCH  14  21
ENDBRANCH   6  17
ENDBRANCH   5   6
ENDBRANCH   1   5
BRANCH   2  22
ATOM     22  C   UNL     1       2.277   0.380   1.344  0.00  0.00    +0.119 C 
BRANCH  22  23
ATOM     23  C   UNL     1       3.378   1.182   2.040  0.00  0.00    +0.146 C 
ATOM     24  C   UNL     1       4.681   0.429   1.961  0.00  0.00    +0.231 C 
ATOM     25  O   UNL     1       5.474   0.736   1.096  0.00  0.00    -0.274 OA
ATOM     26  N   UNL     1       5.003  -0.555   2.794  0.00  0.00    -0.284 N 
ATOM     27  C   UNL     1       4.280  -0.974   3.907  0.00  0.00    +0.048 A 
ATOM     28  C   UNL     1       4.568  -2.207   4.482  0.00  0.00    +0.044 A 
ATOM     29  C   UNL     1       3.859  -2.645   5.585  0.00  0.00    +0.043 A 
ATOM     30  C   UNL     1       2.862  -1.858   6.134  0.00  0.00    +0.021 A 
ATOM     31  C   UNL     1       2.578  -0.622   5.583  0.00  0.00    +0.018 A 
ATOM     32  C   UNL     1       3.288  -0.177   4.481  0.00  0.00    +0.030 A 
ATOM     33  S   UNL     1       2.953   1.414   3.793  0.00  0.00    -0.110 S 
ATOM     34 CL   UNL     1       4.222  -4.192   6.284  0.00  0.00    -0.083 Cl
ATOM     35  H   UNL     1       5.827  -1.032   2.606  0.00  0.00    +0.155 HD
ENDBRANCH  22  23
ENDBRANCH   2  22
TORSDOF 7
