REMARK  Name = ZINC09134721
REMARK  8 active torsions:
REMARK  status: ('A' for Active; 'I' for Inactive)
REMARK    1  A    between atoms: C_1  and  C_2
REMARK    2  A    between atoms: C_3  and  C_29
REMARK    3  A    between atoms: N_4  and  C_25
REMARK    4  A    between atoms: C_9  and  C_14
REMARK    5  A    between atoms: C_23  and  O_24
REMARK    6  A    between atoms: C_25  and  C_26
REMARK    7  A    between atoms: C_26  and  C_27
REMARK    8  A    between atoms: C_27  and  O_28
REMARK                            x       y       z     vdW  Elec       q    Type
REMARK                         _______ _______ _______ _____ _____    ______ ____
ROOT
ATOM      1  C   UNL     1       1.930  -3.226  -0.034  0.00  0.00    +0.046 C 
ATOM      2  C   UNL     1       0.933  -2.096  -0.018  0.00  0.00    -0.017 A 
ATOM      3  C   UNL     1      -0.408  -2.209  -0.006  0.00  0.00    +0.021 A 
ATOM      4  N   UNL     1      -0.974  -0.963   0.006  0.00  0.00    -0.329 N 
ATOM      5  C   UNL     1       0.002  -0.004   0.002  0.00  0.00    +0.146 A 
ATOM      6  C   UNL     1       1.234  -0.671  -0.013  0.00  0.00    +0.066 A 
ATOM      7  C   UNL     1       2.453   0.131  -0.021  0.00  0.00    +0.169 A 
ATOM      8  N   UNL     1       3.743  -0.142  -0.034  0.00  0.00    -0.206 NA
ATOM      9  C   UNL     1       4.443   0.996  -0.035  0.00  0.00    +0.186 A 
ATOM     10  N   UNL     1       3.612   2.020  -0.022  0.00  0.00    -0.143 NA
ATOM     11  N   UNL     1       2.313   1.496  -0.012  0.00  0.00    -0.201 N 
ATOM     12  C   UNL     1       1.073   2.049   0.003  0.00  0.00    +0.227 A 
ATOM     13  N   UNL     1      -0.016   1.337   0.009  0.00  0.00    -0.218 NA
ATOM     14  C   UNL     1      -1.171  -3.509  -0.006  0.00  0.00    +0.064 C 
ENDROOT
BRANCH   9  15
ATOM     15  C   UNL     1       5.923   1.092  -0.049  0.00  0.00    +0.063 A 
ATOM     16  C   UNL     1       6.697  -0.079  -0.058  0.00  0.00    +0.016 A 
ATOM     17  C   UNL     1       8.054  -0.018  -0.076  0.00  0.00    +0.009 A 
ATOM     18  C   UNL     1       8.705   1.229  -0.076  0.00  0.00    -0.014 A 
ATOM     19  C   UNL     1      10.107   1.314  -0.088  0.00  0.00    +0.008 A 
ATOM     20  C   UNL     1      10.709   2.535  -0.087  0.00  0.00    +0.001 A 
ATOM     21  C   UNL     1       9.955   3.707  -0.074  0.00  0.00    +0.001 A 
ATOM     22  C   UNL     1       8.594   3.663  -0.061  0.00  0.00    +0.012 A 
ATOM     23  C   UNL     1       7.938   2.421  -0.062  0.00  0.00    +0.024 A 
ATOM     24  C   UNL     1       6.532   2.339  -0.048  0.00  0.00    +0.135 A 
BRANCH  24  25
ATOM     25  O   UNL     1       5.780   3.469  -0.034  0.00  0.00    -0.505 OA
ATOM     26  H   UNL     1       5.571   3.792   0.853  0.00  0.00    +0.292 HD
ENDBRANCH  24  25
ENDBRANCH   9  15
BRANCH   4  27
ATOM     27  C   UNL     1      -2.414  -0.695   0.021  0.00  0.00    +0.126 C 
BRANCH  27  28
ATOM     28  C   UNL     1      -2.929  -0.594  -1.417  0.00  0.00    +0.049 C 
BRANCH  28  29
ATOM     29  C   UNL     1      -4.433  -0.314  -1.402  0.00  0.00    +0.157 C 
BRANCH  29  30
ATOM     30  O   UNL     1      -4.913  -0.220  -2.744  0.00  0.00    -0.395 OA
ATOM     31  H   UNL     1      -5.862  -0.043  -2.811  0.00  0.00    +0.209 HD
ENDBRANCH  29  30
ENDBRANCH  28  29
ENDBRANCH  27  28
ENDBRANCH   4  27
TORSDOF 6
