REMARK  Name = ZINC37346373
REMARK  5 active torsions:
REMARK  status: ('A' for Active; 'I' for Inactive)
REMARK    1  A    between atoms: C_1  and  C_2
REMARK    2  A    between atoms: C_5  and  C_9
REMARK    3  A    between atoms: C_9  and  C_11
REMARK    4  A    between atoms: C_11  and  C_13
REMARK    5  A    between atoms: C_11  and  C_15
REMARK                            x       y       z     vdW  Elec       q    Type
REMARK                         _______ _______ _______ _____ _____    ______ ____
ROOT
ATOM      1  C   UNL     1       0.077  -5.009   1.276  0.00  0.00    +0.193 C 
ENDROOT
BRANCH   1   2
ATOM      2  C   UNL     1       0.805  -6.315   1.083  0.00  0.00    -0.005 A 
ATOM      3  C   UNL     1       0.343  -7.233   0.158  0.00  0.00    +0.008 A 
ATOM      4  C   UNL     1       1.010  -8.431  -0.020  0.00  0.00    +0.020 A 
ATOM      5  C   UNL     1       2.140  -8.711   0.728  0.00  0.00    +0.042 A 
ATOM      6  C   UNL     1       2.602  -7.793   1.654  0.00  0.00    +0.040 A 
ATOM      7  C   UNL     1       1.937  -6.593   1.827  0.00  0.00    +0.047 A 
ATOM      8 CL   UNL     1       2.520  -5.437   2.984  0.00  0.00    -0.083 Cl
ATOM      9 CL   UNL     1       2.976 -10.216   0.506  0.00  0.00    -0.083 Cl
ENDBRANCH   1   2
BRANCH   1  10
ATOM     10  C   UNL     1       0.060  -4.247  -0.024  0.00  0.00    +0.184 C 
ATOM     11  O   UNL     1       0.063  -4.846  -1.079  0.00  0.00    -0.290 OA
BRANCH  10  16
ATOM     12  C   UNL     1      -0.018   1.503   0.010  0.00  0.00    +0.047 C 
ATOM     13  C   UNL     1       0.002  -0.004   0.002  0.00  0.00    -0.015 A 
ATOM     14  C   UNL     1       0.006  -0.686  -1.202  0.00  0.00    +0.007 A 
ATOM     15  C   UNL     1       0.025  -2.064  -1.218  0.00  0.00    +0.012 A 
ATOM     16  C   UNL     1       0.041  -2.775  -0.014  0.00  0.00    +0.022 A 
ATOM     17  C   UNL     1       0.037  -2.081   1.200  0.00  0.00    +0.050 A 
ATOM     18  C   UNL     1       0.023  -0.700   1.200  0.00  0.00    +0.127 A 
ATOM     19  F   UNL     1       0.025  -0.026   2.371  0.00  0.00    -0.205 F 
ENDBRANCH  10  16
ENDBRANCH   1  10
BRANCH   1  20
ATOM     20  C   UNL     1      -1.305  -5.276   1.706  0.00  0.00    +0.079 C 
ATOM     21  N   UNL     1      -2.371  -5.482   2.038  0.00  0.00    -0.195 NA
ENDBRANCH   1  20
TORSDOF 4
