REMARK  Name = ZINC39966029
REMARK  6 active torsions:
REMARK  status: ('A' for Active; 'I' for Inactive)
REMARK    1  A    between atoms: C_6  and  C_7
REMARK    2  A    between atoms: C_10  and  S_19
REMARK    3  A    between atoms: N_11  and  C_12
REMARK    4  A    between atoms: C_12  and  C_13
REMARK    5  A    between atoms: S_19  and  C_20
REMARK    6  A    between atoms: C_20  and  C_21
REMARK                            x       y       z     vdW  Elec       q    Type
REMARK                         _______ _______ _______ _____ _____    ______ ____
ROOT
ATOM      1  C   UNL     1      -1.219  -0.739   0.037  0.00  0.00    +0.165 A 
ATOM      2  N   UNL     1      -1.335  -2.036   0.200  0.00  0.00    -0.128 NA
ATOM      3  N   UNL     1      -2.570  -2.381   0.114  0.00  0.00    -0.122 NA
ATOM      4  C   UNL     1      -3.319  -1.324  -0.110  0.00  0.00    +0.192 A 
ATOM      5  N   UNL     1      -2.487  -0.242  -0.161  0.00  0.00    -0.300 N 
ENDROOT
BRANCH   1  11
ATOM      6  C   UNL     1       0.071   1.329  -0.470  0.00  0.00    +0.015 A 
ATOM      7  C   UNL     1       1.243   2.057  -0.441  0.00  0.00    +0.050 A 
ATOM      8  C   UNL     1       2.388   1.513   0.122  0.00  0.00    +0.166 A 
ATOM      9  C   UNL     1       2.359   0.227   0.660  0.00  0.00    +0.167 A 
ATOM     10  C   UNL     1       1.188  -0.507   0.633  0.00  0.00    +0.061 A 
ATOM     11  C   UNL     1       0.035   0.042   0.067  0.00  0.00    +0.023 A 
ATOM     12  O   UNL     1       3.600  -0.071   1.146  0.00  0.00    -0.453 OA
ATOM     13  C   UNL     1       4.490   0.881   0.534  0.00  0.00    +0.466 C 
ATOM     14  O   UNL     1       3.648   2.018   0.271  0.00  0.00    -0.453 OA
ENDBRANCH   1  11
BRANCH   5  15
ATOM     15  C   UNL     1      -2.865   1.156  -0.383  0.00  0.00    +0.157 C 
BRANCH  15  16
ATOM     16  C   UNL     1      -3.003   1.415  -1.885  0.00  0.00    +0.138 C 
ATOM     17  C   UNL     1      -3.344   2.903  -2.145  0.00  0.00    +0.035 C 
ATOM     18  C   UNL     1      -2.808   3.080  -3.592  0.00  0.00    +0.031 C 
ATOM     19  C   UNL     1      -1.577   2.149  -3.602  0.00  0.00    +0.160 C 
ATOM     20  O   UNL     1      -1.747   1.194  -2.546  0.00  0.00    -0.375 OA
ENDBRANCH  15  16
ENDBRANCH   5  15
BRANCH   4  21
ATOM     21  S   UNL     1      -5.071  -1.306  -0.302  0.00  0.00    -0.077 S 
BRANCH  21  22
ATOM     22  C   UNL     1      -5.550  -3.046  -0.117  0.00  0.00    +0.173 C 
BRANCH  22  23
ATOM     23  C   UNL     1      -7.045  -3.173  -0.261  0.00  0.00    +0.229 C 
ATOM     24  O   UNL     1      -7.720  -2.187  -0.468  0.00  0.00    -0.275 OA
ATOM     25  N   UNL     1      -7.631  -4.382  -0.161  0.00  0.00    -0.270 N 
ATOM     26  C   UNL     1      -9.021  -4.487  -0.188  0.00  0.00    +0.125 A 
ATOM     27  C   UNL     1      -9.623  -5.723   0.023  0.00  0.00    +0.045 A 
ATOM     28  C   UNL     1     -11.003  -5.814  -0.006  0.00  0.00    +0.020 A 
ATOM     29  C   UNL     1     -11.738  -4.660  -0.247  0.00  0.00    +0.036 A 
ATOM     30  C   UNL     1     -11.074  -3.465  -0.448  0.00  0.00    +0.128 A 
ATOM     31  N   UNL     1      -9.756  -3.409  -0.409  0.00  0.00    -0.239 NA
ATOM     32 BR   UNL     1     -13.627  -4.723  -0.299  0.00  0.00    -0.049 Br
ATOM     33  H   UNL     1      -7.086  -5.179  -0.069  0.00  0.00    +0.156 HD
ENDBRANCH  22  23
ENDBRANCH  21  22
ENDBRANCH   4  21
TORSDOF 6
