REMARK  Name = ZINC40170273
REMARK  8 active torsions:
REMARK  status: ('A' for Active; 'I' for Inactive)
REMARK    1  A    between atoms: C_1  and  C_2
REMARK    2  A    between atoms: C_11  and  C_12
REMARK    3  A    between atoms: C_15  and  S_16
REMARK    4  A    between atoms: S_16  and  C_17
REMARK    5  A    between atoms: C_17  and  C_19
REMARK    6  A    between atoms: C_17  and  C_20
REMARK    7  A    between atoms: N_22  and  C_23
REMARK    8  A    between atoms: C_26  and  O_29
REMARK                            x       y       z     vdW  Elec       q    Type
REMARK                         _______ _______ _______ _____ _____    ______ ____
ROOT
ATOM      1  C   UNL     1      -0.234   1.208   0.160  0.00  0.00    +0.046 C 
ATOM      2  C   UNL     1      -0.267  -0.295   0.231  0.00  0.00    -0.026 A 
ATOM      3  C   UNL     1      -0.477  -0.989  -0.951  0.00  0.00    +0.005 A 
ATOM      4  C   UNL     1      -0.469  -2.372  -0.974  0.00  0.00    +0.001 A 
ATOM      5  C   UNL     1      -0.191  -3.075   0.177  0.00  0.00    +0.010 A 
ATOM      6  C   UNL     1       0.036  -2.389   1.371  0.00  0.00    +0.002 A 
ATOM      7  C   UNL     1      -0.146  -0.986   1.423  0.00  0.00    +0.061 A 
ATOM      8  N   UNL     1      -0.262  -0.389   2.668  0.00  0.00    -0.270 N 
ATOM      9  C   UNL     1       0.276  -1.028   3.772  0.00  0.00    +0.162 A 
ATOM     10  C   UNL     1       0.639  -2.392   3.721  0.00  0.00    +0.052 A 
ATOM     11  C   UNL     1       0.484  -3.092   2.575  0.00  0.00    -0.038 A 
ATOM     12  C   UNL     1       0.774  -4.571   2.556  0.00  0.00    +0.044 C 
ATOM     13  N   UNL     1       0.299  -0.148   4.756  0.00  0.00    -0.129 NA
ATOM     14  N   UNL     1      -0.345   0.900   4.400  0.00  0.00    -0.122 NA
ATOM     15  C   UNL     1      -0.820   0.740   3.179  0.00  0.00    +0.197 A 
ENDROOT
BRANCH  15  16
ATOM     16  S   UNL     1      -2.021   1.794   2.433  0.00  0.00    -0.073 S 
BRANCH  16  17
ATOM     17  C   UNL     1      -2.298   3.090   3.671  0.00  0.00    +0.137 C 
ATOM     18  C   UNL     1      -2.928   2.474   4.922  0.00  0.00    +0.029 C 
BRANCH  17  19
ATOM     19  C   UNL     1      -3.224   4.136   3.105  0.00  0.00    +0.230 C 
ATOM     20  O   UNL     1      -3.999   3.844   2.219  0.00  0.00    -0.274 OA
ATOM     21  N   UNL     1      -3.191   5.395   3.584  0.00  0.00    -0.285 N 
ATOM     22  H   UNL     1      -2.506   5.654   4.220  0.00  0.00    +0.155 HD
BRANCH  21  23
ATOM     23  C   UNL     1      -4.146   6.330   3.163  0.00  0.00    +0.034 A 
ATOM     24  C   UNL     1      -3.816   7.676   3.092  0.00  0.00    +0.027 A 
ATOM     25  C   UNL     1      -4.757   8.597   2.677  0.00  0.00    +0.047 A 
ATOM     26  C   UNL     1      -6.034   8.177   2.332  0.00  0.00    +0.117 A 
ATOM     27  C   UNL     1      -6.365   6.831   2.404  0.00  0.00    +0.047 A 
ATOM     28  C   UNL     1      -5.422   5.909   2.813  0.00  0.00    +0.027 A 
BRANCH  26  29
ATOM     29  O   UNL     1      -6.961   9.084   1.923  0.00  0.00    -0.507 OA
ATOM     30  H   UNL     1      -6.967   9.237   0.969  0.00  0.00    +0.292 HD
ENDBRANCH  26  29
ENDBRANCH  21  23
ENDBRANCH  17  19
ENDBRANCH  16  17
ENDBRANCH  15  16
TORSDOF 5
