REMARK  Name = ZINC18115701
REMARK  7 active torsions:
REMARK  status: ('A' for Active; 'I' for Inactive)
REMARK    1  A    between atoms: C_1  and  C_2
REMARK    2  A    between atoms: C_2  and  C_3
REMARK    3  A    between atoms: C_3  and  C_4
REMARK    4  A    between atoms: C_9  and  S_11
REMARK    5  A    between atoms: S_11  and  C_12
REMARK    6  A    between atoms: C_13  and  C_27
REMARK    7  A    between atoms: C_16  and  N_24
REMARK                            x       y       z     vdW  Elec       q    Type
REMARK                         _______ _______ _______ _____ _____    ______ ____
ROOT
ATOM      1  C   UNL     1       1.947  -6.573   0.812  0.00  0.00    +0.088 A 
ATOM      2  C   UNL     1       1.429  -7.040  -0.385  0.00  0.00    +0.010 A 
ATOM      3  C   UNL     1       1.328  -8.495  -0.577  0.00  0.00    +0.009 A 
ATOM      4  C   UNL     1       0.815  -9.031  -1.761  0.00  0.00    +0.043 A 
ATOM      5  C   UNL     1       0.733 -10.397  -1.911  0.00  0.00    +0.127 A 
ATOM      6  C   UNL     1       1.156 -11.241  -0.894  0.00  0.00    +0.035 A 
ATOM      7  C   UNL     1       1.664 -10.728   0.280  0.00  0.00    +0.028 A 
ATOM      8  C   UNL     1       1.756  -9.351   0.453  0.00  0.00    +0.050 A 
ATOM      9  N   UNL     1       2.264  -8.820   1.622  0.00  0.00    -0.321 N 
ATOM     10  H   UNL     1       2.557  -9.419   2.326  0.00  0.00    +0.169 HD
ATOM     11  C   UNL     1       2.365  -7.493   1.804  0.00  0.00    +0.264 A 
ATOM     12  O   UNL     1       2.824  -7.070   2.851  0.00  0.00    -0.267 OA
ENDROOT
BRANCH   2  13
ATOM     13  C   UNL     1       0.990  -6.102  -1.440  0.00  0.00    -0.016 A 
ATOM     14  C   UNL     1      -0.360  -6.014  -1.782  0.00  0.00    +0.008 A 
ATOM     15  C   UNL     1      -0.763  -5.137  -2.768  0.00  0.00    +0.001 A 
ATOM     16  C   UNL     1       0.168  -4.345  -3.416  0.00  0.00    +0.000 A 
ATOM     17  C   UNL     1       1.508  -4.427  -3.082  0.00  0.00    +0.001 A 
ATOM     18  C   UNL     1       1.923  -5.296  -2.094  0.00  0.00    +0.008 A 
ENDBRANCH   2  13
BRANCH   5  19
ATOM     19  N   UNL     1       0.191 -10.968  -3.164  0.00  0.00    +0.056 N 
ATOM     20  O   UNL     1      -0.179 -10.236  -4.052  0.00  0.00    -0.126 OA
ATOM     21  O   UNL     1       0.117 -12.167  -3.300  0.00  0.00    -0.126 OA
ENDBRANCH   5  19
BRANCH   1  22
ATOM     22  S   UNL     1       2.091  -4.840   1.096  0.00  0.00    -0.044 S 
BRANCH  22  28
ATOM     23  C   UNL     1       0.077  -3.044   3.938  0.00  0.00    +0.049 A 
ATOM     24  C   UNL     1      -0.739  -4.047   4.428  0.00  0.00    +0.095 A 
ATOM     25  C   UNL     1      -0.655  -5.314   3.853  0.00  0.00    +0.274 A 
ATOM     26  O   UNL     1      -1.437  -6.326   4.302  0.00  0.00    -0.266 OA
ATOM     27  N   UNL     1       0.202  -5.516   2.859  0.00  0.00    -0.183 NA
ATOM     28  C   UNL     1       0.968  -4.529   2.417  0.00  0.00    +0.197 A 
ATOM     29  N   UNL     1       0.905  -3.313   2.941  0.00  0.00    -0.226 NA
BRANCH  23  30
ATOM     30  C   UNL     1       0.021  -1.659   4.529  0.00  0.00    +0.055 C 
BRANCH  30  32
ATOM     31  C   UNL     1       1.365   0.170   5.573  0.00  0.00    +0.004 C 
ATOM     32  C   UNL     1       1.423  -1.237   4.974  0.00  0.00    +0.003 C 
ENDBRANCH  30  32
ENDBRANCH  23  30
ENDBRANCH  22  28
ENDBRANCH   1  22
TORSDOF 6
