REMARK  Name = ZINC00821592
REMARK  12 active torsions:
REMARK  status: ('A' for Active; 'I' for Inactive)
REMARK    1  A    between atoms: C_1  and  C_2
REMARK    2  A    between atoms: C_7  and  C_8
REMARK    3  A    between atoms: C_11  and  C_13
REMARK    4  A    between atoms: C_11  and  C_14
REMARK    5  A    between atoms: N_15  and  N_16
REMARK    6  A    between atoms: C_17  and  C_19
REMARK    7  A    between atoms: C_21  and  O_29
REMARK    8  A    between atoms: C_22  and  O_27
REMARK    9  A    between atoms: C_23  and  O_25
REMARK   10  A    between atoms: O_25  and  C_26
REMARK   11  A    between atoms: O_27  and  C_28
REMARK   12  A    between atoms: O_29  and  C_30
REMARK                            x       y       z     vdW  Elec       q    Type
REMARK                         _______ _______ _______ _____ _____    ______ ____
ROOT
ATOM      1  C   UNL     1      -0.018   1.503   0.010  0.00  0.00    +0.044 C 
ATOM      2  C   UNL     1       0.002  -0.004   0.002  0.00  0.00    -0.047 A 
ATOM      3  C   UNL     1       0.006  -0.686  -1.204  0.00  0.00    +0.008 A 
ATOM      4  C   UNL     1       0.024  -2.062  -1.213  0.00  0.00    -0.035 A 
ATOM      5  C   UNL     1       0.040  -2.768  -0.007  0.00  0.00    +0.017 A 
ATOM      6  C   UNL     1       0.035  -2.079   1.201  0.00  0.00    +0.015 A 
ATOM      7  C   UNL     1       0.023  -0.698   1.198  0.00  0.00    -0.047 A 
ATOM      8  C   UNL     1       0.025   0.056   2.503  0.00  0.00    +0.044 C 
ATOM      9  C   UNL     1       0.059  -4.247  -0.052  0.00  0.00    +0.117 C 
ATOM     10  N   UNL     1       0.424  -4.852  -1.144  0.00  0.00    -0.366 N 
ATOM     11  C   UNL     1       0.844  -4.115  -2.332  0.00  0.00    +0.038 C 
ATOM     12  C   UNL     1       0.030  -2.835  -2.505  0.00  0.00    +0.063 C 
ATOM     13  C   UNL     1       2.325  -3.754  -2.200  0.00  0.00    +0.034 C 
ATOM     14  C   UNL     1       0.654  -5.002  -3.565  0.00  0.00    +0.034 C 
ATOM     15  N   UNL     1      -0.306  -4.979   1.057  0.00  0.00    -0.249 N 
ATOM     16  H   UNL     1      -0.577  -4.525   1.870  0.00  0.00    +0.171 HD
ATOM     17  H   UNL     1       0.417  -5.821  -1.170  0.00  0.00    +0.161 HD
ENDROOT
BRANCH  15  18
ATOM     18  N   UNL     1      -0.285  -6.379   1.010  0.00  0.00    -0.231 N 
ATOM     19  C   UNL     1      -0.642  -7.095   2.094  0.00  0.00    +0.260 C 
ATOM     20  O   UNL     1      -0.982  -6.526   3.114  0.00  0.00    -0.269 OA
ATOM     21  H   UNL     1      -0.014  -6.833   0.197  0.00  0.00    +0.173 HD
BRANCH  19  22
ATOM     22  C   UNL     1      -0.621  -8.571   2.045  0.00  0.00    +0.045 A 
ATOM     23  C   UNL     1      -0.225  -9.226   0.876  0.00  0.00    +0.062 A 
ATOM     24  C   UNL     1      -0.205 -10.607   0.832  0.00  0.00    +0.166 A 
ATOM     25  C   UNL     1      -0.580 -11.346   1.951  0.00  0.00    +0.204 A 
ATOM     26  C   UNL     1      -0.975 -10.695   3.117  0.00  0.00    +0.166 A 
ATOM     27  C   UNL     1      -0.991  -9.314   3.168  0.00  0.00    +0.062 A 
BRANCH  26  28
ATOM     28  O   UNL     1      -1.341 -11.420   4.208  0.00  0.00    -0.491 OA
ATOM     29  C   UNL     1      -1.736 -10.688   5.371  0.00  0.00    +0.277 C 
ENDBRANCH  26  28
BRANCH  25  30
ATOM     30  O   UNL     1      -0.560 -12.704   1.905  0.00  0.00    -0.488 OA
ATOM     31  C   UNL     1       0.656 -13.348   2.290  0.00  0.00    +0.277 C 
ENDBRANCH  25  30
BRANCH  24  32
ATOM     32  O   UNL     1       0.180 -11.245  -0.305  0.00  0.00    -0.491 OA
ATOM     33  C   UNL     1       0.551 -10.425  -1.416  0.00  0.00    +0.277 C 
ENDBRANCH  24  32
ENDBRANCH  19  22
ENDBRANCH  15  18
TORSDOF 5
