REMARK  Name = ZINC03298081
REMARK  12 active torsions:
REMARK  status: ('A' for Active; 'I' for Inactive)
REMARK    1  A    between atoms: C_1  and  C_2
REMARK    2  A    between atoms: C_2  and  O_3
REMARK    3  A    between atoms: O_3  and  C_4
REMARK    4  A    between atoms: C_4  and  C_6
REMARK    5  A    between atoms: C_7  and  C_39
REMARK    6  A    between atoms: C_8  and  C_13
REMARK    7  A    between atoms: C_11  and  C_12
REMARK    8  A    between atoms: C_13  and  C_15
REMARK    9  A    between atoms: C_15  and  S_16
REMARK   10  A    between atoms: S_16  and  C_17
REMARK   11  A    between atoms: C_20  and  C_28
REMARK   12  A    between atoms: N_21  and  C_22
REMARK                            x       y       z     vdW  Elec       q    Type
REMARK                         _______ _______ _______ _____ _____    ______ ____
ROOT
ATOM      1  C   UNL     1       1.628   5.533  -0.548  0.00  0.00    +0.197 A 
ATOM      2  N   UNL     1       1.304   5.433   0.720  0.00  0.00    -0.122 NA
ATOM      3  N   UNL     1       1.197   4.195   1.048  0.00  0.00    -0.129 NA
ATOM      4  C   UNL     1       1.451   3.435   0.021  0.00  0.00    +0.183 A 
ATOM      5  N   UNL     1       1.733   4.259  -1.036  0.00  0.00    -0.271 N 
ENDROOT
BRANCH   4   6
ATOM      6  C   UNL     1       1.433   1.928  -0.001  0.00  0.00    +0.278 C 
ATOM      7  C   UNL     1      -0.017   1.427   0.010  0.00  0.00    +0.281 C 
ATOM      8  O   UNL     1       0.002  -0.004   0.002  0.00  0.00    -0.484 OA
ATOM      9  C   UNL     1       0.861  -0.609   0.868  0.00  0.00    +0.162 A 
ATOM     10  C   UNL     1       0.686  -1.951   1.174  0.00  0.00    +0.049 A 
ATOM     11  C   UNL     1       1.551  -2.579   2.049  0.00  0.00    +0.004 A 
ATOM     12  C   UNL     1       2.593  -1.874   2.621  0.00  0.00    +0.004 A 
ATOM     13  C   UNL     1       2.772  -0.536   2.322  0.00  0.00    +0.049 A 
ATOM     14  C   UNL     1       1.906   0.101   1.445  0.00  0.00    +0.163 A 
ATOM     15  O   UNL     1       2.091   1.420   1.165  0.00  0.00    -0.474 OA
ENDBRANCH   4   6
BRANCH   5  16
ATOM     16  C   UNL     1       2.060   3.877  -2.345  0.00  0.00    +0.050 A 
ATOM     17  C   UNL     1       3.239   3.188  -2.595  0.00  0.00    +0.026 A 
ATOM     18  C   UNL     1       3.555   2.808  -3.884  0.00  0.00    +0.002 A 
ATOM     19  C   UNL     1       2.705   3.124  -4.928  0.00  0.00    +0.000 A 
ATOM     20  C   UNL     1       1.532   3.815  -4.683  0.00  0.00    +0.002 A 
ATOM     21  C   UNL     1       1.208   4.193  -3.395  0.00  0.00    +0.026 A 
ENDBRANCH   5  16
BRANCH   1  22
ATOM     22  S   UNL     1       1.881   7.025  -1.451  0.00  0.00    -0.078 S 
BRANCH  22  23
ATOM     23  C   UNL     1       1.567   8.239  -0.145  0.00  0.00    +0.158 C 
BRANCH  23  24
ATOM     24  C   UNL     1       1.730   9.630  -0.703  0.00  0.00    +0.190 C 
ATOM     25  O   UNL     1       2.029   9.785  -1.870  0.00  0.00    -0.290 OA
BRANCH  24  28
ATOM     26  C   UNL     1       1.372  12.854   0.898  0.00  0.00    +0.083 A 
ATOM     27  C   UNL     1       1.651  12.075  -0.245  0.00  0.00    -0.008 A 
ATOM     28  C   UNL     1       1.534  10.755   0.133  0.00  0.00    +0.087 A 
ATOM     29  N   UNL     1       1.188  10.722   1.469  0.00  0.00    -0.355 N 
ATOM     30  H   UNL     1       1.038   9.918   1.990  0.00  0.00    +0.166 HD
ATOM     31  C   UNL     1       1.095  11.977   1.933  0.00  0.00    +0.028 A 
ATOM     32  C   UNL     1       0.743  12.368   3.345  0.00  0.00    +0.064 C 
ATOM     33  C   UNL     1       2.007  12.588  -1.617  0.00  0.00    +0.047 C 
BRANCH  26  34
ATOM     34  C   UNL     1       1.374  14.325   0.976  0.00  0.00    +0.341 C 
ATOM     35  O   UNL     1       0.355  14.946   0.749  0.00  0.00    -0.245 OA
BRANCH  34  36
ATOM     36  O   UNL     1       2.506  14.981   1.298  0.00  0.00    -0.461 OA
BRANCH  36  38
ATOM     37  C   UNL     1       3.805  16.994   1.735  0.00  0.00    +0.048 C 
ATOM     38  C   UNL     1       2.434  16.430   1.356  0.00  0.00    +0.229 C 
ENDBRANCH  36  38
ENDBRANCH  34  36
ENDBRANCH  26  34
ENDBRANCH  24  28
ENDBRANCH  23  24
ENDBRANCH  22  23
ENDBRANCH   1  22
TORSDOF 9
