REMARK  Name = ZINC15724338
REMARK  1 active torsions:
REMARK  status: ('A' for Active; 'I' for Inactive)
REMARK    1  A    between atoms: C_1  and  C_2
REMARK                            x       y       z     vdW  Elec       q    Type
REMARK                         _______ _______ _______ _____ _____    ______ ____
ROOT
ATOM      1  C   UNL     1      -2.581   3.855   0.047  0.00  0.00    +0.044 C 
ATOM      2  C   UNL     1      -1.244   3.160   0.031  0.00  0.00    -0.050 A 
ATOM      3  C   UNL     1      -1.205   1.777   0.017  0.00  0.00    +0.005 A 
ATOM      4  C   UNL     1      -0.013   1.076   0.008  0.00  0.00    +0.027 A 
ATOM      5  C   UNL     1       1.170   1.815   0.001  0.00  0.00    +0.050 A 
ATOM      6  C   UNL     1       1.128   3.239   0.010  0.00  0.00    +0.008 A 
ATOM      7  C   UNL     1      -0.089   3.921   0.025  0.00  0.00    +0.014 A 
ATOM      8  C   UNL     1       2.503   3.702   0.003  0.00  0.00    +0.009 A 
ATOM      9  C   UNL     1       3.148   4.941   0.006  0.00  0.00    +0.011 A 
ATOM     10  C   UNL     1       4.535   4.934  -0.001  0.00  0.00    +0.003 A 
ATOM     11  C   UNL     1       5.292   3.766  -0.011  0.00  0.00    +0.025 A 
ATOM     12  C   UNL     1       4.678   2.537  -0.014  0.00  0.00    +0.052 A 
ATOM     13  C   UNL     1       3.278   2.537  -0.011  0.00  0.00    +0.071 A 
ATOM     14  N   UNL     1       2.474   1.409  -0.020  0.00  0.00    -0.337 N 
ATOM     15  C   UNL     1       3.086   0.073  -0.059  0.00  0.00    +0.141 C 
ATOM     16  C   UNL     1       4.493   0.151   0.548  0.00  0.00    +0.123 C 
ATOM     17  N   UNL     1       5.269   1.272  -0.016  0.00  0.00    -0.341 N 
ATOM     18  H   UNL     1       6.159   1.135  -0.375  0.00  0.00    +0.146 HD
ENDROOT
TORSDOF 0
