REMARK  Name = ZINC67652565
REMARK  4 active torsions:
REMARK  status: ('A' for Active; 'I' for Inactive)
REMARK    1  A    between atoms: C_4  and  N_7
REMARK    2  A    between atoms: C_11  and  S_12
REMARK    3  A    between atoms: S_12  and  C_13
REMARK    4  A    between atoms: C_13  and  C_14
REMARK                            x       y       z     vdW  Elec       q    Type
REMARK                         _______ _______ _______ _____ _____    ______ ____
ROOT
ATOM      1  N   UNL     1       3.624  -0.652  -0.036  0.00  0.00    -0.291 N 
ATOM      2  C   UNL     1       4.104  -1.447  -1.045  0.00  0.00    +0.047 A 
ATOM      3  C   UNL     1       5.309  -1.906  -0.653  0.00  0.00    +0.064 A 
ATOM      4  N   UNL     1       5.572  -1.411   0.563  0.00  0.00    -0.226 NA
ATOM      5  C   UNL     1       4.571  -0.650   0.948  0.00  0.00    +0.174 A 
ATOM      6  C   UNL     1       6.173  -2.824  -1.484  0.00  0.00    +0.057 C 
ATOM      7  C   UNL     1       5.303  -3.447  -2.581  0.00  0.00    +0.007 C 
ATOM      8  C   UNL     1       4.523  -2.345  -3.304  0.00  0.00    +0.007 C 
ATOM      9  C   UNL     1       3.453  -1.777  -2.363  0.00  0.00    +0.056 C 
ENDROOT
BRANCH   1  13
ATOM     10  C   UNL     1      -0.017   1.379   0.010  0.00  0.00    +0.000 A 
ATOM     11  C   UNL     1       1.170   2.089   0.002  0.00  0.00    +0.002 A 
ATOM     12  C   UNL     1       2.377   1.419  -0.013  0.00  0.00    +0.026 A 
ATOM     13  C   UNL     1       2.399   0.031  -0.021  0.00  0.00    +0.049 A 
ATOM     14  C   UNL     1       1.207  -0.680  -0.013  0.00  0.00    +0.026 A 
ATOM     15  C   UNL     1       0.002  -0.004   0.002  0.00  0.00    +0.002 A 
ENDBRANCH   1  13
BRANCH   5  16
ATOM     16  S   UNL     1       4.468   0.223   2.475  0.00  0.00    -0.081 S 
BRANCH  16  17
ATOM     17  C   UNL     1       6.022  -0.184   3.319  0.00  0.00    +0.133 C 
BRANCH  17  18
ATOM     18  C   UNL     1       6.062   0.507   4.657  0.00  0.00    +0.061 A 
ATOM     19  C   UNL     1       7.171   0.346   5.487  0.00  0.00    +0.096 A 
ATOM     20  C   UNL     1       7.194   0.980   6.700  0.00  0.00    +0.276 A 
ATOM     21  O   UNL     1       8.255   0.844   7.526  0.00  0.00    -0.266 OA
ATOM     22  N   UNL     1       6.131   1.752   7.060  0.00  0.00    -0.158 N 
ATOM     23  C   UNL     1       5.062   1.885   6.219  0.00  0.00    +0.258 A 
ATOM     24  N   UNL     1       5.053   1.265   5.034  0.00  0.00    -0.214 NA
ATOM     25  N   UNL     1       4.184   2.682   6.819  0.00  0.00    -0.176 NA
ATOM     26  C   UNL     1       4.656   3.058   8.006  0.00  0.00    +0.234 A 
ATOM     27  N   UNL     1       5.841   2.515   8.198  0.00  0.00    -0.125 NA
ATOM     28  N   UNL     1       4.000   3.894   8.905  0.00  0.00    -0.326 N 
ATOM     29  H   UNL     1       3.126   4.253   8.685  0.00  0.00    +0.145 HD
ATOM     30  H   UNL     1       4.417   4.119   9.752  0.00  0.00    +0.145 HD
ENDBRANCH  17  18
ENDBRANCH  16  17
ENDBRANCH   5  16
TORSDOF 4
