REMARK  Name = ZINC56247626
REMARK  7 active torsions:
REMARK  status: ('A' for Active; 'I' for Inactive)
REMARK    1  A    between atoms: C_1  and  C_2
REMARK    2  A    between atoms: C_3  and  C_9
REMARK    3  A    between atoms: C_4  and  C_8
REMARK    4  A    between atoms: N_5  and  C_7
REMARK    5  A    between atoms: C_10  and  C_11
REMARK    6  A    between atoms: C_16  and  N_19
REMARK    7  A    between atoms: N_22  and  C_23
REMARK                            x       y       z     vdW  Elec       q    Type
REMARK                         _______ _______ _______ _____ _____    ______ ____
ROOT
ATOM      1  C   UNL     1      -0.928   0.969  -4.302  0.00  0.00    +0.239 C 
ATOM      2  O   UNL     1      -0.062   0.594  -5.071  0.00  0.00    -0.271 OA
ATOM      3  N   UNL     1      -1.898   1.800  -4.733  0.00  0.00    -0.298 N 
ATOM      4  C   UNL     1      -2.881   2.354  -3.792  0.00  0.00    +0.110 C 
ATOM      5  C   UNL     1      -4.289   2.050  -4.314  0.00  0.00    +0.041 C 
ATOM      6  C   UNL     1      -4.423   2.575  -5.745  0.00  0.00    +0.077 C 
ATOM      7  C   UNL     1      -3.410   1.866  -6.647  0.00  0.00    +0.041 C 
ATOM      8  C   UNL     1      -1.989   2.173  -6.151  0.00  0.00    +0.110 C 
ENDROOT
BRANCH   6   9
ATOM      9  N   UNL     1      -5.779   2.315  -6.236  0.00  0.00    -0.296 N 
ATOM     10  C   UNL     1      -6.301   3.084  -7.211  0.00  0.00    +0.300 C 
ATOM     11  O   UNL     1      -5.648   3.994  -7.684  0.00  0.00    -0.253 OA
ATOM     12  N   UNL     1      -7.549   2.845  -7.662  0.00  0.00    -0.297 N 
ATOM     13  H   UNL     1      -6.300   1.590  -5.858  0.00  0.00    +0.151 HD
ATOM     14  H   UNL     1      -8.070   2.120  -7.285  0.00  0.00    +0.151 HD
BRANCH  12  15
ATOM     15  C   UNL     1      -8.117   3.681  -8.722  0.00  0.00    +0.074 C 
ATOM     16  C   UNL     1      -8.739   4.936  -8.105  0.00  0.00    +0.022 C 
ATOM     17  C   UNL     1      -9.332   5.809  -9.213  0.00  0.00    +0.002 C 
ATOM     18  C   UNL     1     -10.410   5.021  -9.961  0.00  0.00    +0.000 C 
ATOM     19  C   UNL     1      -9.788   3.767 -10.578  0.00  0.00    +0.002 C 
ATOM     20  C   UNL     1      -9.195   2.893  -9.471  0.00  0.00    +0.022 C 
ENDBRANCH  12  15
ENDBRANCH   6   9
BRANCH   1  22
ATOM     21  C   UNL     1      -0.009  -0.383  -2.548  0.00  0.00    +0.016 C 
ATOM     22  C   UNL     1      -0.917   0.531  -2.953  0.00  0.00    +0.068 C 
BRANCH  21  25
ATOM     23  C   UNL     1      -0.018   1.493   0.011  0.00  0.00    +0.068 C 
ATOM     24  C   UNL     1      -0.002  -0.014   0.001  0.00  0.00    +0.067 A 
ATOM     25  C   UNL     1       0.002  -0.837  -1.150  0.00  0.00    +0.018 A 
ATOM     26  C   UNL     1       0.018  -2.148  -0.712  0.00  0.00    +0.043 A 
ATOM     27  N   UNL     1       0.023  -2.123   0.632  0.00  0.00    -0.271 N 
ATOM     28  N   UNL     1       0.016  -0.788   1.051  0.00  0.00    -0.176 NA
ATOM     29  C   UNL     1       0.039  -3.295   1.510  0.00  0.00    +0.172 C 
ATOM     30  C   UNL     1       0.026  -3.379  -1.581  0.00  0.00    +0.066 C 
ENDBRANCH  21  25
ENDBRANCH   1  22
TORSDOF 4
