REMARK  Name = ZINC39850297
REMARK  9 active torsions:
REMARK  status: ('A' for Active; 'I' for Inactive)
REMARK    1  A    between atoms: C_1  and  C_2
REMARK    2  A    between atoms: C_2  and  C_3
REMARK    3  A    between atoms: C_2  and  O_4
REMARK    4  A    between atoms: O_4  and  C_5
REMARK    5  A    between atoms: C_8  and  C_11
REMARK    6  A    between atoms: C_13  and  C_25
REMARK    7  A    between atoms: C_15  and  C_20
REMARK    8  A    between atoms: C_15  and  O_24
REMARK    9  A    between atoms: C_25  and  C_27
REMARK                            x       y       z     vdW  Elec       q    Type
REMARK                         _______ _______ _______ _____ _____    ______ ____
ROOT
ATOM      1  C   UNL     1      -2.167  -5.641  -2.132  0.00  0.00    +0.120 C 
ATOM      2  C   UNL     1      -2.693  -5.519  -3.566  0.00  0.00    +0.144 C 
ATOM      3  C   UNL     1      -3.020  -6.923  -4.087  0.00  0.00    +0.243 C 
ATOM      4  N   UNL     1      -3.957  -7.570  -3.167  0.00  0.00    -0.264 N 
ATOM      5  C   UNL     1      -3.974  -7.267  -1.861  0.00  0.00    +0.302 C 
ATOM      6  O   UNL     1      -4.765  -7.842  -1.138  0.00  0.00    -0.253 OA
ATOM      7  N   UNL     1      -3.149  -6.358  -1.318  0.00  0.00    -0.292 N 
ATOM      8  H   UNL     1      -4.580  -8.230  -3.510  0.00  0.00    +0.153 HD
ATOM      9  H   UNL     1      -3.207  -6.171  -0.368  0.00  0.00    +0.151 HD
ENDROOT
BRANCH   1  13
ATOM     10  C   UNL     1      -1.538  -1.739  -0.505  0.00  0.00    +0.121 A 
ATOM     11  C   UNL     1      -0.465  -2.468  -0.997  0.00  0.00    +0.046 A 
ATOM     12  C   UNL     1      -0.671  -3.729  -1.522  0.00  0.00    +0.009 A 
ATOM     13  C   UNL     1      -1.945  -4.265  -1.558  0.00  0.00    -0.026 A 
ATOM     14  C   UNL     1      -3.017  -3.540  -1.070  0.00  0.00    +0.009 A 
ATOM     15  C   UNL     1      -2.815  -2.281  -0.538  0.00  0.00    +0.046 A 
BRANCH  10  16
ATOM     16  O   UNL     1      -1.339  -0.499   0.012  0.00  0.00    -0.489 OA
BRANCH  16  18
ATOM     17  C   UNL     1      -1.982   1.168   1.640  0.00  0.00    +0.051 C 
ATOM     18  C   UNL     1      -2.466   0.143   0.612  0.00  0.00    +0.167 C 
ATOM     19  C   UNL     1      -3.283   0.853  -0.469  0.00  0.00    +0.051 C 
ENDBRANCH  16  18
ENDBRANCH  10  16
ENDBRANCH   1  13
BRANCH   3  20
ATOM     20  C   UNL     1      -3.655  -6.818  -5.475  0.00  0.00    +0.436 C 
ATOM     21  F   UNL     1      -2.761  -6.193  -6.351  0.00  0.00    -0.166 F 
ATOM     22  F   UNL     1      -3.953  -8.100  -5.949  0.00  0.00    -0.166 F 
ATOM     23  F   UNL     1      -4.832  -6.066  -5.394  0.00  0.00    -0.166 F 
ENDBRANCH   3  20
BRANCH   3  24
ATOM     24  O   UNL     1      -1.820  -7.694  -4.166  0.00  0.00    -0.364 OA
ATOM     25  H   UNL     1      -1.952  -8.596  -4.489  0.00  0.00    +0.212 HD
ENDBRANCH   3  24
BRANCH   2  26
ATOM     26  C   UNL     1      -1.641  -4.883  -4.439  0.00  0.00    +0.173 C 
ATOM     27  O   UNL     1      -0.466  -5.043  -4.186  0.00  0.00    -0.292 OA
BRANCH  26  28
ATOM     28  C   UNL     1      -2.041  -4.070  -5.598  0.00  0.00    +0.018 A 
ATOM     29  C   UNL     1      -3.395  -3.879  -5.889  0.00  0.00    +0.013 A 
ATOM     30  C   UNL     1      -3.762  -3.115  -6.976  0.00  0.00    +0.020 A 
ATOM     31  C   UNL     1      -2.792  -2.538  -7.780  0.00  0.00    +0.041 A 
ATOM     32  C   UNL     1      -1.448  -2.722  -7.497  0.00  0.00    +0.020 A 
ATOM     33  C   UNL     1      -1.067  -3.479  -6.410  0.00  0.00    +0.013 A 
ATOM     34 CL   UNL     1      -3.263  -1.578  -9.147  0.00  0.00    -0.084 Cl
ENDBRANCH  26  28
ENDBRANCH   2  26
TORSDOF 7
