REMARK  Name = ZINC24950784
REMARK  6 active torsions:
REMARK  status: ('A' for Active; 'I' for Inactive)
REMARK    1  A    between atoms: C_1  and  C_2
REMARK    2  A    between atoms: C_9  and  C_13
REMARK    3  A    between atoms: C_13  and  S_14
REMARK    4  A    between atoms: S_14  and  C_15
REMARK    5  A    between atoms: C_18  and  C_21
REMARK    6  A    between atoms: N_19  and  N_20
REMARK                            x       y       z     vdW  Elec       q    Type
REMARK                         _______ _______ _______ _____ _____    ______ ____
ROOT
ATOM      1  S   UNL     1      -2.782   4.744   1.700  0.00  0.00    -0.078 S 
ENDROOT
BRANCH   1   2
ATOM      2  C   UNL     1      -4.316   5.570   1.438  0.00  0.00    +0.209 A 
ATOM      3  N   UNL     1      -4.993   5.620   0.315  0.00  0.00    -0.121 NA
ATOM      4  N   UNL     1      -6.066   6.308   0.482  0.00  0.00    -0.132 NA
ATOM      5  C   UNL     1      -6.136   6.734   1.712  0.00  0.00    +0.154 A 
ATOM      6  N   UNL     1      -5.027   6.275   2.366  0.00  0.00    -0.228 N 
BRANCH   5   7
ATOM      7  C   UNL     1      -7.240   7.573   2.304  0.00  0.00    +0.059 C 
ATOM      8  C   UNL     1      -8.568   6.821   2.193  0.00  0.00    +0.011 C 
ATOM      9  C   UNL     1      -9.688   7.673   2.795  0.00  0.00    +0.001 C 
ATOM     10  C   UNL     1      -9.786   8.997   2.035  0.00  0.00    +0.000 C 
ATOM     11  C   UNL     1      -8.458   9.749   2.146  0.00  0.00    +0.001 C 
ATOM     12  C   UNL     1      -7.338   8.897   1.545  0.00  0.00    +0.011 C 
ENDBRANCH   5   7
BRANCH   6  13
ATOM     13  N   UNL     1      -4.698   6.481   3.676  0.00  0.00    -0.295 N 
ATOM     14  H   UNL     1      -5.362   7.071   4.324  0.00  0.00    +0.163 HD
ATOM     15  H   UNL     1      -3.768   6.056   4.082  0.00  0.00    +0.163 HD
ENDBRANCH   6  13
ENDBRANCH   1   2
BRANCH   1  16
ATOM     16  C   UNL     1      -2.505   4.064   0.046  0.00  0.00    +0.133 C 
BRANCH  16  25
ATOM     17  C   UNL     1       4.798   4.099  -0.021  0.00  0.00    +0.044 C 
ATOM     18  C   UNL     1       3.497   3.340  -0.013  0.00  0.00    -0.046 A 
ATOM     19  C   UNL     1       3.498   1.938  -0.020  0.00  0.00    +0.021 A 
ATOM     20  C   UNL     1       2.330   1.257  -0.013  0.00  0.00    +0.096 A 
ATOM     21  N   UNL     1       1.139   1.918   0.002  0.00  0.00    -0.268 N 
ATOM     22  C   UNL     1       1.105   3.285   0.009  0.00  0.00    +0.141 A 
ATOM     23  C   UNL     1       2.311   4.011   0.001  0.00  0.00    +0.050 A 
ATOM     24  N   UNL     1      -0.055   3.939   0.023  0.00  0.00    -0.233 NA
ATOM     25  C   UNL     1      -1.210   3.292   0.030  0.00  0.00    +0.059 A 
ATOM     26  C   UNL     1      -1.230   1.911   0.018  0.00  0.00    +0.094 A 
ATOM     27  C   UNL     1      -0.015   1.217   0.009  0.00  0.00    +0.259 A 
ATOM     28  O   UNL     1       0.002  -0.004   0.002  0.00  0.00    -0.267 OA
ENDBRANCH  16  25
ENDBRANCH   1  16
TORSDOF 5
