REMARK  Name = ZINC67287229
REMARK  7 active torsions:
REMARK  status: ('A' for Active; 'I' for Inactive)
REMARK    1  A    between atoms: C_1  and  C_2
REMARK    2  A    between atoms: C_3  and  C_8
REMARK    3  A    between atoms: N_6  and  C_7
REMARK    4  A    between atoms: C_8  and  C_10
REMARK    5  A    between atoms: C_8  and  N_11
REMARK    6  A    between atoms: N_14  and  C_15
REMARK    7  A    between atoms: C_18  and  N_22
REMARK                            x       y       z     vdW  Elec       q    Type
REMARK                         _______ _______ _______ _____ _____    ______ ____
ROOT
ATOM      1  N   UNL     1       0.498  -1.399  -3.389  0.00  0.00    -0.292 N 
ATOM      2  C   UNL     1       1.036  -1.104  -4.589  0.00  0.00    +0.304 C 
ATOM      3  O   UNL     1       1.128   0.055  -4.946  0.00  0.00    -0.252 OA
ATOM      4  N   UNL     1       1.473  -2.093  -5.393  0.00  0.00    -0.269 N 
ATOM      5  H   UNL     1       0.424  -2.323  -3.104  0.00  0.00    +0.151 HD
ATOM      6  H   UNL     1       1.458  -3.012  -5.083  0.00  0.00    +0.156 HD
ENDROOT
BRANCH   4   7
ATOM      7  C   UNL     1       1.948  -1.795  -6.676  0.00  0.00    +0.036 A 
ATOM      8  C   UNL     1       1.713  -2.674  -7.726  0.00  0.00    +0.025 A 
ATOM      9  C   UNL     1       2.182  -2.380  -8.990  0.00  0.00    +0.031 A 
ATOM     10  C   UNL     1       2.887  -1.205  -9.214  0.00  0.00    +0.084 A 
ATOM     11  C   UNL     1       3.122  -0.325  -8.165  0.00  0.00    +0.068 A 
ATOM     12  C   UNL     1       2.648  -0.617  -6.900  0.00  0.00    +0.045 A 
ATOM     13 CL   UNL     1       4.005   1.143  -8.444  0.00  0.00    -0.081 Cl
BRANCH  10  14
ATOM     14  N   UNL     1       3.364  -0.907 -10.500  0.00  0.00    -0.238 N 
ATOM     15  C   UNL     1       2.645  -0.947 -11.644  0.00  0.00    +0.114 A 
ATOM     16  C   UNL     1       3.466  -0.593 -12.659  0.00  0.00    +0.041 A 
ATOM     17  C   UNL     1       4.729  -0.328 -12.119  0.00  0.00    +0.135 A 
ATOM     18  N   UNL     1       4.668  -0.510 -10.824  0.00  0.00    -0.175 NA
ENDBRANCH  10  14
ENDBRANCH   4   7
BRANCH   1  19
ATOM     19  C   UNL     1       0.024  -0.323  -2.515  0.00  0.00    +0.105 C 
ATOM     20  C   UNL     1      -1.408   0.054  -2.900  0.00  0.00    +0.033 C 
BRANCH  19  23
ATOM     21  C   UNL     1       0.037   1.509   0.021  0.00  0.00    +0.065 C 
ATOM     22  C   UNL     1       0.057   0.002   0.014  0.00  0.00    +0.041 A 
ATOM     23  C   UNL     1       0.051  -0.791  -1.082  0.00  0.00    +0.013 A 
ATOM     24  C   UNL     1       0.076  -2.121  -0.651  0.00  0.00    +0.140 A 
ATOM     25  N   UNL     1       0.095  -2.127   0.657  0.00  0.00    -0.179 NA
ATOM     26  N   UNL     1       0.089  -0.798   1.100  0.00  0.00    -0.271 N 
ATOM     27  C   UNL     1       0.110  -0.355   2.497  0.00  0.00    +0.172 C 
ENDBRANCH  19  23
ENDBRANCH   1  19
TORSDOF 4
