REMARK  Name = ZINC19894597
REMARK  3 active torsions:
REMARK  status: ('A' for Active; 'I' for Inactive)
REMARK    1  A    between atoms: C_1  and  C_2
REMARK    2  A    between atoms: C_5  and  C_7
REMARK    3  A    between atoms: C_10  and  C_14
REMARK                            x       y       z     vdW  Elec       q    Type
REMARK                         _______ _______ _______ _____ _____    ______ ____
ROOT
ATOM      1  C   UNL     1       2.434   3.244  -0.004  0.00  0.00    +0.030 C 
ATOM      2  C   UNL     1       1.736   4.441  -0.097  0.00  0.00    +0.064 C 
ATOM      3  C   UNL     1       2.287   5.801  -0.214  0.00  0.00    +0.062 C 
ATOM      4  C   UNL     1       1.230   6.638  -0.273  0.00  0.00    +0.140 C 
ATOM      5  O   UNL     1       0.067   5.960  -0.206  0.00  0.00    -0.422 OA
ATOM      6  C   UNL     1       0.278   4.635  -0.105  0.00  0.00    +0.345 C 
ATOM      7  O   UNL     1      -0.572   3.767  -0.033  0.00  0.00    -0.245 OA
ENDROOT
BRANCH   4   8
ATOM      8  C   UNL     1       1.333   8.106  -0.395  0.00  0.00    +0.017 A 
ATOM      9  C   UNL     1       2.588   8.718  -0.453  0.00  0.00    +0.012 A 
ATOM     10  C   UNL     1       2.678  10.089  -0.572  0.00  0.00    +0.016 A 
ATOM     11  C   UNL     1       1.529  10.859  -0.625  0.00  0.00    +0.018 A 
ATOM     12  C   UNL     1       0.282  10.259  -0.563  0.00  0.00    +0.016 A 
ATOM     13  C   UNL     1       0.178   8.889  -0.449  0.00  0.00    +0.012 A 
ATOM     14 BR   UNL     1       1.662  12.739  -0.780  0.00  0.00    -0.050 Br
ENDBRANCH   4   8
BRANCH   1  19
ATOM     15  C   UNL     1      -0.850  -0.860   1.721  0.00  0.00    +0.051 C 
ATOM     16  C   UNL     1       0.164   0.068   1.102  0.00  0.00    -0.013 A 
ATOM     17  C   UNL     1       1.137  -0.227   0.197  0.00  0.00    +0.011 A 
ATOM     18  C   UNL     1       1.964   0.770  -0.247  0.00  0.00    +0.016 A 
ATOM     19  C   UNL     1       1.747   2.048   0.270  0.00  0.00    +0.013 A 
ATOM     20  S   UNL     1       0.370   1.768   1.369  0.00  0.00    -0.094 S 
ENDBRANCH   1  19
TORSDOF 2
