REMARK  Name = ZINC02663171
REMARK  10 active torsions:
REMARK  status: ('A' for Active; 'I' for Inactive)
REMARK    1  A    between atoms: C_1  and  C_2
REMARK    2  A    between atoms: C_15  and  C_17
REMARK    3  A    between atoms: C_17  and  N_60
REMARK    4  A    between atoms: C_18  and  N_60
REMARK    5  A    between atoms: C_19  and  C_20
REMARK    6  A    between atoms: C_19  and  N_60
REMARK    7  A    between atoms: C_23  and  C_26
REMARK    8  A    between atoms: C_26  and  C_27
REMARK    9  A    between atoms: C_26  and  C_28
REMARK   10  A    between atoms: C_26  and  C_29
REMARK                            x       y       z     vdW  Elec       q    Type
REMARK                         _______ _______ _______ _____ _____    ______ ____
ROOT
ATOM      1  C   UNL     1       1.397   3.572   0.259  0.00  0.00    +0.008 C 
ATOM      2  C   UNL     1       1.415   2.064  -0.000  0.00  0.00    -0.009 C 
ATOM      3  C   UNL     1      -0.019   1.524   0.010  0.00  0.00    +0.008 C 
ATOM      4  C   UNL     1       0.002  -0.004   0.002  0.00  0.00    +0.037 C 
ATOM      5  C   UNL     1       0.873  -0.481  -1.158  0.00  0.00    -0.023 A 
ATOM      6  C   UNL     1       1.763   0.357  -1.738  0.00  0.00    -0.004 A 
ATOM      7  S   UNL     1       2.538  -0.601  -3.016  0.00  0.00    -0.073 S 
ATOM      8  C   UNL     1       1.671  -2.118  -2.769  0.00  0.00    +0.116 A 
ATOM      9  C   UNL     1       0.801  -1.828  -1.695  0.00  0.00    +0.075 A 
ATOM     10  C   UNL     1      -0.058  -2.888  -1.248  0.00  0.00    +0.260 A 
ATOM     11  O   UNL     1      -0.845  -2.741  -0.329  0.00  0.00    -0.267 OA
ATOM     12  N   UNL     1       0.063  -4.061  -1.913  0.00  0.00    -0.312 N 
ATOM     13  H   UNL     1      -0.516  -4.828  -1.635  0.00  0.00    +0.170 HD
ATOM     14  C   UNL     1       0.930  -4.245  -2.937  0.00  0.00    +0.094 A 
ATOM     15  N   UNL     1       1.732  -3.300  -3.375  0.00  0.00    -0.229 NA
ATOM     16  C   UNL     1       2.034   1.785  -1.377  0.00  0.00    +0.046 C 
ENDROOT
BRANCH  14  17
ATOM     17  C   UNL     1       0.978  -5.595  -3.605  0.00  0.00    -0.003 C 
BRANCH  17  19
ATOM     18  C   UNL     1       3.333  -5.405  -4.136  0.00  0.00    -0.095 C 
ATOM     19  N   UNL     1       1.974  -5.552  -4.697  0.00  0.00    +0.385 N 
ATOM     20  H   UNL     1       1.772  -4.745  -5.299  0.00  0.00    -0.081 HD
BRANCH  19  21
ATOM     21  C   UNL     1       1.891  -6.786  -5.505  0.00  0.00    -0.043 C 
BRANCH  21  22
ATOM     22  C   UNL     1       2.752  -6.623  -6.731  0.00  0.00    -0.064 A 
ATOM     23  C   UNL     1       2.217  -6.084  -7.886  0.00  0.00    +0.002 A 
ATOM     24  C   UNL     1       3.008  -5.931  -9.009  0.00  0.00    +0.004 A 
ATOM     25  C   UNL     1       4.333  -6.325  -8.980  0.00  0.00    -0.042 A 
ATOM     26  C   UNL     1       4.867  -6.869  -7.827  0.00  0.00    +0.004 A 
ATOM     27  C   UNL     1       4.077  -7.018  -6.702  0.00  0.00    +0.002 A 
BRANCH  25  28
ATOM     28  C   UNL     1       5.194  -6.162 -10.206  0.00  0.00    -0.013 C 
ATOM     29  C   UNL     1       5.715  -7.531 -10.649  0.00  0.00    +0.015 C 
ATOM     30  C   UNL     1       4.365  -5.542 -11.333  0.00  0.00    +0.015 C 
ATOM     31  C   UNL     1       6.377  -5.248  -9.880  0.00  0.00    +0.015 C 
ENDBRANCH  25  28
ENDBRANCH  21  22
ENDBRANCH  19  21
ENDBRANCH  17  19
ENDBRANCH  14  17
TORSDOF 5
