REMARK  Name = ZINC67575904
REMARK  9 active torsions:
REMARK  status: ('A' for Active; 'I' for Inactive)
REMARK    1  A    between atoms: C_1  and  C_2
REMARK    2  A    between atoms: C_5  and  C_29
REMARK    3  A    between atoms: N_8  and  C_10
REMARK    4  A    between atoms: C_10  and  C_11
REMARK    5  A    between atoms: C_11  and  C_13
REMARK    6  A    between atoms: C_11  and  N_14
REMARK    7  A    between atoms: N_17  and  C_18
REMARK    8  A    between atoms: C_21  and  N_25
REMARK    9  A    between atoms: C_26  and  C_28
REMARK                            x       y       z     vdW  Elec       q    Type
REMARK                         _______ _______ _______ _____ _____    ______ ____
ROOT
ATOM      1  N   UNL     1       3.517  -2.504   0.951  0.00  0.00    -0.298 N 
ATOM      2  C   UNL     1       4.551  -1.864   0.370  0.00  0.00    +0.304 C 
ATOM      3  O   UNL     1       5.051  -0.898   0.913  0.00  0.00    -0.253 OA
ATOM      4  N   UNL     1       5.032  -2.296  -0.813  0.00  0.00    -0.268 N 
ATOM      5  H   UNL     1       3.118  -3.275   0.518  0.00  0.00    +0.150 HD
ATOM      6  H   UNL     1       4.689  -3.113  -1.207  0.00  0.00    +0.156 HD
ENDROOT
BRANCH   4   7
ATOM      7  C   UNL     1       6.027  -1.563  -1.474  0.00  0.00    +0.053 A 
ATOM      8  C   UNL     1       6.163  -0.203  -1.234  0.00  0.00    +0.026 A 
ATOM      9  C   UNL     1       7.144   0.519  -1.886  0.00  0.00    +0.025 A 
ATOM     10  C   UNL     1       7.994  -0.116  -2.782  0.00  0.00    +0.035 A 
ATOM     11  C   UNL     1       7.858  -1.476  -3.023  0.00  0.00    +0.045 A 
ATOM     12  C   UNL     1       6.881  -2.200  -2.366  0.00  0.00    +0.064 A 
ATOM     13 CL   UNL     1       6.716  -3.903  -2.662  0.00  0.00    -0.082 Cl
BRANCH  10  14
ATOM     14  N   UNL     1       8.988   0.617  -3.443  0.00  0.00    -0.286 N 
ATOM     15  C   UNL     1       9.322   0.308  -4.711  0.00  0.00    +0.214 C 
ATOM     16  O   UNL     1       8.824  -0.657  -5.252  0.00  0.00    -0.276 OA
ATOM     17  C   UNL     1      10.314   1.161  -5.459  0.00  0.00    +0.109 C 
ATOM     18  H   UNL     1       9.436   1.347  -2.987  0.00  0.00    +0.155 HD
ENDBRANCH  10  14
ENDBRANCH   4   7
BRANCH   1  19
ATOM     19  C   UNL     1       2.995  -2.035   2.237  0.00  0.00    +0.055 C 
ATOM     20  C   UNL     1       3.819  -2.642   3.374  0.00  0.00    +0.026 C 
BRANCH  19  21
ATOM     21  C   UNL     1       1.533  -2.463   2.381  0.00  0.00    -0.057 C 
BRANCH  21  27
ATOM     22  C   UNL     1       0.006   1.527  -0.009  0.00  0.00    +0.005 C 
ATOM     23  C   UNL     1       0.021  -0.003  -0.016  0.00  0.00    -0.031 C 
ATOM     24  C   UNL     1      -1.417  -0.529  -0.010  0.00  0.00    +0.003 C 
ATOM     25  C   UNL     1      -1.390  -2.058   0.061  0.00  0.00    -0.031 C 
ATOM     26  C   UNL     1      -0.608  -2.492   1.304  0.00  0.00    -0.076 C 
ATOM     27  N   UNL     1       0.765  -1.980   1.225  0.00  0.00    +0.381 N 
ATOM     28  C   UNL     1       0.752  -0.512   1.228  0.00  0.00    -0.076 C 
ATOM     29  C   UNL     1      -2.821  -2.591   0.146  0.00  0.00    +0.005 C 
ATOM     30  H   UNL     1       1.198  -2.309   0.375  0.00  0.00    -0.082 HD
ENDBRANCH  21  27
ENDBRANCH  19  21
ENDBRANCH   1  19
TORSDOF 5
