REMARK  Name = ZINC57077841
REMARK  6 active torsions:
REMARK  status: ('A' for Active; 'I' for Inactive)
REMARK    1  A    between atoms: C_1  and  C_2
REMARK    2  A    between atoms: C_7  and  C_8
REMARK    3  A    between atoms: C_8  and  N_9
REMARK    4  A    between atoms: C_16  and  C_18
REMARK    5  A    between atoms: C_21  and  S_23
REMARK    6  A    between atoms: S_23  and  N_26
REMARK                            x       y       z     vdW  Elec       q    Type
REMARK                         _______ _______ _______ _____ _____    ______ ____
ROOT
ATOM      1  N   UNL     1      -1.451   0.442   2.711  0.00  0.00    +0.383 N 
ATOM      2  C   UNL     1      -1.313   1.350   3.848  0.00  0.00    -0.077 C 
ATOM      3  C   UNL     1      -2.441   2.358   3.821  0.00  0.00    +0.000 C 
ATOM      4  C   UNL     1      -3.604   1.849   4.692  0.00  0.00    +0.106 C 
ATOM      5  N   UNL     1      -3.798   0.395   4.522  0.00  0.00    -0.297 N 
ATOM      6  C   UNL     1      -3.720  -0.251   3.228  0.00  0.00    +0.089 C 
ATOM      7  C   UNL     1      -2.263  -0.689   2.947  0.00  0.00    -0.059 C 
ATOM      8  C   UNL     1      -4.057  -0.357   5.609  0.00  0.00    +0.282 C 
ATOM      9  O   UNL     1      -4.074   0.155   6.713  0.00  0.00    -0.267 OA
ATOM     10  H   UNL     1      -1.842   0.960   1.939  0.00  0.00    -0.081 HD
ENDROOT
BRANCH   8  11
ATOM     11  C   UNL     1      -4.318  -1.793   5.463  0.00  0.00    +0.192 A 
ATOM     12  C   UNL     1      -4.720  -2.641   6.455  0.00  0.00    +0.057 A 
ATOM     13  C   UNL     1      -4.848  -3.912   5.872  0.00  0.00    +0.072 A 
ATOM     14  C   UNL     1      -4.523  -3.785   4.567  0.00  0.00    +0.258 A 
ATOM     15  O   UNL     1      -4.210  -2.506   4.323  0.00  0.00    -0.432 OA
BRANCH  14  16
ATOM     16  S   UNL     1      -4.519  -5.087   3.380  0.00  0.00    +0.089 S 
ATOM     17  O   UNL     1      -3.626  -4.693   2.348  0.00  0.00    -0.150 OA
ATOM     18  O   UNL     1      -4.357  -6.298   4.106  0.00  0.00    -0.150 OA
BRANCH  16  19
ATOM     19  N   UNL     1      -6.030  -5.139   2.704  0.00  0.00    -0.201 NA
ATOM     20  H   UNL     1      -6.712  -4.512   2.992  0.00  0.00    +0.144 HD
ATOM     21  H   UNL     1      -6.233  -5.796   2.020  0.00  0.00    +0.144 HD
ENDBRANCH  16  19
ENDBRANCH  14  16
ENDBRANCH   8  11
BRANCH   1  22
ATOM     22  C   UNL     1      -0.112  -0.022   2.325  0.00  0.00    -0.043 C 
BRANCH  22  29
ATOM     23  C   UNL     1      -0.230   1.468  -0.148  0.00  0.00    +0.044 C 
ATOM     24  C   UNL     1      -0.250  -0.038  -0.174  0.00  0.00    -0.049 A 
ATOM     25  C   UNL     1      -0.319  -0.708  -1.382  0.00  0.00    +0.003 A 
ATOM     26  C   UNL     1      -0.337  -2.090  -1.406  0.00  0.00    +0.000 A 
ATOM     27  C   UNL     1      -0.286  -2.803  -0.223  0.00  0.00    +0.000 A 
ATOM     28  C   UNL     1      -0.216  -2.133   0.985  0.00  0.00    +0.002 A 
ATOM     29  C   UNL     1      -0.193  -0.751   1.009  0.00  0.00    -0.061 A 
ENDBRANCH  22  29
ENDBRANCH   1  22
TORSDOF 5
