REMARK  Name = ZINC48871818
REMARK  5 active torsions:
REMARK  status: ('A' for Active; 'I' for Inactive)
REMARK    1  A    between atoms: C_1  and  C_2
REMARK    2  A    between atoms: C_6  and  C_8
REMARK    3  A    between atoms: C_8  and  N_9
REMARK    4  A    between atoms: N_9  and  C_10
REMARK    5  A    between atoms: C_12  and  N_18
REMARK                            x       y       z     vdW  Elec       q    Type
REMARK                         _______ _______ _______ _____ _____    ______ ____
ROOT
ATOM      1  N   UNL     1       1.448  -3.071   2.909  0.00  0.00    -0.312 N 
ATOM      2  C   UNL     1       2.098  -2.145   3.841  0.00  0.00    +0.131 C 
ATOM      3  C   UNL     1       2.112  -4.219   2.495  0.00  0.00    +0.153 A 
ATOM      4  C   UNL     1       1.965  -5.399   3.217  0.00  0.00    +0.166 A 
ATOM      5  C   UNL     1       2.631  -6.535   2.794  0.00  0.00    +0.039 A 
ATOM      6  C   UNL     1       3.425  -6.454   1.659  0.00  0.00    +0.042 A 
ATOM      7  C   UNL     1       3.527  -5.250   0.989  0.00  0.00    +0.131 A 
ATOM      8  N   UNL     1       2.875  -4.182   1.413  0.00  0.00    -0.218 NA
ATOM      9 CL   UNL     1       4.518  -5.141  -0.432  0.00  0.00    -0.062 Cl
ENDROOT
BRANCH   4  10
ATOM     10  N   UNL     1       1.107  -5.437   4.423  0.00  0.00    +0.060 N 
ATOM     11  O   UNL     1       1.058  -6.439   5.098  0.00  0.00    -0.126 OA
ATOM     12  O   UNL     1       0.455  -4.467   4.732  0.00  0.00    -0.126 OA
ENDBRANCH   4  10
BRANCH   1  13
ATOM     13  C   UNL     1       0.100  -2.785   2.413  0.00  0.00    +0.141 C 
BRANCH  13  19
ATOM     14  C   UNL     1       0.310   1.660   0.123  0.00  0.00    +0.044 C 
ATOM     15  C   UNL     1       0.291   0.155   0.052  0.00  0.00    -0.050 A 
ATOM     16  C   UNL     1       0.357  -0.480  -1.174  0.00  0.00    +0.003 A 
ATOM     17  C   UNL     1       0.340  -1.861  -1.239  0.00  0.00    +0.001 A 
ATOM     18  C   UNL     1       0.257  -2.607  -0.078  0.00  0.00    +0.005 A 
ATOM     19  C   UNL     1       0.191  -1.972   1.148  0.00  0.00    -0.030 A 
ATOM     20  C   UNL     1       0.213  -0.591   1.213  0.00  0.00    +0.008 A 
ENDBRANCH  13  19
ENDBRANCH   1  13
TORSDOF 3
