REMARK  Name = ZINC01299189
REMARK  14 active torsions:
REMARK  status: ('A' for Active; 'I' for Inactive)
REMARK    1  A    between atoms: C_1  and  C_2
REMARK    2  A    between atoms: C_2  and  C_3
REMARK    3  A    between atoms: C_3  and  C_4
REMARK    4  A    between atoms: C_4  and  O_33
REMARK    5  A    between atoms: C_5  and  C_32
REMARK    6  A    between atoms: C_7  and  C_23
REMARK    7  A    between atoms: C_9  and  C_14
REMARK    8  A    between atoms: C_11  and  C_13
REMARK    9  A    between atoms: C_17  and  N_20
REMARK   10  A    between atoms: N_20  and  C_21
REMARK   11  A    between atoms: N_20  and  C_22
REMARK   12  A    between atoms: C_26  and  N_29
REMARK   13  A    between atoms: N_29  and  C_30
REMARK   14  A    between atoms: N_29  and  C_31
REMARK                            x       y       z     vdW  Elec       q    Type
REMARK                         _______ _______ _______ _____ _____    ______ ____
ROOT
ATOM      1  C   UNL     1      -4.362   0.318  -1.375  0.00  0.00    +0.069 C 
ATOM      2  C   UNL     1      -5.408   0.879  -0.408  0.00  0.00    +0.008 C 
ATOM      3  C   UNL     1      -4.814   0.938   1.001  0.00  0.00    -0.034 C 
ATOM      4  C   UNL     1      -2.582   1.247   0.109  0.00  0.00    -0.034 C 
ATOM      5  C   UNL     1      -3.110   1.198  -1.326  0.00  0.00    +0.008 C 
ATOM      6  C   UNL     1      -3.460   2.613  -1.790  0.00  0.00    +0.009 C 
ATOM      7  C   UNL     1      -6.641  -0.027  -0.406  0.00  0.00    +0.009 C 
ATOM      8  N   UNL     1      -3.618   1.802   1.001  0.00  0.00    +0.389 N 
ATOM      9  H   UNL     1      -3.245   1.862   1.956  0.00  0.00    -0.084 HD
ATOM     10  H   UNL     1      -3.878   2.740   0.675  0.00  0.00    -0.084 HD
ENDROOT
BRANCH   4  11
ATOM     11  C   UNL     1      -1.361   2.128   0.165  0.00  0.00    -0.061 A 
ATOM     12  C   UNL     1      -0.100   1.559   0.176  0.00  0.00    +0.004 A 
ATOM     13  C   UNL     1       1.022   2.364   0.221  0.00  0.00    +0.023 A 
ATOM     14  C   UNL     1       0.882   3.745   0.262  0.00  0.00    +0.029 A 
ATOM     15  C   UNL     1      -0.385   4.313   0.257  0.00  0.00    +0.023 A 
ATOM     16  C   UNL     1      -1.503   3.502   0.212  0.00  0.00    +0.004 A 
BRANCH  14  17
ATOM     17  N   UNL     1       2.015   4.562   0.307  0.00  0.00    -0.336 N 
ATOM     18  C   UNL     1       3.351   3.961   0.312  0.00  0.00    +0.129 C 
ATOM     19  C   UNL     1       1.866   6.019   0.351  0.00  0.00    +0.129 C 
ENDBRANCH  14  17
ENDBRANCH   4  11
BRANCH   3  20
ATOM     20  C   UNL     1      -5.833   1.508   1.953  0.00  0.00    -0.061 A 
ATOM     21  C   UNL     1      -6.025   2.876   2.020  0.00  0.00    +0.004 A 
ATOM     22  C   UNL     1      -6.963   3.402   2.887  0.00  0.00    +0.023 A 
ATOM     23  C   UNL     1      -7.705   2.556   3.701  0.00  0.00    +0.029 A 
ATOM     24  C   UNL     1      -7.506   1.183   3.635  0.00  0.00    +0.023 A 
ATOM     25  C   UNL     1      -6.571   0.663   2.762  0.00  0.00    +0.004 A 
BRANCH  23  26
ATOM     26  N   UNL     1      -8.650   3.084   4.583  0.00  0.00    -0.336 N 
ATOM     27  C   UNL     1      -9.433   2.191   5.440  0.00  0.00    +0.129 C 
ATOM     28  C   UNL     1      -8.859   4.533   4.651  0.00  0.00    +0.129 C 
ENDBRANCH  23  26
ENDBRANCH   3  20
BRANCH   1  29
ATOM     29  O   UNL     1      -4.892   0.315  -2.702  0.00  0.00    -0.388 OA
ATOM     30  H   UNL     1      -5.688  -0.224  -2.806  0.00  0.00    +0.210 HD
ENDBRANCH   1  29
BRANCH   1  31
ATOM     31  C   UNL     1      -4.000  -1.110  -0.964  0.00  0.00    +0.035 C 
BRANCH  31  33
ATOM     32  C   UNL     1      -2.686  -3.138  -1.598  0.00  0.00    +0.004 C 
ATOM     33  C   UNL     1      -2.951  -1.668  -1.928  0.00  0.00    -0.001 C 
ENDBRANCH  31  33
ENDBRANCH   1  31
TORSDOF 7
