REMARK  Name = ZINC65339964
REMARK  3 active torsions:
REMARK  status: ('A' for Active; 'I' for Inactive)
REMARK    1  A    between atoms: C_3  and  C_8
REMARK    2  A    between atoms: C_5  and  O_7
REMARK    3  A    between atoms: C_10  and  C_13
REMARK                            x       y       z     vdW  Elec       q    Type
REMARK                         _______ _______ _______ _____ _____    ______ ____
ROOT
ATOM      1  C   UNL     1      -0.017   1.378   0.010  0.00  0.00    +0.004 A 
ATOM      2  C   UNL     1       1.167   2.088   0.002  0.00  0.00    +0.009 A 
ATOM      3  C   UNL     1       2.385   1.411  -0.013  0.00  0.00    -0.014 A 
ATOM      4  C   UNL     1       2.404   0.019  -0.021  0.00  0.00    +0.054 A 
ATOM      5  C   UNL     1       1.212  -0.686  -0.013  0.00  0.00    +0.117 A 
ATOM      6  C   UNL     1       0.002  -0.004   0.002  0.00  0.00    +0.045 A 
ENDROOT
BRANCH   3   7
ATOM      7  C   UNL     1       3.659   2.173  -0.022  0.00  0.00    -0.010 A 
ATOM      8  C   UNL     1       3.659   3.554  -0.009  0.00  0.00    +0.027 A 
ATOM      9  C   UNL     1       4.908   4.159  -0.019  0.00  0.00    +0.052 A 
ATOM     10  S   UNL     1       6.008   2.757  -0.044  0.00  0.00    -0.093 S 
ATOM     11  C   UNL     1       4.873   1.519  -0.036  0.00  0.00    +0.054 A 
BRANCH   9  12
ATOM     12  C   UNL     1       5.227   5.536  -0.011  0.00  0.00    +0.265 C 
ATOM     13  O   UNL     1       6.388   5.890  -0.021  0.00  0.00    -0.295 OA
ENDBRANCH   9  12
ENDBRANCH   3   7
BRANCH   5  14
ATOM     14  O   UNL     1       1.225  -2.045  -0.021  0.00  0.00    -0.507 OA
ATOM     15  H   UNL     1       1.238  -2.443   0.861  0.00  0.00    +0.292 HD
ENDBRANCH   5  14
TORSDOF 3
