REMARK  Name = ZINC09156274
REMARK  7 active torsions:
REMARK  status: ('A' for Active; 'I' for Inactive)
REMARK    1  A    between atoms: C_1  and  C_2
REMARK    2  A    between atoms: C_2  and  O_3
REMARK    3  A    between atoms: O_3  and  C_4
REMARK    4  A    between atoms: C_8  and  C_11
REMARK    5  A    between atoms: C_9  and  O_10
REMARK    6  A    between atoms: N_22  and  C_23
REMARK    7  A    between atoms: C_23  and  C_24
REMARK                            x       y       z     vdW  Elec       q    Type
REMARK                         _______ _______ _______ _____ _____    ______ ____
ROOT
ATOM      1  C   UNL     1      -0.013   1.086   0.008  0.00  0.00    +0.197 C 
ATOM      2  N   UNL     1      -0.740   1.569  -1.172  0.00  0.00    -0.321 N 
ATOM      3  C   UNL     1      -0.605   2.904  -1.536  0.00  0.00    +0.041 A 
ATOM      4  C   UNL     1      -1.618   3.596  -2.175  0.00  0.00    +0.024 A 
ATOM      5  C   UNL     1      -1.435   4.925  -2.506  0.00  0.00    +0.002 A 
ATOM      6  C   UNL     1      -0.246   5.569  -2.203  0.00  0.00    +0.001 A 
ATOM      7  C   UNL     1       0.775   4.893  -1.567  0.00  0.00    +0.015 A 
ATOM      8  C   UNL     1       0.605   3.553  -1.230  0.00  0.00    +0.058 A 
ATOM      9  C   UNL     1       1.664   2.782  -0.554  0.00  0.00    +0.250 C 
ATOM     10  O   UNL     1       2.798   3.216  -0.495  0.00  0.00    -0.270 OA
ATOM     11  N   UNL     1       1.361   1.589  -0.002  0.00  0.00    -0.267 N 
ATOM     12  H   UNL     1      -1.303   0.969  -1.687  0.00  0.00    +0.148 HD
ENDROOT
BRANCH   1  17
ATOM     13  C   UNL     1      -2.735   2.126   2.425  0.00  0.00    +0.162 A 
ATOM     14  C   UNL     1      -1.990   2.456   3.546  0.00  0.00    +0.049 A 
ATOM     15  C   UNL     1      -0.613   2.343   3.518  0.00  0.00    +0.004 A 
ATOM     16  C   UNL     1       0.025   1.900   2.375  0.00  0.00    +0.011 A 
ATOM     17  C   UNL     1      -0.712   1.569   1.253  0.00  0.00    +0.036 A 
ATOM     18  C   UNL     1      -2.092   1.686   1.271  0.00  0.00    +0.165 A 
BRANCH  18  19
ATOM     19  O   UNL     1      -2.818   1.366   0.167  0.00  0.00    -0.503 OA
ATOM     20  H   UNL     1      -3.095   0.440   0.133  0.00  0.00    +0.292 HD
ENDBRANCH  18  19
BRANCH  13  21
ATOM     21  O   UNL     1      -4.090   2.237   2.449  0.00  0.00    -0.489 OA
BRANCH  21  23
ATOM     22  C   UNL     1      -6.201   2.761   3.503  0.00  0.00    +0.048 C 
ATOM     23  C   UNL     1      -4.680   2.701   3.665  0.00  0.00    +0.226 C 
ENDBRANCH  21  23
ENDBRANCH  13  21
ENDBRANCH   1  17
BRANCH  11  24
ATOM     24  C   UNL     1       2.427   0.783   0.598  0.00  0.00    +0.184 C 
BRANCH  24  25
ATOM     25  C   UNL     1       3.015  -0.130  -0.447  0.00  0.00    +0.122 A 
ATOM     26  C   UNL     1       4.051   0.163  -1.254  0.00  0.00    +0.046 A 
ATOM     27  C   UNL     1       4.267  -0.970  -2.071  0.00  0.00    +0.041 A 
ATOM     28  C   UNL     1       3.350  -1.887  -1.716  0.00  0.00    +0.195 A 
ATOM     29  O   UNL     1       2.598  -1.375  -0.728  0.00  0.00    -0.466 OA
ENDBRANCH  24  25
ENDBRANCH  11  24
TORSDOF 6
