REMARK  Name = ZINC08421268
REMARK  7 active torsions:
REMARK  status: ('A' for Active; 'I' for Inactive)
REMARK    1  A    between atoms: C_1  and  C_2
REMARK    2  A    between atoms: N_4  and  C_5
REMARK    3  A    between atoms: C_5  and  C_7
REMARK    4  A    between atoms: C_5  and  C_20
REMARK    5  A    between atoms: C_7  and  C_8
REMARK    6  A    between atoms: N_10  and  N_11
REMARK    7  A    between atoms: C_12  and  C_14
REMARK                            x       y       z     vdW  Elec       q    Type
REMARK                         _______ _______ _______ _____ _____    ______ ____
ROOT
ATOM      1  C   UNL     1       7.027   1.283  -0.055  0.00  0.00    +0.231 C 
ATOM      2  O   UNL     1       6.798   2.474  -0.046  0.00  0.00    -0.274 OA
ATOM      3  N   UNL     1       6.008   0.401  -0.050  0.00  0.00    -0.234 N 
ATOM      4  H   UNL     1       6.191  -0.552  -0.058  0.00  0.00    +0.173 HD
ENDROOT
BRANCH   3   5
ATOM      5  N   UNL     1       4.684   0.860  -0.034  0.00  0.00    -0.230 N 
ATOM      6  C   UNL     1       3.665  -0.023  -0.029  0.00  0.00    +0.267 C 
ATOM      7  O   UNL     1       3.895  -1.218  -0.039  0.00  0.00    -0.268 OA
ATOM      8  H   UNL     1       4.501   1.812  -0.026  0.00  0.00    +0.173 HD
BRANCH   6   9
ATOM      9  C   UNL     1       2.281   0.457  -0.012  0.00  0.00    +0.076 A 
ATOM     10  C   UNL     1       1.103  -0.274  -0.005  0.00  0.00    +0.022 A 
ATOM     11  C   UNL     1      -0.072   0.434   0.011  0.00  0.00    +0.024 A 
ATOM     12  C   UNL     1      -0.027   1.794   0.018  0.00  0.00    +0.056 A 
ATOM     13  S   UNL     1       1.673   2.134   0.004  0.00  0.00    -0.077 S 
ATOM     14 BR   UNL     1      -1.470   3.017   0.033  0.00  0.00    -0.043 Br
ENDBRANCH   6   9
ENDBRANCH   3   5
BRANCH   1  15
ATOM     15  C   UNL     1       8.450   0.789  -0.073  0.00  0.00    +0.124 C 
BRANCH  15  16
ATOM     16  C   UNL     1       9.405   1.985  -0.075  0.00  0.00    +0.112 C 
BRANCH  16  17
ATOM     17  C   UNL     1      10.823   1.496  -0.216  0.00  0.00    -0.027 A 
ATOM     18  C   UNL     1      11.461   0.906   0.859  0.00  0.00    +0.005 A 
ATOM     19  C   UNL     1      12.761   0.453   0.728  0.00  0.00    +0.000 A 
ATOM     20  C   UNL     1      13.425   0.599  -0.475  0.00  0.00    +0.000 A 
ATOM     21  C   UNL     1      12.789   1.193  -1.549  0.00  0.00    +0.000 A 
ATOM     22  C   UNL     1      11.488   1.642  -1.419  0.00  0.00    +0.005 A 
ENDBRANCH  16  17
BRANCH  16  26
ATOM     23  C   UNL     1       9.605   4.744   2.569  0.00  0.00    +0.109 C 
ATOM     24  C   UNL     1       9.634   4.018   1.248  0.00  0.00    +0.210 C 
ATOM     25  O   UNL     1       9.989   4.599   0.244  0.00  0.00    -0.276 OA
ATOM     26  N   UNL     1       9.266   2.723   1.183  0.00  0.00    -0.308 N 
ATOM     27  H   UNL     1       8.909   2.280   1.968  0.00  0.00    +0.149 HD
ENDBRANCH  16  26
ENDBRANCH  15  16
ENDBRANCH   1  15
TORSDOF 6
