REMARK  Name = ZINC12938164
REMARK  5 active torsions:
REMARK  status: ('A' for Active; 'I' for Inactive)
REMARK    1  A    between atoms: C_1  and  C_2
REMARK    2  A    between atoms: C_2  and  N_3
REMARK    3  A    between atoms: C_13  and  C_15
REMARK    4  A    between atoms: C_15  and  S_16
REMARK    5  A    between atoms: S_16  and  C_17
REMARK                            x       y       z     vdW  Elec       q    Type
REMARK                         _______ _______ _______ _____ _____    ______ ____
ROOT
ATOM      1  N   UNL     1      -0.242   1.246   2.466  0.00  0.00    -0.250 N 
ATOM      2  C   UNL     1      -0.890   1.693   3.606  0.00  0.00    +0.168 A 
ATOM      3  N   UNL     1      -1.969   2.434   3.702  0.00  0.00    -0.224 NA
ATOM      4  C   UNL     1      -2.497   2.797   4.891  0.00  0.00    +0.080 A 
ATOM      5  C   UNL     1      -3.645   3.586   5.132  0.00  0.00    +0.029 A 
ATOM      6  C   UNL     1      -4.048   3.863   6.412  0.00  0.00    +0.002 A 
ATOM      7  C   UNL     1      -3.350   3.385   7.512  0.00  0.00    +0.001 A 
ATOM      8  C   UNL     1      -2.222   2.610   7.313  0.00  0.00    +0.017 A 
ATOM      9  C   UNL     1      -1.811   2.327   6.034  0.00  0.00    +0.041 A 
ATOM     10  S   UNL     1      -0.475   1.400   5.319  0.00  0.00    -0.052 S 
ATOM     11  C   UNL     1      -0.718   1.572   1.248  0.00  0.00    +0.231 C 
ATOM     12  O   UNL     1      -1.714   2.256   1.150  0.00  0.00    -0.274 OA
ENDROOT
BRANCH   1  14
ATOM     13  C   UNL     1       2.198   1.321   2.624  0.00  0.00    +0.025 C 
ATOM     14  C   UNL     1       0.962   0.419   2.584  0.00  0.00    +0.112 C 
ENDBRANCH   1  14
BRANCH  11  15
ATOM     15  C   UNL     1      -0.013   1.086   0.008  0.00  0.00    +0.172 C 
BRANCH  15  16
ATOM     16  S   UNL     1      -0.890   1.687  -1.462  0.00  0.00    -0.088 S 
BRANCH  16  17
ATOM     17  C   UNL     1       0.045   1.043  -2.809  0.00  0.00    +0.160 A 
ATOM     18  N   UNL     1       1.132   0.296  -2.791  0.00  0.00    -0.133 NA
ATOM     19  N   UNL     1       1.708  -0.102  -3.975  0.00  0.00    -0.125 NA
ATOM     20  C   UNL     1       1.172   0.265  -5.122  0.00  0.00    +0.180 A 
ATOM     21  S   UNL     1      -0.230   1.221  -4.565  0.00  0.00    -0.025 S 
ATOM     22  N   UNL     1       1.584  -0.021  -6.419  0.00  0.00    -0.336 N 
ATOM     23  H   UNL     1       2.374  -0.564  -6.568  0.00  0.00    +0.144 HD
ATOM     24  H   UNL     1       1.082   0.323  -7.174  0.00  0.00    +0.144 HD
ENDBRANCH  16  17
ENDBRANCH  15  16
ENDBRANCH  11  15
TORSDOF 4
