REMARK  Name = ZINC09018408
REMARK  7 active torsions:
REMARK  status: ('A' for Active; 'I' for Inactive)
REMARK    1  A    between atoms: C_1  and  C_2
REMARK    2  A    between atoms: C_2  and  C_3
REMARK    3  A    between atoms: C_4  and  C_27
REMARK    4  A    between atoms: C_13  and  S_14
REMARK    5  A    between atoms: S_14  and  C_15
REMARK    6  A    between atoms: C_15  and  C_16
REMARK    7  A    between atoms: N_18  and  C_19
REMARK                            x       y       z     vdW  Elec       q    Type
REMARK                         _______ _______ _______ _____ _____    ______ ____
ROOT
ATOM      1  C   UNL     1      -0.777   3.082   1.331  0.00  0.00    +0.036 A 
ATOM      2  C   UNL     1      -1.839   3.744   0.838  0.00  0.00    +0.034 A 
ATOM      3  N   UNL     1      -1.862   5.120   0.849  0.00  0.00    -0.260 N 
ATOM      4  C   UNL     1      -0.798   5.824   1.352  0.00  0.00    +0.237 A 
ATOM      5  N   UNL     1       0.303   5.152   1.856  0.00  0.00    -0.291 N 
ATOM      6  H   UNL     1       1.056   5.649   2.211  0.00  0.00    +0.172 HD
ATOM      7  C   UNL     1       0.326   3.803   1.851  0.00  0.00    +0.256 A 
ATOM      8  O   UNL     1       1.292   3.207   2.293  0.00  0.00    -0.267 OA
ATOM      9  N   UNL     1      -1.069   7.101   1.240  0.00  0.00    -0.109 NA
ATOM     10  N   UNL     1      -2.335   7.227   0.653  0.00  0.00    -0.120 NA
ATOM     11  C   UNL     1      -2.800   6.023   0.423  0.00  0.00    +0.198 A 
ATOM     12  C   UNL     1      -3.009   2.978   0.278  0.00  0.00    +0.064 C 
ENDROOT
BRANCH   1  14
ATOM     13  C   UNL     1      -0.032   1.081   0.070  0.00  0.00    +0.009 C 
ATOM     14  C   UNL     1      -0.758   1.575   1.323  0.00  0.00    +0.039 C 
ENDBRANCH   1  14
BRANCH  11  15
ATOM     15  S   UNL     1      -4.356   5.635  -0.305  0.00  0.00    -0.076 S 
BRANCH  15  16
ATOM     16  C   UNL     1      -5.102   7.255  -0.635  0.00  0.00    +0.173 C 
BRANCH  16  17
ATOM     17  C   UNL     1      -6.457   7.065  -1.268  0.00  0.00    +0.228 C 
ATOM     18  O   UNL     1      -6.878   5.946  -1.475  0.00  0.00    -0.275 OA
ATOM     19  N   UNL     1      -7.201   8.137  -1.603  0.00  0.00    -0.283 N 
ATOM     20  H   UNL     1      -6.894   9.030  -1.379  0.00  0.00    +0.155 HD
BRANCH  19  21
ATOM     21  C   UNL     1      -8.418   7.964  -2.275  0.00  0.00    +0.069 A 
ATOM     22  C   UNL     1      -9.213   6.860  -2.000  0.00  0.00    +0.029 A 
ATOM     23  C   UNL     1     -10.413   6.690  -2.663  0.00  0.00    +0.040 A 
ATOM     24  C   UNL     1     -10.824   7.620  -3.602  0.00  0.00    +0.126 A 
ATOM     25  C   UNL     1     -10.034   8.723  -3.880  0.00  0.00    +0.078 A 
ATOM     26  C   UNL     1      -8.835   8.900  -3.215  0.00  0.00    +0.147 A 
ATOM     27  F   UNL     1      -8.066   9.979  -3.481  0.00  0.00    -0.203 F 
ATOM     28  F   UNL     1     -11.998   7.452  -4.249  0.00  0.00    -0.205 F 
ENDBRANCH  19  21
ENDBRANCH  16  17
ENDBRANCH  15  16
ENDBRANCH  11  15
TORSDOF 5
