REMARK  Name = ZINC00287907
REMARK  2 active torsions:
REMARK  status: ('A' for Active; 'I' for Inactive)
REMARK    1  A    between atoms: C_3  and  N_4
REMARK    2  A    between atoms: C_5  and  C_7
REMARK                            x       y       z     vdW  Elec       q    Type
REMARK                         _______ _______ _______ _____ _____    ______ ____
ROOT
ATOM      1  C   UNL     1      -1.281  -2.630  -2.470  0.00  0.00    +0.082 C 
ATOM      2  C   UNL     1      -2.774  -2.886  -2.691  0.00  0.00    +0.009 C 
ATOM      3  C   UNL     1      -1.825  -4.055  -2.355  0.00  0.00    +0.009 C 
ATOM      4  C   UNL     1      -1.785  -4.943  -3.631  0.00  0.00    +0.000 C 
ATOM      5  C   UNL     1      -1.968  -3.844  -4.756  0.00  0.00    -0.003 C 
ATOM      6  C   UNL     1      -3.252  -3.117  -4.152  0.00  0.00    +0.000 C 
ATOM      7  C   UNL     1      -4.195  -4.383  -4.051  0.00  0.00    -0.000 C 
ATOM      8  C   UNL     1      -3.216  -5.615  -3.675  0.00  0.00    -0.000 C 
ATOM      9  C   UNL     1      -3.765  -5.341  -5.168  0.00  0.00    -0.003 C 
ATOM     10  C   UNL     1      -2.606  -4.689  -5.897  0.00  0.00    +0.008 C 
ENDROOT
BRANCH   1  12
ATOM     11  N   UNL     1      -0.391  -0.679  -1.237  0.00  0.00    -0.312 N 
ATOM     12  C   UNL     1      -0.877  -1.935  -1.196  0.00  0.00    +0.217 C 
ATOM     13  O   UNL     1      -0.989  -2.507  -0.132  0.00  0.00    -0.275 OA
ATOM     14  H   UNL     1      -0.302  -0.222  -2.088  0.00  0.00    +0.149 HD
BRANCH  11  17
ATOM     15  C   UNL     1      -0.019   1.526   0.010  0.00  0.00    +0.024 C 
ATOM     16  C   UNL     1       1.317   0.779  -0.006  0.00  0.00    +0.024 C 
ATOM     17  C   UNL     1       0.002  -0.004   0.002  0.00  0.00    +0.073 C 
ENDBRANCH  11  17
ENDBRANCH   1  12
TORSDOF 2
