REMARK  Name = ZINC66088182
REMARK  6 active torsions:
REMARK  status: ('A' for Active; 'I' for Inactive)
REMARK    1  A    between atoms: C_1  and  C_2
REMARK    2  A    between atoms: C_2  and  O_25
REMARK    3  A    between atoms: C_4  and  C_19
REMARK    4  A    between atoms: C_6  and  C_15
REMARK    5  A    between atoms: C_15  and  O_17
REMARK    6  A    between atoms: O_17  and  C_18
REMARK                            x       y       z     vdW  Elec       q    Type
REMARK                         _______ _______ _______ _____ _____    ______ ____
ROOT
ATOM      1  C   UNL     1      -0.019   1.526   0.010  0.00  0.00    +0.041 C 
ATOM      2  C   UNL     1       0.002  -0.004   0.002  0.00  0.00    +0.067 C 
ATOM      3  C   UNL     1      -1.427  -0.534   0.140  0.00  0.00    +0.043 C 
ATOM      4  C   UNL     1      -2.034  -0.032   1.451  0.00  0.00    +0.039 C 
ATOM      5  C   UNL     1      -1.196  -0.538   2.627  0.00  0.00    +0.145 C 
ATOM      6  C   UNL     1       0.237  -0.032   2.487  0.00  0.00    +0.116 C 
ATOM      7  C   UNL     1       0.848  -0.509   1.173  0.00  0.00    +0.078 C 
ATOM      8  N   UNL     1       0.272   1.433   2.565  0.00  0.00    -0.306 N 
ATOM      9  C   UNL     1       1.029   1.746   3.635  0.00  0.00    +0.146 C 
ATOM     10  S   UNL     1       1.365   3.346   4.140  0.00  0.00    -0.018 S 
ATOM     11  N   UNL     1       1.485   0.649   4.255  0.00  0.00    -0.260 N 
ATOM     12  N   UNL     1       1.053  -0.486   3.626  0.00  0.00    -0.217 NA
ATOM     13  H   UNL     1      -0.165   2.056   1.963  0.00  0.00    +0.150 HD
ATOM     14  H   UNL     1       2.047   0.658   5.045  0.00  0.00    +0.168 HD
ATOM     15  H   UNL     1       0.512  -1.062   4.252  0.00  0.00    +0.147 HD
ENDROOT
BRANCH   4  16
ATOM     16  C   UNL     1      -3.445  -0.547   1.581  0.00  0.00    -0.043 A 
ATOM     17  C   UNL     1      -3.683  -1.909   1.607  0.00  0.00    +0.004 A 
ATOM     18  C   UNL     1      -4.977  -2.381   1.726  0.00  0.00    +0.000 A 
ATOM     19  C   UNL     1      -6.032  -1.492   1.820  0.00  0.00    +0.000 A 
ATOM     20  C   UNL     1      -5.793  -0.131   1.794  0.00  0.00    +0.000 A 
ATOM     21  C   UNL     1      -4.499   0.342   1.679  0.00  0.00    +0.004 A 
ENDBRANCH   4  16
BRANCH   5  22
ATOM     22  C   UNL     1      -1.783  -0.029   3.918  0.00  0.00    +0.314 C 
ATOM     23  O   UNL     1      -1.121   0.668   4.650  0.00  0.00    -0.250 OA
BRANCH  22  24
ATOM     24  O   UNL     1      -3.042  -0.351   4.255  0.00  0.00    -0.468 OA
ATOM     25  C   UNL     1      -3.535   0.166   5.493  0.00  0.00    +0.280 C 
ENDBRANCH  22  24
ENDBRANCH   5  22
BRANCH   2  26
ATOM     26  O   UNL     1       0.566  -0.466  -1.227  0.00  0.00    -0.389 OA
ATOM     27  H   UNL     1       0.080  -0.183  -2.014  0.00  0.00    +0.210 HD
ENDBRANCH   2  26
TORSDOF 4
