REMARK  Name = ZINC39929947
REMARK  10 active torsions:
REMARK  status: ('A' for Active; 'I' for Inactive)
REMARK    1  A    between atoms: C_1  and  C_2
REMARK    2  A    between atoms: C_2  and  C_3
REMARK    3  A    between atoms: C_3  and  N_4
REMARK    4  A    between atoms: C_5  and  C_31
REMARK    5  A    between atoms: C_8  and  C_11
REMARK    6  A    between atoms: C_9  and  C_10
REMARK    7  A    between atoms: C_17  and  C_19
REMARK    8  A    between atoms: C_19  and  C_20
REMARK    9  A    between atoms: C_20  and  C_21
REMARK   10  A    between atoms: C_23  and  C_30
REMARK                            x       y       z     vdW  Elec       q    Type
REMARK                         _______ _______ _______ _____ _____    ______ ____
ROOT
ATOM      1  C   UNL     1      -0.796  -5.207  -2.165  0.00  0.00    +0.078 A 
ATOM      2  C   UNL     1      -2.019  -4.998  -2.743  0.00  0.00    +0.076 A 
ATOM      3  S   UNL     1      -2.513  -6.676  -3.098  0.00  0.00    -0.060 S 
ATOM      4  C   UNL     1      -1.153  -7.460  -2.493  0.00  0.00    +0.165 A 
ATOM      5  N   UNL     1      -0.396  -6.476  -2.065  0.00  0.00    -0.225 NA
ATOM      6  N   UNL     1      -0.890  -8.824  -2.460  0.00  0.00    -0.265 N 
ATOM      7  C   UNL     1      -1.790  -9.696  -2.957  0.00  0.00    +0.219 C 
ATOM      8  O   UNL     1      -2.829  -9.290  -3.432  0.00  0.00    -0.275 OA
ATOM      9  H   UNL     1      -0.059  -9.148  -2.080  0.00  0.00    +0.157 HD
ENDROOT
BRANCH   1  13
ATOM     10  N   UNL     1       1.762  -2.998  -0.696  0.00  0.00    -0.330 N 
ATOM     11  C   UNL     1       0.906  -1.902  -1.174  0.00  0.00    +0.074 C 
ATOM     12  C   UNL     1      -0.278  -2.619  -1.852  0.00  0.00    +0.061 C 
ATOM     13  C   UNL     1       0.039  -4.088  -1.683  0.00  0.00    -0.003 C 
ATOM     14  C   UNL     1       1.191  -4.207  -1.036  0.00  0.00    +0.009 C 
ATOM     15  C   UNL     1       1.815  -5.537  -0.699  0.00  0.00    +0.061 C 
ATOM     16  C   UNL     1       1.660  -1.035  -2.184  0.00  0.00    +0.028 C 
BRANCH  10  17
ATOM     17  C   UNL     1       3.027  -2.831   0.024  0.00  0.00    +0.105 C 
BRANCH  17  19
ATOM     18  C   UNL     1       5.500  -2.583  -0.229  0.00  0.00    +0.005 C 
ATOM     19  C   UNL     1       4.179  -2.757  -0.981  0.00  0.00    +0.015 C 
ENDBRANCH  17  19
ENDBRANCH  10  17
ENDBRANCH   1  13
BRANCH   7  20
ATOM     20  C   UNL     1      -1.505 -11.175  -2.921  0.00  0.00    +0.101 C 
BRANCH  20  21
ATOM     21  C   UNL     1      -2.678 -11.936  -3.542  0.00  0.00    +0.051 C 
BRANCH  21  22
ATOM     22  C   UNL     1      -2.393 -13.415  -3.506  0.00  0.00    +0.036 A 
ATOM     23  H   UNL     1      -2.932 -16.067  -1.753  0.00  0.00    +0.167 HD
ATOM     24  C   UNL     1      -2.862 -14.178  -2.496  0.00  0.00    +0.023 A 
ATOM     25  N   UNL     1      -2.594 -15.519  -2.479  0.00  0.00    -0.339 N 
ATOM     26  C   UNL     1      -1.867 -16.085  -3.459  0.00  0.00    +0.158 A 
ATOM     27  S   UNL     1      -1.548 -17.767  -3.409  0.00  0.00    -0.013 S 
ATOM     28  N   UNL     1      -1.387 -15.349  -4.478  0.00  0.00    -0.303 N 
ATOM     29  C   UNL     1      -1.634 -14.025  -4.535  0.00  0.00    +0.255 A 
ATOM     30  O   UNL     1      -1.204 -13.358  -5.459  0.00  0.00    -0.267 OA
ATOM     31  C   UNL     1      -3.677 -13.555  -1.392  0.00  0.00    +0.064 C 
ATOM     32  H   UNL     1      -0.864 -15.773  -5.176  0.00  0.00    +0.171 HD
ENDBRANCH  21  22
ENDBRANCH  20  21
ENDBRANCH   7  20
TORSDOF 6
