REMARK  Name = ZINC20992732
REMARK  13 active torsions:
REMARK  status: ('A' for Active; 'I' for Inactive)
REMARK    1  A    between atoms: C_1  and  C_2
REMARK    2  A    between atoms: C_5  and  C_8
REMARK    3  A    between atoms: C_8  and  N_9
REMARK    4  A    between atoms: C_11  and  C_15
REMARK    5  A    between atoms: C_12  and  C_14
REMARK    6  A    between atoms: C_16  and  C_17
REMARK    7  A    between atoms: C_17  and  O_19
REMARK    8  A    between atoms: O_19  and  C_20
REMARK    9  A    between atoms: C_20  and  C_22
REMARK   10  A    between atoms: C_20  and  C_23
REMARK   11  A    between atoms: N_25  and  C_26
REMARK   12  A    between atoms: C_30  and  C_32
REMARK   13  A    between atoms: C_32  and  C_34
REMARK                            x       y       z     vdW  Elec       q    Type
REMARK                         _______ _______ _______ _____ _____    ______ ____
ROOT
ATOM      1  C   UNL     1       2.573   9.041   1.163  0.00  0.00    +0.333 C 
ATOM      2  O   UNL     1       1.593   9.611   1.605  0.00  0.00    -0.246 OA
ENDROOT
BRANCH   1   4
ATOM      3  C   UNL     1       4.011  10.702   2.120  0.00  0.00    +0.020 C 
ATOM      4  C   UNL     1       3.865   9.566   1.401  0.00  0.00    +0.092 C 
BRANCH   3   7
ATOM      5  N   UNL     1       7.471  11.419   2.928  0.00  0.00    -0.248 N 
ATOM      6  C   UNL     1       6.447  10.551   2.852  0.00  0.00    +0.135 A 
ATOM      7  C   UNL     1       5.352  11.247   2.367  0.00  0.00    +0.034 A 
ATOM      8  C   UNL     1       5.771  12.581   2.150  0.00  0.00    +0.069 A 
ATOM      9  N   UNL     1       7.026  12.671   2.491  0.00  0.00    -0.174 NA
ATOM     10  C   UNL     1       4.914  13.703   1.621  0.00  0.00    +0.068 C 
ATOM     11 CL   UNL     1       6.490   8.869   3.281  0.00  0.00    -0.062 Cl
BRANCH   5  12
ATOM     12  C   UNL     1       8.825  11.106   3.391  0.00  0.00    +0.180 C 
BRANCH  12  17
ATOM     13  C   UNL     1      12.057   9.430  -1.097  0.00  0.00    +0.044 C 
ATOM     14  C   UNL     1      11.215   9.867   0.074  0.00  0.00    -0.050 A 
ATOM     15  C   UNL     1      11.155  11.203   0.421  0.00  0.00    +0.004 A 
ATOM     16  C   UNL     1      10.382  11.604   1.495  0.00  0.00    +0.006 A 
ATOM     17  C   UNL     1       9.668  10.669   2.220  0.00  0.00    -0.026 A 
ATOM     18  C   UNL     1       9.732   9.332   1.876  0.00  0.00    +0.006 A 
ATOM     19  C   UNL     1      10.502   8.931   0.800  0.00  0.00    +0.004 A 
ENDBRANCH  12  17
ENDBRANCH   5  12
ENDBRANCH   3   7
ENDBRANCH   1   4
BRANCH   1  20
ATOM     20  O   UNL     1       2.427   7.907   0.445  0.00  0.00    -0.449 OA
BRANCH  20  21
ATOM     21  C   UNL     1       1.094   7.434   0.243  0.00  0.00    +0.259 C 
ATOM     22  C   UNL     1       0.525   8.044  -1.039  0.00  0.00    +0.062 C 
BRANCH  21  23
ATOM     23  C   UNL     1       1.107   5.932   0.123  0.00  0.00    +0.258 C 
ATOM     24  O   UNL     1       2.162   5.334   0.110  0.00  0.00    -0.271 OA
ATOM     25  N   UNL     1      -0.054   5.254   0.028  0.00  0.00    -0.282 N 
ATOM     26  H   UNL     1      -1.006   5.800  -0.048  0.00  0.00    +0.155 HD
BRANCH  25  27
ATOM     27  C   UNL     1      -0.048   3.854   0.028  0.00  0.00    +0.034 A 
ATOM     28  C   UNL     1      -0.995   3.156  -0.714  0.00  0.00    +0.023 A 
ATOM     29  C   UNL     1      -0.995   1.773  -0.719  0.00  0.00    +0.002 A 
ATOM     30  C   UNL     1      -0.056   1.076   0.012  0.00  0.00    +0.011 A 
ATOM     31  C   UNL     1       0.898   1.767   0.765  0.00  0.00    +0.019 A 
ATOM     32  C   UNL     1       0.900   3.165   0.766  0.00  0.00    +0.034 A 
BRANCH  31  33
ATOM     33  C   UNL     1       1.898   1.027   1.550  0.00  0.00    +0.160 C 
ATOM     34  O   UNL     1       2.724   1.629   2.203  0.00  0.00    -0.292 OA
ATOM     35  C   UNL     1       1.896  -0.480   1.544  0.00  0.00    +0.091 C 
ENDBRANCH  31  33
ENDBRANCH  25  27
ENDBRANCH  21  23
ENDBRANCH  20  21
ENDBRANCH   1  20
TORSDOF 9
