REMARK  Name = ZINC40811370
REMARK  9 active torsions:
REMARK  status: ('A' for Active; 'I' for Inactive)
REMARK    1  A    between atoms: C_1  and  C_2
REMARK    2  A    between atoms: C_6  and  C_8
REMARK    3  A    between atoms: N_10  and  N_11
REMARK    4  A    between atoms: C_18  and  C_34
REMARK    5  A    between atoms: C_19  and  C_21
REMARK    6  A    between atoms: N_23  and  C_24
REMARK    7  A    between atoms: C_29  and  C_30
REMARK    8  A    between atoms: C_30  and  O_32
REMARK    9  A    between atoms: O_32  and  C_33
REMARK                            x       y       z     vdW  Elec       q    Type
REMARK                         _______ _______ _______ _____ _____    ______ ____
ROOT
ATOM      1  N   UNL     1       0.033  -4.915   3.650  0.00  0.00    -0.184 NA
ATOM      2  C   UNL     1       0.043  -6.212   3.639  0.00  0.00    +0.070 C 
ATOM      3  C   UNL     1       0.035  -7.018   2.348  0.00  0.00    +0.058 C 
ATOM      4  C   UNL     1      -0.933  -8.193   2.522  0.00  0.00    +0.014 C 
ATOM      5  C   UNL     1      -0.431  -9.150   3.607  0.00  0.00    +0.075 C 
ATOM      6  C   UNL     1      -0.154  -8.374   4.870  0.00  0.00    +0.115 A 
ATOM      7  C   UNL     1       0.068  -7.016   4.881  0.00  0.00    +0.042 A 
ATOM      8  C   UNL     1       0.293  -6.636   6.210  0.00  0.00    +0.009 A 
ATOM      9  C   UNL     1       0.206  -7.780   6.954  0.00  0.00    +0.193 A 
ATOM     10  O   UNL     1      -0.072  -8.814   6.123  0.00  0.00    -0.454 OA
ATOM     11  C   UNL     1       0.575  -5.246   6.718  0.00  0.00    +0.048 C 
ENDROOT
BRANCH   1  14
ATOM     12  C   UNL     1      -0.002  -2.856   2.454  0.00  0.00    +0.263 C 
ATOM     13  O   UNL     1       0.011  -2.257   3.512  0.00  0.00    -0.268 OA
ATOM     14  N   UNL     1       0.009  -4.204   2.443  0.00  0.00    -0.203 N 
ATOM     15  H   UNL     1      -0.001  -4.682   1.599  0.00  0.00    +0.178 HD
BRANCH  12  21
ATOM     16  C   UNL     1      -0.076   1.489   0.003  0.00  0.00    +0.044 C 
ATOM     17  C   UNL     1      -0.064  -0.018  -0.004  0.00  0.00    -0.050 A 
ATOM     18  C   UNL     1      -0.077  -0.703  -1.206  0.00  0.00    +0.003 A 
ATOM     19  C   UNL     1      -0.066  -2.086  -1.221  0.00  0.00    +0.001 A 
ATOM     20  C   UNL     1      -0.041  -2.792  -0.036  0.00  0.00    +0.013 A 
ATOM     21  C   UNL     1      -0.027  -2.107   1.180  0.00  0.00    +0.039 A 
ATOM     22  C   UNL     1      -0.033  -0.711   1.188  0.00  0.00    +0.016 A 
ENDBRANCH  12  21
ENDBRANCH   1  14
BRANCH   9  23
ATOM     23  C   UNL     1       0.373  -7.871   8.409  0.00  0.00    +0.284 C 
ATOM     24  O   UNL     1       0.610  -6.869   9.057  0.00  0.00    -0.266 OA
ATOM     25  N   UNL     1       0.263  -9.064   9.027  0.00  0.00    -0.278 N 
ATOM     26  H   UNL     1       0.009  -9.851   8.520  0.00  0.00    +0.155 HD
BRANCH  25  27
ATOM     27  C   UNL     1       0.513  -9.166  10.391  0.00  0.00    +0.048 A 
ATOM     28  C   UNL     1       0.166  -8.126  11.244  0.00  0.00    +0.024 A 
ATOM     29  C   UNL     1       0.415  -8.229  12.598  0.00  0.00    +0.002 A 
ATOM     30  C   UNL     1       1.013  -9.367  13.116  0.00  0.00    +0.001 A 
ATOM     31  C   UNL     1       1.365 -10.409  12.286  0.00  0.00    +0.017 A 
ATOM     32  C   UNL     1       1.113 -10.322  10.914  0.00  0.00    +0.080 A 
BRANCH  32  33
ATOM     33  C   UNL     1       1.481 -11.435  10.021  0.00  0.00    +0.341 C 
ATOM     34  O   UNL     1       1.354 -11.316   8.818  0.00  0.00    -0.245 OA
BRANCH  33  35
ATOM     35  O   UNL     1       1.958 -12.584  10.538  0.00  0.00    -0.464 OA
ATOM     36  C   UNL     1       2.295 -13.621   9.613  0.00  0.00    +0.280 C 
ENDBRANCH  33  35
ENDBRANCH  32  33
ENDBRANCH  25  27
ENDBRANCH   9  23
TORSDOF 6
