REMARK  Name = ZINC67496054
REMARK  10 active torsions:
REMARK  status: ('A' for Active; 'I' for Inactive)
REMARK    1  A    between atoms: C_1  and  C_2
REMARK    2  A    between atoms: C_5  and  C_7
REMARK    3  A    between atoms: C_7  and  N_8
REMARK    4  A    between atoms: C_9  and  C_11
REMARK    5  A    between atoms: N_13  and  C_14
REMARK    6  A    between atoms: C_21  and  O_23
REMARK    7  A    between atoms: O_23  and  C_24
REMARK    8  A    between atoms: C_24  and  C_25
REMARK    9  A    between atoms: C_24  and  C_26
REMARK   10  A    between atoms: C_24  and  C_27
REMARK                            x       y       z     vdW  Elec       q    Type
REMARK                         _______ _______ _______ _____ _____    ______ ____
ROOT
ATOM      1  C   UNL     1       3.134  -7.919  -2.369  0.00  0.00    +0.303 C 
ATOM      2  O   UNL     1       4.004  -8.718  -2.648  0.00  0.00    -0.265 OA
ATOM      3  N   UNL     1       2.325  -7.440  -3.334  0.00  0.00    -0.276 N 
ATOM      4  H   UNL     1       1.587  -6.854  -3.102  0.00  0.00    +0.155 HD
ENDROOT
BRANCH   3   5
ATOM      5  C   UNL     1       2.549  -7.786  -4.671  0.00  0.00    +0.052 A 
ATOM      6  C   UNL     1       3.019  -9.057  -5.002  0.00  0.00    +0.028 A 
ATOM      7  C   UNL     1       3.226  -9.356  -6.335  0.00  0.00    +0.046 A 
ATOM      8  C   UNL     1       2.960  -8.386  -7.296  0.00  0.00    +0.127 A 
ATOM      9  N   UNL     1       2.514  -7.191  -6.947  0.00  0.00    -0.238 NA
ATOM     10  C   UNL     1       2.300  -6.872  -5.685  0.00  0.00    +0.136 A 
ATOM     11  N   UNL     1       3.167  -8.678  -8.645  0.00  0.00    -0.236 N 
ATOM     12  C   UNL     1       3.009  -7.715  -9.575  0.00  0.00    +0.406 C 
ATOM     13  O   UNL     1       2.600  -6.618  -9.250  0.00  0.00    -0.226 OA
ATOM     14  H   UNL     1       3.423  -9.574  -8.914  0.00  0.00    +0.160 HD
BRANCH  12  15
ATOM     15  O   UNL     1       3.306  -7.968 -10.863  0.00  0.00    -0.444 OA
BRANCH  15  16
ATOM     16  C   UNL     1       3.116  -6.900 -11.794  0.00  0.00    +0.107 C 
ATOM     17  C   UNL     1       3.994  -5.713 -11.396  0.00  0.00    +0.055 C 
ATOM     18  C   UNL     1       3.503  -7.373 -13.197  0.00  0.00    +0.055 C 
ATOM     19  C   UNL     1       1.647  -6.473 -11.787  0.00  0.00    +0.055 C 
ENDBRANCH  15  16
ENDBRANCH  12  15
ENDBRANCH   3   5
BRANCH   1  21
ATOM     20  N   UNL     1       3.769  -7.947   0.009  0.00  0.00    -0.303 N 
ATOM     21  C   UNL     1       2.960  -7.468  -0.956  0.00  0.00    +0.300 C 
ATOM     22  O   UNL     1       2.090  -6.669  -0.677  0.00  0.00    -0.265 OA
ATOM     23  H   UNL     1       4.465  -8.585  -0.214  0.00  0.00    +0.149 HD
BRANCH  20  24
ATOM     24  C   UNL     1       3.599  -7.504   1.395  0.00  0.00    +0.147 C 
BRANCH  24  29
ATOM     25  C   UNL     1       6.753 -10.762   4.790  0.00  0.00    +0.051 C 
ATOM     26  C   UNL     1       6.123  -9.735   3.885  0.00  0.00    -0.013 A 
ATOM     27  C   UNL     1       6.642  -8.572   3.422  0.00  0.00    +0.011 A 
ATOM     28  C   UNL     1       5.873  -7.777   2.594  0.00  0.00    +0.013 A 
ATOM     29  C   UNL     1       4.621  -8.184   2.269  0.00  0.00    +0.007 A 
ATOM     30  S   UNL     1       4.500  -9.738   3.140  0.00  0.00    -0.097 S 
ENDBRANCH  24  29
ENDBRANCH  20  24
ENDBRANCH   1  21
TORSDOF 6
