REMARK  Name = ZINC23186645
REMARK  6 active torsions:
REMARK  status: ('A' for Active; 'I' for Inactive)
REMARK    1  A    between atoms: C_4  and  C_7
REMARK    2  A    between atoms: C_13  and  C_17
REMARK    3  A    between atoms: C_17  and  N_18
REMARK    4  A    between atoms: N_21  and  C_24
REMARK    5  A    between atoms: C_25  and  C_34
REMARK    6  A    between atoms: C_27  and  C_29
REMARK                            x       y       z     vdW  Elec       q    Type
REMARK                         _______ _______ _______ _____ _____    ______ ____
ROOT
ATOM      1  N   UNL     1       2.420   4.126   0.001  0.00  0.00    +0.386 N 
ATOM      2  C   UNL     1       3.129   3.806   1.248  0.00  0.00    -0.059 C 
ATOM      3  C   UNL     1       4.564   4.332   1.165  0.00  0.00    +0.089 C 
ATOM      4  N   UNL     1       4.537   5.784   0.935  0.00  0.00    -0.303 N 
ATOM      5  C   UNL     1       3.829   6.104  -0.311  0.00  0.00    +0.089 C 
ATOM      6  C   UNL     1       2.394   5.577  -0.229  0.00  0.00    -0.059 C 
ATOM      7  H   UNL     1       2.968   3.660  -0.831  0.00  0.00    -0.081 HD
ENDROOT
BRANCH   4   8
ATOM      8  C   UNL     1       5.813   6.305   0.926  0.00  0.00    +0.227 A 
ATOM      9  C   UNL     1       6.758   6.197   1.935  0.00  0.00    +0.201 A 
ATOM     10  N   UNL     1       7.870   6.854   1.508  0.00  0.00    -0.194 NA
ATOM     11  C   UNL     1       7.635   7.340   0.314  0.00  0.00    +0.266 A 
ATOM     12  O   UNL     1       6.384   7.013  -0.067  0.00  0.00    -0.417 OA
BRANCH  11  13
ATOM     13  C   UNL     1       8.589   8.117  -0.489  0.00  0.00    +0.189 A 
ATOM     14  C   UNL     1       9.859   8.452  -0.121  0.00  0.00    +0.055 A 
ATOM     15  C   UNL     1      10.407   9.192  -1.185  0.00  0.00    +0.042 A 
ATOM     16  C   UNL     1       9.459   9.273  -2.141  0.00  0.00    +0.196 A 
ATOM     17  O   UNL     1       8.365   8.619  -1.720  0.00  0.00    -0.458 OA
ENDBRANCH  11  13
BRANCH   9  18
ATOM     18  C   UNL     1       6.595   5.521   3.187  0.00  0.00    +0.124 C 
ATOM     19  N   UNL     1       6.466   4.986   4.180  0.00  0.00    -0.189 NA
ENDBRANCH   9  18
ENDBRANCH   4   8
BRANCH   1  20
ATOM     20  C   UNL     1       1.060   3.570   0.011  0.00  0.00    -0.003 C 
BRANCH  20  27
ATOM     21  C   UNL     1       2.810  -2.508  -0.038  0.00  0.00    +0.022 A 
ATOM     22  C   UNL     1       1.527  -2.062  -0.024  0.00  0.00    +0.031 A 
ATOM     23  C   UNL     1       1.267  -0.682  -0.014  0.00  0.00    +0.072 A 
ATOM     24  C   UNL     1       0.002  -0.004   0.002  0.00  0.00    +0.281 A 
ATOM     25  O   UNL     1      -1.039  -0.637   0.009  0.00  0.00    -0.265 OA
ATOM     26  N   UNL     1      -0.016   1.341   0.009  0.00  0.00    -0.197 NA
ATOM     27  C   UNL     1       1.133   2.065   0.002  0.00  0.00    +0.095 A 
ATOM     28  N   UNL     1       2.300   1.478  -0.012  0.00  0.00    -0.339 N 
ATOM     29  C   UNL     1       2.401   0.154  -0.020  0.00  0.00    +0.092 A 
ATOM     30  S   UNL     1       3.755  -0.994  -0.039  0.00  0.00    -0.070 S 
ATOM     31  H   UNL     1       3.219   2.083  -0.019  0.00  0.00    +0.167 HD
BRANCH  21  35
ATOM     32  C   UNL     1       4.221  -6.514  -0.072  0.00  0.00    +0.000 A 
ATOM     33  C   UNL     1       5.124  -5.465  -0.076  0.00  0.00    +0.001 A 
ATOM     34  C   UNL     1       4.672  -4.162  -0.065  0.00  0.00    +0.009 A 
ATOM     35  C   UNL     1       3.301  -3.902  -0.050  0.00  0.00    -0.011 A 
ATOM     36  C   UNL     1       2.396  -4.965  -0.041  0.00  0.00    +0.009 A 
ATOM     37  C   UNL     1       2.861  -6.263  -0.058  0.00  0.00    +0.001 A 
ENDBRANCH  21  35
ENDBRANCH  20  27
ENDBRANCH   1  20
TORSDOF 6
