REMARK  Name = ZINC04188761
REMARK  6 active torsions:
REMARK  status: ('A' for Active; 'I' for Inactive)
REMARK    1  A    between atoms: C_1  and  C_2
REMARK    2  A    between atoms: C_7  and  C_17
REMARK    3  A    between atoms: C_20  and  N_23
REMARK    4  A    between atoms: C_28  and  C_30
REMARK    5  A    between atoms: C_30  and  O_32
REMARK    6  A    between atoms: O_32  and  C_33
REMARK                            x       y       z     vdW  Elec       q    Type
REMARK                         _______ _______ _______ _____ _____    ______ ____
ROOT
ATOM      1  C   UNL     1       0.663   3.170   2.112  0.00  0.00    +0.009 C 
ATOM      2  C   UNL     1       1.036   3.390   0.644  0.00  0.00    +0.013 C 
ATOM      3  C   UNL     1      -0.110   4.092  -0.082  0.00  0.00    +0.055 C 
ATOM      4  C   UNL     1      -1.369   3.244  -0.004  0.00  0.00    +0.017 C 
ATOM      5  C   UNL     1      -1.286   1.904   0.006  0.00  0.00    +0.037 C 
ATOM      6  C   UNL     1      -2.450   0.943   0.052  0.00  0.00    +0.136 C 
ATOM      7  N   UNL     1      -3.725   1.563   0.346  0.00  0.00    -0.331 N 
ATOM      8  C   UNL     1      -4.300   2.481  -0.531  0.00  0.00    +0.049 A 
ATOM      9  C   UNL     1      -5.489   2.209  -1.188  0.00  0.00    +0.025 A 
ATOM     10  C   UNL     1      -5.998   3.133  -2.084  0.00  0.00    +0.002 A 
ATOM     11  C   UNL     1      -5.325   4.317  -2.327  0.00  0.00    +0.002 A 
ATOM     12  C   UNL     1      -4.144   4.598  -1.661  0.00  0.00    +0.025 A 
ATOM     13  C   UNL     1      -3.646   3.685  -0.748  0.00  0.00    +0.052 A 
ATOM     14  N   UNL     1      -2.526   3.951   0.042  0.00  0.00    -0.316 N 
ATOM     15  C   UNL     1      -0.022   1.267  -0.020  0.00  0.00    +0.177 C 
ATOM     16  O   UNL     1       0.022   0.053  -0.029  0.00  0.00    -0.291 OA
ATOM     17  C   UNL     1       1.264   2.038  -0.043  0.00  0.00    +0.171 C 
ATOM     18  H   UNL     1      -4.188   1.334   1.167  0.00  0.00    +0.147 HD
ATOM     19  H   UNL     1      -2.574   4.696   0.661  0.00  0.00    +0.152 HD
ENDROOT
BRANCH   6  20
ATOM     20  C   UNL     1      -2.552   0.251  -1.283  0.00  0.00    -0.023 A 
ATOM     21  C   UNL     1      -2.364  -1.115  -1.369  0.00  0.00    +0.008 A 
ATOM     22  C   UNL     1      -2.462  -1.751  -2.593  0.00  0.00    +0.033 A 
ATOM     23  C   UNL     1      -2.738  -1.018  -3.732  0.00  0.00    +0.126 A 
ATOM     24  C   UNL     1      -2.921   0.349  -3.647  0.00  0.00    +0.033 A 
ATOM     25  C   UNL     1      -2.828   0.984  -2.422  0.00  0.00    +0.008 A 
BRANCH  23  26
ATOM     26  N   UNL     1      -2.837  -1.698  -5.043  0.00  0.00    +0.056 N 
ATOM     27  O   UNL     1      -3.080  -1.052  -6.047  0.00  0.00    -0.126 OA
ATOM     28  O   UNL     1      -2.676  -2.903  -5.119  0.00  0.00    -0.126 OA
ENDBRANCH  23  26
ENDBRANCH   6  20
BRANCH  17  29
ATOM     29  C   UNL     1       2.329   1.266   0.693  0.00  0.00    +0.318 C 
ATOM     30  O   UNL     1       2.867   1.750   1.660  0.00  0.00    -0.250 OA
BRANCH  29  31
ATOM     31  O   UNL     1       2.680   0.040   0.273  0.00  0.00    -0.467 OA
ATOM     32  C   UNL     1       3.713  -0.645   1.029  0.00  0.00    +0.280 C 
ENDBRANCH  29  31
ENDBRANCH  17  29
TORSDOF 4
