REMARK  Name = ZINC12323943
REMARK  7 active torsions:
REMARK  status: ('A' for Active; 'I' for Inactive)
REMARK    1  A    between atoms: C_1  and  C_2
REMARK    2  A    between atoms: C_3  and  C_25
REMARK    3  A    between atoms: C_4  and  C_16
REMARK    4  A    between atoms: C_19  and  O_23
REMARK    5  A    between atoms: C_20  and  O_22
REMARK    6  A    between atoms: O_23  and  C_24
REMARK    7  A    between atoms: C_25  and  C_27
REMARK                            x       y       z     vdW  Elec       q    Type
REMARK                         _______ _______ _______ _____ _____    ______ ____
ROOT
ATOM      1  C   UNL     1       0.482   1.303   0.250  0.00  0.00    +0.066 C 
ATOM      2  C   UNL     1       0.301  -0.186   0.107  0.00  0.00    +0.050 C 
ATOM      3  C   UNL     1      -0.970  -0.698  -0.098  0.00  0.00    +0.041 C 
ATOM      4  C   UNL     1      -1.089  -2.204  -0.236  0.00  0.00    +0.147 C 
ATOM      5  N   UNL     1       0.165  -2.968  -0.137  0.00  0.00    -0.259 N 
ATOM      6  C   UNL     1       0.438  -4.327  -0.213  0.00  0.00    +0.058 A 
ATOM      7  C   UNL     1      -0.360  -5.446  -0.408  0.00  0.00    +0.025 A 
ATOM      8  C   UNL     1       0.211  -6.701  -0.438  0.00  0.00    +0.002 A 
ATOM      9  C   UNL     1       1.578  -6.850  -0.274  0.00  0.00    +0.002 A 
ATOM     10  C   UNL     1       2.381  -5.745  -0.080  0.00  0.00    +0.025 A 
ATOM     11  C   UNL     1       1.816  -4.477  -0.048  0.00  0.00    +0.055 A 
ATOM     12  N   UNL     1       2.349  -3.205   0.124  0.00  0.00    -0.285 N 
ATOM     13  C   UNL     1       1.331  -2.295   0.067  0.00  0.00    +0.193 C 
ATOM     14  N   UNL     1       1.358  -0.975   0.173  0.00  0.00    -0.222 NA
ATOM     15  H   UNL     1       3.287  -2.998   0.262  0.00  0.00    +0.155 HD
ENDROOT
BRANCH   4  16
ATOM     16  C   UNL     1      -1.712  -2.505  -1.575  0.00  0.00    -0.018 A 
ATOM     17  C   UNL     1      -0.957  -2.392  -2.728  0.00  0.00    +0.009 A 
ATOM     18  C   UNL     1      -1.523  -2.667  -3.958  0.00  0.00    +0.050 A 
ATOM     19  C   UNL     1      -2.851  -3.057  -4.038  0.00  0.00    +0.161 A 
ATOM     20  C   UNL     1      -3.610  -3.170  -2.878  0.00  0.00    +0.159 A 
ATOM     21  C   UNL     1      -3.035  -2.898  -1.647  0.00  0.00    +0.055 A 
BRANCH  20  22
ATOM     22  O   UNL     1      -4.913  -3.552  -2.952  0.00  0.00    -0.503 OA
ATOM     23  H   UNL     1      -5.047  -4.508  -2.896  0.00  0.00    +0.292 HD
ENDBRANCH  20  22
BRANCH  19  24
ATOM     24  O   UNL     1      -3.410  -3.327  -5.248  0.00  0.00    -0.491 OA
ATOM     25  C   UNL     1      -2.570  -3.188  -6.396  0.00  0.00    +0.277 C 
ENDBRANCH  19  24
ENDBRANCH   4  16
BRANCH   3  26
ATOM     26  C   UNL     1      -2.086   0.132  -0.174  0.00  0.00    +0.160 C 
ATOM     27  O   UNL     1      -2.195   0.923  -1.091  0.00  0.00    -0.293 OA
ATOM     28  C   UNL     1      -3.158   0.049   0.882  0.00  0.00    +0.091 C 
ENDBRANCH   3  26
TORSDOF 4
