REMARK  Name = ZINC67080168
REMARK  7 active torsions:
REMARK  status: ('A' for Active; 'I' for Inactive)
REMARK    1  A    between atoms: C_3  and  C_6
REMARK    2  A    between atoms: C_6  and  N_7
REMARK    3  A    between atoms: C_10  and  C_13
REMARK    4  A    between atoms: C_13  and  N_14
REMARK    5  A    between atoms: N_17  and  N_18
REMARK    6  A    between atoms: C_19  and  C_21
REMARK    7  A    between atoms: C_21  and  C_22
REMARK                            x       y       z     vdW  Elec       q    Type
REMARK                         _______ _______ _______ _____ _____    ______ ____
ROOT
ATOM      1  N   UNL     1       7.843   2.282   5.052  0.00  0.00    -0.298 N 
ATOM      2  C   UNL     1       8.400   2.572   6.245  0.00  0.00    +0.316 C 
ATOM      3  O   UNL     1       7.768   2.401   7.269  0.00  0.00    -0.251 OA
ATOM      4  N   UNL     1       9.658   3.051   6.302  0.00  0.00    -0.218 N 
ATOM      5  H   UNL     1       8.347   2.418   4.235  0.00  0.00    +0.150 HD
ATOM      6  H   UNL     1      10.059   3.260   7.160  0.00  0.00    +0.174 HD
ENDROOT
BRANCH   4   7
ATOM      7  N   UNL     1      10.387   3.248   5.121  0.00  0.00    -0.233 N 
ATOM      8  C   UNL     1      11.645   3.727   5.178  0.00  0.00    +0.229 C 
ATOM      9  O   UNL     1      12.147   3.988   6.251  0.00  0.00    -0.274 OA
ATOM     10  H   UNL     1       9.986   3.039   4.263  0.00  0.00    +0.173 HD
BRANCH   8  11
ATOM     11  C   UNL     1      12.429   3.939   3.909  0.00  0.00    +0.101 C 
BRANCH  11  12
ATOM     12  C   UNL     1      13.816   4.486   4.251  0.00  0.00    -0.002 C 
ATOM     13  C   UNL     1      13.677   5.875   4.877  0.00  0.00    +0.004 C 
ATOM     14  C   UNL     1      15.064   6.422   5.219  0.00  0.00    +0.000 C 
ATOM     15  C   UNL     1      15.903   6.520   3.943  0.00  0.00    +0.000 C 
ATOM     16  C   UNL     1      16.043   5.131   3.317  0.00  0.00    +0.000 C 
ATOM     17  C   UNL     1      14.655   4.584   2.975  0.00  0.00    +0.004 C 
ENDBRANCH  11  12
ENDBRANCH   8  11
ENDBRANCH   4   7
BRANCH   1  18
ATOM     18  C   UNL     1       6.475   1.761   4.991  0.00  0.00    +0.109 C 
BRANCH  18  22
ATOM     19  N   UNL     1       4.235   2.004   1.357  0.00  0.00    +0.383 N 
ATOM     20  C   UNL     1       4.291   0.689   2.007  0.00  0.00    -0.078 C 
ATOM     21  C   UNL     1       4.707   0.857   3.470  0.00  0.00    -0.014 C 
ATOM     22  C   UNL     1       6.087   1.518   3.531  0.00  0.00    +0.003 C 
ATOM     23  C   UNL     1       6.036   2.854   2.785  0.00  0.00    -0.014 C 
ATOM     24  C   UNL     1       5.571   2.612   1.347  0.00  0.00    -0.078 C 
ATOM     25  H   UNL     1       3.599   2.601   1.864  0.00  0.00    -0.081 HD
BRANCH  19  26
ATOM     26  C   UNL     1       3.761   1.845  -0.024  0.00  0.00    -0.036 C 
BRANCH  26  29
ATOM     27  C   UNL     1      -0.016   1.351   0.009  0.00  0.00    +0.008 A 
ATOM     28  C   UNL     1       1.183   2.038   0.002  0.00  0.00    +0.009 A 
ATOM     29  C   UNL     1       2.343   1.336  -0.013  0.00  0.00    -0.027 A 
ATOM     30  S   UNL     1       1.754  -0.349  -0.017  0.00  0.00    -0.103 S 
ATOM     31  C   UNL     1       0.002  -0.004   0.002  0.00  0.00    +0.045 A 
ENDBRANCH  26  29
ENDBRANCH  19  26
ENDBRANCH  18  22
ENDBRANCH   1  18
TORSDOF 7
