REMARK  Name = ZINC66858972
REMARK  5 active torsions:
REMARK  status: ('A' for Active; 'I' for Inactive)
REMARK    1  A    between atoms: C_4  and  C_6
REMARK    2  A    between atoms: C_6  and  C_7
REMARK    3  A    between atoms: N_9  and  C_10
REMARK    4  A    between atoms: N_13  and  C_16
REMARK    5  A    between atoms: C_16  and  N_17
REMARK                            x       y       z     vdW  Elec       q    Type
REMARK                         _______ _______ _______ _____ _____    ______ ____
ROOT
ATOM      1  C   UNL     1      -0.399  -4.744  -2.132  0.00  0.00    +0.069 C 
ATOM      2  C   UNL     1       0.699  -5.744  -1.758  0.00  0.00    +0.004 C 
ATOM      3  C   UNL     1       0.063  -7.106  -1.470  0.00  0.00    -0.075 C 
ATOM      4  N   UNL     1      -0.646  -7.580  -2.665  0.00  0.00    +0.391 N 
ATOM      5  C   UNL     1      -1.746  -6.663  -2.988  0.00  0.00    -0.075 C 
ATOM      6  C   UNL     1      -1.180  -5.284  -3.333  0.00  0.00    +0.004 C 
ATOM      7  H   UNL     1      -0.004  -7.621  -3.442  0.00  0.00    -0.079 HD
ENDROOT
BRANCH   1  10
ATOM      8  C   UNL     1       0.501  -2.565  -1.516  0.00  0.00    +0.213 C 
ATOM      9  O   UNL     1       0.261  -2.826  -0.356  0.00  0.00    -0.276 OA
ATOM     10  N   UNL     1       0.209  -3.457  -2.482  0.00  0.00    -0.313 N 
ATOM     11  H   UNL     1       0.402  -3.248  -3.410  0.00  0.00    +0.149 HD
BRANCH   8  12
ATOM     12  C   UNL     1       1.127  -1.242  -1.876  0.00  0.00    +0.099 C 
BRANCH  12  16
ATOM     13  C   UNL     1      -0.019   1.538   0.011  0.00  0.00    +0.000 C 
ATOM     14  C   UNL     1       1.477   1.939  -0.002  0.00  0.00    +0.000 C 
ATOM     15  C   UNL     1       2.107   0.881  -0.942  0.00  0.00    +0.004 C 
ATOM     16  C   UNL     1       1.353  -0.422  -0.604  0.00  0.00    -0.002 C 
ATOM     17  C   UNL     1       0.002  -0.004   0.002  0.00  0.00    +0.004 C 
ENDBRANCH  12  16
ENDBRANCH   8  12
ENDBRANCH   1  10
BRANCH   4  18
ATOM     18  C   UNL     1      -1.188  -8.922  -2.410  0.00  0.00    +0.043 C 
BRANCH  18  19
ATOM     19  N   UNL     1      -1.792  -9.446  -3.637  0.00  0.00    -0.241 N 
ATOM     20  C   UNL     1      -3.084  -9.262  -3.986  0.00  0.00    +0.245 C 
ATOM     21  O   UNL     1      -3.933  -8.656  -3.368  0.00  0.00    -0.273 OA
ATOM     22  C   UNL     1      -3.244  -9.970  -5.306  0.00  0.00    +0.112 C 
ATOM     23  C   UNL     1      -3.681  -8.994  -6.407  0.00  0.00    +0.035 C 
ATOM     24  C   UNL     1      -4.620  -9.839  -7.306  0.00  0.00    +0.003 C 
ATOM     25  C   UNL     1      -5.373 -10.726  -6.282  0.00  0.00    +0.003 C 
ATOM     26  C   UNL     1      -4.304 -11.072  -5.221  0.00  0.00    +0.035 C 
ATOM     27  N   UNL     1      -1.918 -10.525  -5.588  0.00  0.00    -0.285 N 
ATOM     28  C   UNL     1      -1.131 -10.162  -4.556  0.00  0.00    +0.308 C 
ATOM     29  O   UNL     1       0.045 -10.454  -4.467  0.00  0.00    -0.252 OA
ATOM     30  H   UNL     1      -1.658 -11.047  -6.363  0.00  0.00    +0.151 HD
ENDBRANCH  18  19
ENDBRANCH   4  18
TORSDOF 5
