REMARK  Name = ZINC27901920
REMARK  10 active torsions:
REMARK  status: ('A' for Active; 'I' for Inactive)
REMARK    1  A    between atoms: C_1  and  C_2
REMARK    2  A    between atoms: C_4  and  C_27
REMARK    3  A    between atoms: C_6  and  N_8
REMARK    4  A    between atoms: C_9  and  C_11
REMARK    5  A    between atoms: C_11  and  C_13
REMARK    6  A    between atoms: C_11  and  N_14
REMARK    7  A    between atoms: N_17  and  C_20
REMARK    8  A    between atoms: C_20  and  C_21
REMARK    9  A    between atoms: N_23  and  C_24
REMARK   10  A    between atoms: C_24  and  C_25
REMARK                            x       y       z     vdW  Elec       q    Type
REMARK                         _______ _______ _______ _____ _____    ______ ____
ROOT
ATOM      1  N   UNL     1      -2.309  -0.544   0.055  0.00  0.00    -0.295 NA
ATOM      2  C   UNL     1      -2.027  -0.903  -1.341  0.00  0.00    +0.066 C 
ATOM      3  C   UNL     1      -2.812  -2.165  -1.709  0.00  0.00    -0.063 C 
ATOM      4  N   UNL     1      -4.247  -1.921  -1.510  0.00  0.00    +0.387 N 
ATOM      5  C   UNL     1      -4.529  -1.562  -0.113  0.00  0.00    -0.063 C 
ATOM      6  C   UNL     1      -3.744  -0.300   0.255  0.00  0.00    +0.066 C 
ATOM      7  H   UNL     1      -4.539  -1.071  -2.144  0.00  0.00    -0.081 HD
ENDROOT
BRANCH   1   8
ATOM      8  C   UNL     1      -1.515   0.621   0.470  0.00  0.00    +0.140 C 
ATOM      9  C   UNL     1      -1.835   1.807  -0.442  0.00  0.00    +0.034 C 
BRANCH   8  11
ATOM     10  N   UNL     1       0.875   1.216   0.693  0.00  0.00    -0.284 N 
ATOM     11  C   UNL     1      -0.048   0.290   0.367  0.00  0.00    +0.234 C 
ATOM     12  O   UNL     1       0.302  -0.807  -0.013  0.00  0.00    -0.274 OA
ATOM     13  H   UNL     1       0.562   2.237   0.956  0.00  0.00    +0.155 HD
BRANCH  10  19
ATOM     14  C   UNL     1       5.562   2.519  -0.020  0.00  0.00    +0.044 C 
ATOM     15  C   UNL     1       4.527   1.491   0.356  0.00  0.00    -0.048 A 
ATOM     16  C   UNL     1       4.919   0.212   0.706  0.00  0.00    +0.006 A 
ATOM     17  C   UNL     1       3.972  -0.735   1.052  0.00  0.00    -0.048 A 
ATOM     18  C   UNL     1       2.631  -0.405   1.049  0.00  0.00    +0.026 A 
ATOM     19  C   UNL     1       2.233   0.879   0.698  0.00  0.00    +0.034 A 
ATOM     20  C   UNL     1       3.187   1.825   0.345  0.00  0.00    +0.026 A 
ATOM     21  C   UNL     1       4.403  -2.127   1.433  0.00  0.00    +0.044 C 
ENDBRANCH  10  19
ENDBRANCH   8  11
ENDBRANCH   1   8
BRANCH   4  22
ATOM     22  C   UNL     1      -5.042  -3.086  -1.924  0.00  0.00    +0.019 C 
BRANCH  22  23
ATOM     23  C   UNL     1      -6.502  -2.715  -1.947  0.00  0.00    +0.197 C 
ATOM     24  O   UNL     1      -6.840  -1.566  -1.753  0.00  0.00    -0.278 OA
ATOM     25  N   UNL     1      -7.434  -3.661  -2.182  0.00  0.00    -0.313 N 
ATOM     26  H   UNL     1      -7.128  -4.702  -2.357  0.00  0.00    +0.149 HD
BRANCH  25  27
ATOM     27  C   UNL     1      -8.853  -3.301  -2.204  0.00  0.00    +0.131 C 
BRANCH  27  28
ATOM     28  C   UNL     1      -9.679  -4.529  -2.485  0.00  0.00    -0.016 C 
ATOM     29  C   UNL     1     -10.638  -4.877  -1.663  0.00  0.00    +0.005 C 
ENDBRANCH  27  28
ENDBRANCH  25  27
ENDBRANCH  22  23
ENDBRANCH   4  22
TORSDOF 7
