REMARK  Name = ZINC20181386
REMARK  8 active torsions:
REMARK  status: ('A' for Active; 'I' for Inactive)
REMARK    1  A    between atoms: C_1  and  C_2
REMARK    2  A    between atoms: N_8  and  C_9
REMARK    3  A    between atoms: C_9  and  C_10
REMARK    4  A    between atoms: C_10  and  C_11
REMARK    5  A    between atoms: C_11  and  N_12
REMARK    6  A    between atoms: C_13  and  C_15
REMARK    7  A    between atoms: C_15  and  N_16
REMARK    8  A    between atoms: C_25  and  C_26
REMARK                            x       y       z     vdW  Elec       q    Type
REMARK                         _______ _______ _______ _____ _____    ______ ____
ROOT
ATOM      1  N   UNL     1       3.859   1.327   0.375  0.00  0.00    -0.257 N 
ATOM      2  C   UNL     1       4.176   1.652  -0.938  0.00  0.00    +0.051 A 
ATOM      3  C   UNL     1       3.329   1.216  -1.955  0.00  0.00    +0.024 A 
ATOM      4  C   UNL     1       3.604   1.518  -3.273  0.00  0.00    +0.002 A 
ATOM      5  C   UNL     1       4.725   2.258  -3.604  0.00  0.00    +0.001 A 
ATOM      6  C   UNL     1       5.568   2.704  -2.610  0.00  0.00    +0.017 A 
ATOM      7  C   UNL     1       5.301   2.401  -1.285  0.00  0.00    +0.034 A 
ATOM      8  S   UNL     1       6.395   2.959  -0.013  0.00  0.00    -0.082 S 
ATOM      9  C   UNL     1       5.304   3.022   1.385  0.00  0.00    +0.076 C 
ATOM     10  C   UNL     1       5.386   4.004   2.314  0.00  0.00    +0.028 C 
ATOM     11  C   UNL     1       4.301   1.938   1.477  0.00  0.00    +0.258 C 
ATOM     12  O   UNL     1       3.876   1.600   2.566  0.00  0.00    -0.269 OA
ENDROOT
BRANCH  10  13
ATOM     13  C   UNL     1       4.346   4.128   3.346  0.00  0.00    -0.024 A 
ATOM     14  C   UNL     1       3.011   3.843   3.037  0.00  0.00    +0.009 A 
ATOM     15  C   UNL     1       2.043   3.955   4.011  0.00  0.00    +0.020 A 
ATOM     16  C   UNL     1       2.386   4.361   5.290  0.00  0.00    +0.041 A 
ATOM     17  C   UNL     1       3.704   4.651   5.602  0.00  0.00    +0.020 A 
ATOM     18  C   UNL     1       4.685   4.537   4.640  0.00  0.00    +0.009 A 
ATOM     19 CL   UNL     1       1.158   4.507   6.509  0.00  0.00    -0.084 Cl
ENDBRANCH  10  13
BRANCH   1  20
ATOM     20  C   UNL     1       2.951   0.194   0.570  0.00  0.00    +0.209 C 
BRANCH  20  22
ATOM     21  N   UNL     1       0.514  -0.183   0.762  0.00  0.00    -0.314 N 
ATOM     22  C   UNL     1       1.528   0.689   0.593  0.00  0.00    +0.231 C 
ATOM     23  O   UNL     1       1.295   1.871   0.460  0.00  0.00    -0.274 OA
ATOM     24  H   UNL     1       0.726  -1.255   0.888  0.00  0.00    +0.149 HD
BRANCH  21  25
ATOM     25  C   UNL     1      -0.870   0.297   0.779  0.00  0.00    +0.102 C 
BRANCH  25  26
ATOM     26  C   UNL     1      -1.819  -0.887   0.977  0.00  0.00    +0.000 C 
BRANCH  26  27
ATOM     27  C   UNL     1      -3.264  -0.385   0.995  0.00  0.00    -0.077 C 
BRANCH  27  34
ATOM     28  C   UNL     1      -4.148  -1.846  -1.241  0.00  0.00    -0.013 C 
ATOM     29  C   UNL     1      -3.998  -2.521   0.124  0.00  0.00    -0.072 C 
ATOM     30  C   UNL     1      -5.058  -3.615   0.271  0.00  0.00    -0.016 C 
ATOM     31  C   UNL     1      -4.917  -4.274   1.646  0.00  0.00    -0.003 C 
ATOM     32  C   UNL     1      -5.056  -3.204   2.732  0.00  0.00    -0.019 C 
ATOM     33  C   UNL     1      -3.997  -2.121   2.514  0.00  0.00    -0.078 C 
ATOM     34  N   UNL     1      -4.175  -1.522   1.185  0.00  0.00    +0.381 N 
ATOM     35  H   UNL     1      -5.206  -1.145   1.123  0.00  0.00    -0.081 HD
ENDBRANCH  27  34
ENDBRANCH  26  27
ENDBRANCH  25  26
ENDBRANCH  21  25
ENDBRANCH  20  22
ENDBRANCH   1  20
TORSDOF 7
