REMARK  Name = ZINC40917156
REMARK  6 active torsions:
REMARK  status: ('A' for Active; 'I' for Inactive)
REMARK    1  A    between atoms: C_1  and  O_2
REMARK    2  A    between atoms: O_2  and  C_3
REMARK    3  A    between atoms: C_5  and  C_19
REMARK    4  A    between atoms: C_8  and  O_9
REMARK    5  A    between atoms: O_9  and  C_10
REMARK    6  A    between atoms: C_10  and  C_11
REMARK                            x       y       z     vdW  Elec       q    Type
REMARK                         _______ _______ _______ _____ _____    ______ ____
ROOT
ATOM      1  C   UNL     1      -1.201  -0.638   0.010  0.00  0.00    +0.163 A 
ATOM      2  C   UNL     1      -2.374   0.100   0.019  0.00  0.00    +0.055 A 
ATOM      3  C   UNL     1      -3.597  -0.546   0.028  0.00  0.00    -0.014 A 
ATOM      4  C   UNL     1      -3.653  -1.927   0.028  0.00  0.00    +0.025 A 
ATOM      5  C   UNL     1      -2.486  -2.669   0.018  0.00  0.00    +0.063 A 
ATOM      6  C   UNL     1      -1.257  -2.028   0.003  0.00  0.00    +0.176 A 
ATOM      7 BR   UNL     1      -2.567  -4.559   0.019  0.00  0.00    -0.046 Br
ENDROOT
BRANCH   3   8
ATOM      8  C   UNL     1      -4.871   0.258   0.039  0.00  0.00    +0.177 C 
ATOM      9  C   UNL     1      -5.684  -0.072  -1.194  0.00  0.00    +0.041 C 
ATOM     10  C   UNL     1      -6.800  -0.831  -1.137  0.00  0.00    +0.020 C 
ATOM     11  C   UNL     1      -7.580  -1.158  -2.388  0.00  0.00    +0.052 C 
ATOM     12  C   UNL     1      -7.455  -0.007  -3.388  0.00  0.00    +0.014 C 
ATOM     13  C   UNL     1      -5.970   0.199  -3.702  0.00  0.00    +0.080 C 
ATOM     14  C   UNL     1      -5.229   0.449  -2.418  0.00  0.00    +0.163 C 
ATOM     15  O   UNL     1      -4.214   1.117  -2.438  0.00  0.00    -0.292 OA
ATOM     16  N   UNL     1      -7.278  -1.331   0.051  0.00  0.00    -0.286 N 
ATOM     17  C   UNL     1      -6.764  -0.815   1.228  0.00  0.00    +0.240 A 
ATOM     18  N   UNL     1      -5.635  -0.062   1.236  0.00  0.00    -0.201 N 
ATOM     19  N   UNL     1      -5.428   0.282   2.570  0.00  0.00    -0.042 NA
ATOM     20  N   UNL     1      -6.391  -0.261   3.243  0.00  0.00    -0.021 NA
ATOM     21  N   UNL     1      -7.176  -0.906   2.460  0.00  0.00    -0.092 NA
ATOM     22  H   UNL     1      -7.955  -2.026   0.065  0.00  0.00    +0.155 HD
ENDBRANCH   3   8
BRANCH   1  24
ATOM     23  C   UNL     1      -0.017   1.425   0.010  0.00  0.00    +0.277 C 
ATOM     24  O   UNL     1       0.002  -0.004   0.002  0.00  0.00    -0.491 OA
ENDBRANCH   1  24
BRANCH   6  25
ATOM     25  O   UNL     1      -0.108  -2.756  -0.012  0.00  0.00    -0.483 OA
BRANCH  25  26
ATOM     26  C   UNL     1       0.452  -3.110   1.254  0.00  0.00    +0.264 C 
BRANCH  26  27
ATOM     27  C   UNL     1       1.712  -3.909   1.040  0.00  0.00    -0.010 A 
ATOM     28  C   UNL     1       1.648  -5.286   0.938  0.00  0.00    +0.008 A 
ATOM     29  C   UNL     1       2.803  -6.019   0.742  0.00  0.00    +0.020 A 
ATOM     30  C   UNL     1       4.024  -5.374   0.648  0.00  0.00    +0.041 A 
ATOM     31  C   UNL     1       4.087  -3.996   0.751  0.00  0.00    +0.020 A 
ATOM     32  C   UNL     1       2.931  -3.264   0.942  0.00  0.00    +0.008 A 
ATOM     33 CL   UNL     1       5.475  -6.294   0.403  0.00  0.00    -0.084 Cl
ENDBRANCH  26  27
ENDBRANCH  25  26
ENDBRANCH   6  25
TORSDOF 5
