REMARK  Name = ZINC05145763
REMARK  5 active torsions:
REMARK  status: ('A' for Active; 'I' for Inactive)
REMARK    1  A    between atoms: C_1  and  O_2
REMARK    2  A    between atoms: O_2  and  C_3
REMARK    3  A    between atoms: C_6  and  C_8
REMARK    4  A    between atoms: C_12  and  N_13
REMARK    5  A    between atoms: C_14  and  C_16
REMARK                            x       y       z     vdW  Elec       q    Type
REMARK                         _______ _______ _______ _____ _____    ______ ____
ROOT
ATOM      1  C   UNL     1      -4.882   8.223  -0.114  0.00  0.00    +0.069 A 
ATOM      2  C   UNL     1      -4.649   9.657  -0.078  0.00  0.00    -0.023 A 
ATOM      3  C   UNL     1      -3.354  10.027   0.025  0.00  0.00    -0.004 A 
ATOM      4  S   UNL     1      -2.451   8.505   0.084  0.00  0.00    -0.077 S 
ATOM      5  C   UNL     1      -3.774   7.390  -0.028  0.00  0.00    +0.085 A 
ATOM      6  C   UNL     1      -2.815  11.423   0.077  0.00  0.00    +0.043 C 
ATOM      7  C   UNL     1      -3.920  12.385  -0.382  0.00  0.00    +0.005 C 
ATOM      8  C   UNL     1      -5.217  12.034   0.354  0.00  0.00    +0.005 C 
ATOM      9  C   UNL     1      -5.759  10.698  -0.157  0.00  0.00    +0.037 C 
ENDROOT
BRANCH   1  13
ATOM     10  C   UNL     1      -8.007   6.929  -1.557  0.00  0.00    +0.407 C 
ATOM     11  O   UNL     1      -8.656   6.694  -0.557  0.00  0.00    -0.226 OA
ATOM     12  N   UNL     1      -6.761   7.433  -1.449  0.00  0.00    -0.217 N 
ATOM     13  C   UNL     1      -6.236   7.676  -0.231  0.00  0.00    +0.255 C 
ATOM     14  O   UNL     1      -6.886   7.441   0.770  0.00  0.00    -0.270 OA
ATOM     15  H   UNL     1      -6.243   7.620  -2.247  0.00  0.00    +0.161 HD
BRANCH  10  17
ATOM     16  C   UNL     1      -9.878   6.144  -2.813  0.00  0.00    +0.282 C 
ATOM     17  O   UNL     1      -8.531   6.686  -2.772  0.00  0.00    -0.453 OA
ENDBRANCH  10  17
ENDBRANCH   1  13
BRANCH   5  18
ATOM     18  N   UNL     1      -3.734   6.006  -0.035  0.00  0.00    -0.275 N 
ATOM     19  C   UNL     1      -2.552   5.365   0.053  0.00  0.00    +0.249 C 
ATOM     20  O   UNL     1      -1.520   6.003   0.139  0.00  0.00    -0.270 OA
ATOM     21  H   UNL     1      -4.557   5.498  -0.103  0.00  0.00    +0.156 HD
BRANCH  19  22
ATOM     22  C   UNL     1      -2.510   3.892   0.045  0.00  0.00    +0.045 A 
ATOM     23  C   UNL     1      -3.683   3.149   0.068  0.00  0.00    +0.014 A 
ATOM     24  C   UNL     1      -3.640   1.762   0.062  0.00  0.00    +0.001 A 
ATOM     25  C   UNL     1      -2.463   1.079   0.032  0.00  0.00    +0.008 A 
ATOM     26  C   UNL     1      -1.237   1.766   0.001  0.00  0.00    -0.017 A 
ATOM     27  C   UNL     1      -1.233   3.183   0.013  0.00  0.00    -0.006 A 
ATOM     28  C   UNL     1      -0.013   3.871  -0.012  0.00  0.00    +0.009 A 
ATOM     29  C   UNL     1       1.155   3.170  -0.041  0.00  0.00    +0.001 A 
ATOM     30  C   UNL     1       1.154   1.777  -0.047  0.00  0.00    +0.001 A 
ATOM     31  C   UNL     1      -0.013   1.076  -0.024  0.00  0.00    +0.008 A 
ENDBRANCH  19  22
ENDBRANCH   5  18
TORSDOF 4
