REMARK  Name = ZINC05858293
REMARK  7 active torsions:
REMARK  status: ('A' for Active; 'I' for Inactive)
REMARK    1  A    between atoms: C_1  and  C_2
REMARK    2  A    between atoms: C_2  and  C_20
REMARK    3  A    between atoms: N_3  and  N_4
REMARK    4  A    between atoms: C_5  and  C_7
REMARK    5  A    between atoms: N_16  and  C_19
REMARK    6  A    between atoms: C_20  and  C_21
REMARK    7  A    between atoms: C_21  and  C_22
REMARK                            x       y       z     vdW  Elec       q    Type
REMARK                         _______ _______ _______ _____ _____    ______ ____
ROOT
ATOM      1  N   UNL     1      -0.017   1.397   0.010  0.00  0.00    -0.203 N 
ATOM      2  C   UNL     1       1.141   2.087   0.002  0.00  0.00    +0.270 C 
ATOM      3  O   UNL     1       2.204   1.492  -0.011  0.00  0.00    -0.268 OA
ATOM      4  H   UNL     1      -0.864   1.870   0.016  0.00  0.00    +0.178 HD
ENDROOT
BRANCH   2   5
ATOM      5  C   UNL     1       1.121   3.549   0.010  0.00  0.00    +0.078 A 
ATOM      6  C   UNL     1       2.183   4.426   0.011  0.00  0.00    +0.031 A 
ATOM      7  C   UNL     1       1.937   5.801   0.014  0.00  0.00    +0.016 A 
ATOM      8  C   UNL     1       2.697   7.083   0.014  0.00  0.00    +0.008 A 
ATOM      9  C   UNL     1       4.058   7.373   0.002  0.00  0.00    +0.010 A 
ATOM     10  C   UNL     1       4.474   8.688   0.005  0.00  0.00    +0.001 A 
ATOM     11  C   UNL     1       3.542   9.715   0.021  0.00  0.00    +0.002 A 
ATOM     12  C   UNL     1       2.191   9.438   0.032  0.00  0.00    +0.026 A 
ATOM     13  C   UNL     1       1.754   8.117   0.029  0.00  0.00    +0.050 A 
ATOM     14  N   UNL     1       0.493   7.547   0.038  0.00  0.00    -0.337 N 
ATOM     15  C   UNL     1       0.595   6.191   0.030  0.00  0.00    +0.089 A 
ATOM     16  S   UNL     1      -0.285   4.647   0.030  0.00  0.00    -0.066 S 
ATOM     17  C   UNL     1      -0.767   8.295   0.054  0.00  0.00    +0.150 C 
ENDBRANCH   2   5
BRANCH   1  20
ATOM     18  C   UNL     1      -2.413   0.076   0.025  0.00  0.00    +0.062 C 
ATOM     19  C   UNL     1      -1.098  -0.659   0.009  0.00  0.00    +0.034 C 
ATOM     20  N   UNL     1       0.002  -0.004   0.002  0.00  0.00    -0.189 NA
BRANCH  19  21
ATOM     21  C   UNL     1      -1.077  -2.166   0.001  0.00  0.00    +0.057 C 
BRANCH  21  22
ATOM     22  C   UNL     1      -1.667  -2.691   1.311  0.00  0.00    +0.041 C 
BRANCH  22  23
ATOM     23  C   UNL     1      -1.647  -4.198   1.303  0.00  0.00    -0.043 A 
ATOM     24  C   UNL     1      -2.731  -4.900   0.808  0.00  0.00    +0.007 A 
ATOM     25  C   UNL     1      -2.714  -6.282   0.793  0.00  0.00    +0.050 A 
ATOM     26  C   UNL     1      -1.616  -6.968   1.286  0.00  0.00    +0.166 A 
ATOM     27  C   UNL     1      -0.526  -6.261   1.789  0.00  0.00    +0.166 A 
ATOM     28  C   UNL     1      -0.547  -4.876   1.795  0.00  0.00    +0.053 A 
ATOM     29  O   UNL     1       0.417  -7.154   2.208  0.00  0.00    -0.453 OA
ATOM     30  C   UNL     1      -0.273  -8.412   2.333  0.00  0.00    +0.466 C 
ATOM     31  O   UNL     1      -1.355  -8.304   1.389  0.00  0.00    -0.453 OA
ENDBRANCH  22  23
ENDBRANCH  21  22
ENDBRANCH  19  21
ENDBRANCH   1  20
TORSDOF 5
