REMARK  Name = ZINC16846039
REMARK  4 active torsions:
REMARK  status: ('A' for Active; 'I' for Inactive)
REMARK    1  A    between atoms: C_4  and  C_7
REMARK    2  A    between atoms: C_7  and  C_9
REMARK    3  A    between atoms: C_9  and  S_10
REMARK    4  A    between atoms: S_10  and  C_11
REMARK                            x       y       z     vdW  Elec       q    Type
REMARK                         _______ _______ _______ _____ _____    ______ ____
ROOT
ATOM      1  C   UNL     1       3.639  -4.602  -1.139  0.00  0.00    +0.199 A 
ATOM      2  N   UNL     1       4.395  -3.555  -1.379  0.00  0.00    -0.122 NA
ATOM      3  N   UNL     1       3.734  -2.469  -1.172  0.00  0.00    -0.128 NA
ATOM      4  C   UNL     1       2.516  -2.760  -0.788  0.00  0.00    +0.174 A 
ATOM      5  N   UNL     1       2.412  -4.135  -0.754  0.00  0.00    -0.241 N 
ATOM      6  C   UNL     1       1.238  -4.733  -0.384  0.00  0.00    +0.202 A 
ATOM      7  N   UNL     1       0.185  -4.023  -0.053  0.00  0.00    -0.208 NA
ATOM      8  C   UNL     1       0.198  -2.691  -0.059  0.00  0.00    +0.116 A 
ATOM      9  C   UNL     1       1.333  -1.956  -0.416  0.00  0.00    +0.056 A 
ATOM     10  C   UNL     1       1.197  -0.494  -0.375  0.00  0.00    -0.024 A 
ATOM     11  C   UNL     1       0.002  -0.004   0.002  0.00  0.00    -0.004 A 
ATOM     12  S   UNL     1      -1.000  -1.438   0.317  0.00  0.00    -0.073 S 
ATOM     13  C   UNL     1      -0.018   1.501   0.010  0.00  0.00    +0.043 C 
ATOM     14  C   UNL     1       1.471   1.909  -0.002  0.00  0.00    +0.010 C 
ATOM     15  C   UNL     1       2.126   0.686  -0.675  0.00  0.00    +0.037 C 
ATOM     16  N   UNL     1       1.161  -6.106  -0.357  0.00  0.00    -0.328 N 
ATOM     17  H   UNL     1       1.933  -6.640  -0.599  0.00  0.00    +0.145 HD
ATOM     18  H   UNL     1       0.334  -6.540  -0.096  0.00  0.00    +0.145 HD
ENDROOT
BRANCH   1  19
ATOM     19  S   UNL     1       4.116  -6.291  -1.287  0.00  0.00    -0.078 S 
BRANCH  19  20
ATOM     20  C   UNL     1       5.845  -6.214  -1.832  0.00  0.00    +0.157 C 
BRANCH  20  21
ATOM     21  C   UNL     1       6.382  -7.612  -1.999  0.00  0.00    +0.173 C 
ATOM     22  O   UNL     1       5.669  -8.566  -1.773  0.00  0.00    -0.291 OA
BRANCH  21  26
ATOM     23  C   UNL     1      10.388  -8.208  -3.259  0.00  0.00    +0.000 A 
ATOM     24  C   UNL     1       9.577  -9.300  -3.003  0.00  0.00    +0.001 A 
ATOM     25  C   UNL     1       8.274  -9.114  -2.593  0.00  0.00    +0.011 A 
ATOM     26  C   UNL     1       7.772  -7.819  -2.436  0.00  0.00    +0.018 A 
ATOM     27  C   UNL     1       8.595  -6.720  -2.703  0.00  0.00    +0.011 A 
ATOM     28  C   UNL     1       9.898  -6.922  -3.106  0.00  0.00    +0.001 A 
ENDBRANCH  21  26
ENDBRANCH  20  21
ENDBRANCH  19  20
ENDBRANCH   1  19
TORSDOF 4
