REMARK  Name = ZINC45605951
REMARK  7 active torsions:
REMARK  status: ('A' for Active; 'I' for Inactive)
REMARK    1  A    between atoms: C_4  and  C_7
REMARK    2  A    between atoms: C_7  and  C_8
REMARK    3  A    between atoms: C_7  and  N_14
REMARK    4  A    between atoms: N_14  and  C_15
REMARK    5  A    between atoms: C_15  and  C_16
REMARK    6  A    between atoms: C_25  and  S_27
REMARK    7  A    between atoms: S_27  and  N_30
REMARK                            x       y       z     vdW  Elec       q    Type
REMARK                         _______ _______ _______ _____ _____    ______ ____
ROOT
ATOM      1  C   UNL     1       4.925  -2.515  -1.043  0.00  0.00    +0.017 C 
ENDROOT
BRANCH   1   2
ATOM      2  C   UNL     1       4.823  -3.706  -1.961  0.00  0.00    +0.203 C 
ATOM      3  O   UNL     1       3.760  -3.987  -2.473  0.00  0.00    -0.277 OA
ATOM      4  N   UNL     1       5.912  -4.458  -2.214  0.00  0.00    -0.272 N 
ATOM      5  C   UNL     1       7.244  -4.222  -1.651  0.00  0.00    +0.118 C 
ATOM      6  C   UNL     1       8.131  -5.335  -2.234  0.00  0.00    +0.056 C 
ATOM      7  C   UNL     1       7.201  -6.142  -3.111  0.00  0.00    -0.023 A 
ATOM      8  C   UNL     1       5.935  -5.581  -3.046  0.00  0.00    +0.040 A 
ATOM      9  C   UNL     1       4.898  -6.164  -3.776  0.00  0.00    +0.026 A 
ATOM     10  C   UNL     1       5.132  -7.283  -4.546  0.00  0.00    +0.030 A 
ATOM     11  C   UNL     1       6.397  -7.838  -4.601  0.00  0.00    +0.105 A 
ATOM     12  C   UNL     1       7.432  -7.261  -3.888  0.00  0.00    +0.034 A 
BRANCH  11  13
ATOM     13  S   UNL     1       6.693  -9.269  -5.586  0.00  0.00    +0.056 S 
ATOM     14  O   UNL     1       7.835  -9.911  -5.036  0.00  0.00    -0.153 OA
ATOM     15  O   UNL     1       5.442  -9.928  -5.728  0.00  0.00    -0.153 OA
BRANCH  13  16
ATOM     16  N   UNL     1       7.126  -8.743  -7.095  0.00  0.00    -0.204 NA
ATOM     17  H   UNL     1       7.725  -9.276  -7.641  0.00  0.00    +0.144 HD
ATOM     18  H   UNL     1       6.780  -7.902  -7.434  0.00  0.00    +0.144 HD
ENDBRANCH  13  16
ENDBRANCH  11  13
ENDBRANCH   1   2
BRANCH   1  19
ATOM     19  N   UNL     1       3.611  -1.868  -0.933  0.00  0.00    +0.392 N 
ATOM     20  H   UNL     1       2.943  -2.525  -0.558  0.00  0.00    -0.084 HD
ATOM     21  H   UNL     1       3.308  -1.563  -1.846  0.00  0.00    -0.084 HD
BRANCH  19  22
ATOM     22  C   UNL     1       3.711  -0.707  -0.038  0.00  0.00    -0.009 C 
BRANCH  22  26
ATOM     23  C   UNL     1      -0.017   1.378   0.010  0.00  0.00    +0.000 A 
ATOM     24  C   UNL     1       1.171   2.086   0.002  0.00  0.00    +0.000 A 
ATOM     25  C   UNL     1       2.377   1.411  -0.013  0.00  0.00    +0.002 A 
ATOM     26  C   UNL     1       2.396   0.029  -0.020  0.00  0.00    -0.057 A 
ATOM     27  C   UNL     1       1.208  -0.679  -0.012  0.00  0.00    +0.002 A 
ATOM     28  C   UNL     1       0.002  -0.004   0.002  0.00  0.00    +0.000 A 
ENDBRANCH  22  26
BRANCH  22  29
ATOM     29  C   UNL     1       4.044  -1.175   1.356  0.00  0.00    -0.057 A 
ATOM     30  C   UNL     1       3.455  -2.320   1.860  0.00  0.00    +0.002 A 
ATOM     31  C   UNL     1       3.760  -2.748   3.138  0.00  0.00    +0.000 A 
ATOM     32  C   UNL     1       4.654  -2.033   3.912  0.00  0.00    +0.000 A 
ATOM     33  C   UNL     1       5.243  -0.888   3.408  0.00  0.00    +0.000 A 
ATOM     34  C   UNL     1       4.941  -0.462   2.128  0.00  0.00    +0.002 A 
ENDBRANCH  22  29
ENDBRANCH  19  22
ENDBRANCH   1  19
TORSDOF 7
