REMARK  Name = ZINC21416802
REMARK  6 active torsions:
REMARK  status: ('A' for Active; 'I' for Inactive)
REMARK    1  A    between atoms: C_6  and  C_7
REMARK    2  A    between atoms: C_7  and  O_9
REMARK    3  A    between atoms: O_9  and  C_10
REMARK    4  A    between atoms: C_10  and  C_11
REMARK    5  A    between atoms: N_13  and  C_14
REMARK    6  A    between atoms: C_15  and  C_22
REMARK                            x       y       z     vdW  Elec       q    Type
REMARK                         _______ _______ _______ _____ _____    ______ ____
ROOT
ATOM      1  C   UNL     1       3.554   2.060  -0.021  0.00  0.00    +0.255 C 
ATOM      2  O   UNL     1       3.379   3.260  -0.013  0.00  0.00    -0.272 OA
ATOM      3  N   UNL     1       4.806   1.562  -0.035  0.00  0.00    -0.277 N 
ATOM      4  H   UNL     1       4.965   0.474  -0.043  0.00  0.00    +0.155 HD
ENDROOT
BRANCH   3   5
ATOM      5  C   UNL     1       5.894   2.422  -0.041  0.00  0.00    +0.084 A 
ATOM      6  C   UNL     1       7.242   2.104  -0.050  0.00  0.00    +0.068 A 
ATOM      7  C   UNL     1       8.198   3.210  -0.059  0.00  0.00    -0.023 A 
ATOM      8  C   UNL     1       7.651   4.439  -0.047  0.00  0.00    -0.004 A 
ATOM      9  S   UNL     1       5.898   4.152  -0.031  0.00  0.00    -0.077 S 
ATOM     10  C   UNL     1       8.695   5.522  -0.054  0.00  0.00    +0.043 C 
ATOM     11  C   UNL     1       9.989   4.812  -0.509  0.00  0.00    +0.010 C 
ATOM     12  C   UNL     1       9.720   3.358  -0.071  0.00  0.00    +0.037 C 
BRANCH   6  13
ATOM     13  C   UNL     1       7.693   0.709  -0.055  0.00  0.00    +0.244 C 
ATOM     14  O   UNL     1       7.874   0.132  -1.111  0.00  0.00    -0.270 OA
ATOM     15  N   UNL     1       7.908   0.066   1.110  0.00  0.00    -0.325 N 
ATOM     16  H   UNL     1       8.246  -0.980   1.107  0.00  0.00    +0.145 HD
ATOM     17  H   UNL     1       7.744   0.588   2.064  0.00  0.00    +0.145 HD
ENDBRANCH   6  13
ENDBRANCH   3   5
BRANCH   1  18
ATOM     18  C   UNL     1       2.372   1.126  -0.015  0.00  0.00    +0.328 C 
BRANCH  18  19
ATOM     19  O   UNL     1       1.143   1.900   0.001  0.00  0.00    -0.452 OA
BRANCH  19  20
ATOM     20  C   UNL     1      -0.014   1.211   0.009  0.00  0.00    +0.340 C 
ATOM     21  O   UNL     1       0.002  -0.004   0.002  0.00  0.00    -0.245 OA
BRANCH  20  27
ATOM     22  C   UNL     1      -1.322   3.328   0.032  0.00  0.00    +0.019 A 
ATOM     23  C   UNL     1      -2.525   4.001   0.037  0.00  0.00    +0.050 A 
ATOM     24  C   UNL     1      -3.716   3.290   0.038  0.00  0.00    +0.162 A 
ATOM     25  C   UNL     1      -3.703   1.899   0.030  0.00  0.00    +0.163 A 
ATOM     26  C   UNL     1      -2.504   1.216   0.021  0.00  0.00    +0.064 A 
ATOM     27  C   UNL     1      -1.301   1.931   0.019  0.00  0.00    +0.063 A 
ATOM     28  O   UNL     1      -4.884   1.214   0.030  0.00  0.00    -0.488 OA
ATOM     29  C   UNL     1      -5.658   1.304   1.228  0.00  0.00    +0.232 C 
ATOM     30  C   UNL     1      -6.515   2.560   1.222  0.00  0.00    +0.082 C 
ATOM     31  C   UNL     1      -5.680   3.831   1.244  0.00  0.00    +0.232 C 
ATOM     32  O   UNL     1      -4.908   3.951   0.048  0.00  0.00    -0.488 OA
ENDBRANCH  20  27
ENDBRANCH  19  20
ENDBRANCH  18  19
ENDBRANCH   1  18
TORSDOF 6
