REMARK  Name = ZINC39736827
REMARK  7 active torsions:
REMARK  status: ('A' for Active; 'I' for Inactive)
REMARK    1  A    between atoms: C_1  and  C_2
REMARK    2  A    between atoms: C_2  and  C_4
REMARK    3  A    between atoms: C_2  and  S_19
REMARK    4  A    between atoms: C_9  and  C_14
REMARK    5  A    between atoms: S_19  and  C_20
REMARK    6  A    between atoms: N_25  and  C_26
REMARK    7  A    between atoms: C_26  and  C_27
REMARK                            x       y       z     vdW  Elec       q    Type
REMARK                         _______ _______ _______ _____ _____    ______ ____
ROOT
ATOM      1  S   UNL     1      -1.958  -1.012   0.148  0.00  0.00    -0.107 S 
ENDROOT
BRANCH   1   2
ATOM      2  C   UNL     1      -2.508  -0.169   1.657  0.00  0.00    +0.236 C 
ATOM      3  N   UNL     1      -2.226   1.275   1.575  0.00  0.00    -0.259 N 
ATOM      4  N   UNL     1      -1.346   1.559   2.627  0.00  0.00    -0.283 N 
ATOM      5  C   UNL     1      -1.070   0.502   3.311  0.00  0.00    +0.178 C 
ATOM      6  N   UNL     1      -1.723  -0.621   2.817  0.00  0.00    -0.268 N 
ATOM      7  N   UNL     1      -0.224   0.486   4.411  0.00  0.00    -0.304 N 
ATOM      8  C   UNL     1       0.209  -0.713   5.143  0.00  0.00    +0.108 C 
ATOM      9  C   UNL     1       1.118  -0.242   6.298  0.00  0.00    +0.020 C 
ATOM     10  C   UNL     1       0.692   1.237   6.495  0.00  0.00    +0.020 C 
ATOM     11  C   UNL     1       0.396   1.670   5.035  0.00  0.00    +0.108 C 
ATOM     12  H   UNL     1      -2.578   1.902   0.924  0.00  0.00    +0.169 HD
ATOM     13  H   UNL     1      -0.988   2.441   2.816  0.00  0.00    +0.187 HD
BRANCH   6  14
ATOM     14  C   UNL     1      -1.646  -1.986   3.345  0.00  0.00    +0.184 C 
BRANCH  14  15
ATOM     15  C   UNL     1      -2.805  -2.230   4.277  0.00  0.00    +0.122 A 
ATOM     16  C   UNL     1      -3.990  -2.767   3.935  0.00  0.00    +0.046 A 
ATOM     17  C   UNL     1      -4.774  -2.812   5.110  0.00  0.00    +0.041 A 
ATOM     18  C   UNL     1      -4.021  -2.299   6.101  0.00  0.00    +0.195 A 
ATOM     19  O   UNL     1      -2.828  -1.954   5.591  0.00  0.00    -0.466 OA
ENDBRANCH  14  15
ENDBRANCH   6  14
ENDBRANCH   1   2
BRANCH   1  21
ATOM     20  C   UNL     1      -0.042   0.911  -0.192  0.00  0.00    +0.027 C 
ATOM     21  C   UNL     1      -0.196  -0.595   0.031  0.00  0.00    +0.112 C 
BRANCH  21  22
ATOM     22  C   UNL     1       0.420  -1.339  -1.126  0.00  0.00    +0.136 C 
ATOM     23  N   UNL     1      -0.316  -2.204  -1.787  0.00  0.00    -0.160 NA
ATOM     24  C   UNL     1       0.166  -2.897  -2.822  0.00  0.00    +0.272 C 
ATOM     25  O   UNL     1      -0.537  -3.696  -3.421  0.00  0.00    -0.268 OA
ATOM     26  C   UNL     1       1.581  -2.673  -3.227  0.00  0.00    +0.078 C 
ATOM     27  C   UNL     1       2.266  -3.287  -4.267  0.00  0.00    +0.020 C 
ATOM     28  C   UNL     1       3.707  -2.873  -4.465  0.00  0.00    +0.115 C 
ATOM     29  S   UNL     1       3.913  -1.637  -3.121  0.00  0.00    -0.100 S 
ATOM     30  C   UNL     1       2.275  -1.716  -2.439  0.00  0.00    +0.112 C 
ATOM     31  N   UNL     1       1.680  -1.094  -1.442  0.00  0.00    -0.226 NA
BRANCH  27  32
ATOM     32  C   UNL     1       1.654  -4.241  -5.089  0.00  0.00    +0.132 A 
ATOM     33  C   UNL     1       1.404  -4.112  -6.450  0.00  0.00    +0.049 A 
ATOM     34  C   UNL     1       0.785  -5.297  -6.854  0.00  0.00    +0.042 A 
ATOM     35  C   UNL     1       0.678  -6.089  -5.758  0.00  0.00    +0.195 A 
ATOM     36  O   UNL     1       1.205  -5.456  -4.704  0.00  0.00    -0.463 OA
ENDBRANCH  27  32
ENDBRANCH  21  22
ENDBRANCH   1  21
TORSDOF 6
