REMARK  Name = ZINC39914647
REMARK  13 active torsions:
REMARK  status: ('A' for Active; 'I' for Inactive)
REMARK    1  A    between atoms: C_1  and  C_2
REMARK    2  A    between atoms: C_2  and  C_3
REMARK    3  A    between atoms: C_3  and  C_4
REMARK    4  A    between atoms: C_4  and  C_5
REMARK    5  A    between atoms: C_5  and  C_6
REMARK    6  A    between atoms: C_6  and  O_7
REMARK    7  A    between atoms: O_7  and  C_8
REMARK    8  A    between atoms: C_11  and  C_14
REMARK    9  A    between atoms: C_17  and  C_31
REMARK   10  A    between atoms: N_24  and  C_25
REMARK   11  A    between atoms: C_25  and  C_26
REMARK   12  A    between atoms: C_34  and  C_38
REMARK   13  A    between atoms: C_36  and  O_37
REMARK                            x       y       z     vdW  Elec       q    Type
REMARK                         _______ _______ _______ _____ _____    ______ ____
ROOT
ATOM      1  C   UNL     1      -5.051  -9.782   0.170  0.00  0.00    +0.142 C 
ATOM      2  C   UNL     1      -5.124 -10.531   1.473  0.00  0.00    +0.035 A 
ATOM      3  C   UNL     1      -4.508 -10.844   2.689  0.00  0.00    +0.102 A 
ATOM      4  N   UNL     1      -5.316 -11.655   3.343  0.00  0.00    -0.173 NA
ATOM      5  N   UNL     1      -6.381 -11.884   2.661  0.00  0.00    -0.272 N 
ATOM      6  H   UNL     1      -7.114 -12.452   2.946  0.00  0.00    +0.189 HD
ATOM      7  C   UNL     1      -6.327 -11.210   1.474  0.00  0.00    +0.126 A 
ATOM      8  C   UNL     1      -7.027 -10.921   0.217  0.00  0.00    +0.266 C 
ATOM      9  O   UNL     1      -8.116 -11.369  -0.089  0.00  0.00    -0.268 OA
ATOM     10  N   UNL     1      -6.293 -10.093  -0.549  0.00  0.00    -0.278 N 
ENDROOT
BRANCH   3  11
ATOM     11  C   UNL     1      -3.187 -10.355   3.156  0.00  0.00    +0.045 A 
ATOM     12  C   UNL     1      -2.381  -9.599   2.308  0.00  0.00    +0.034 A 
ATOM     13  C   UNL     1      -1.153  -9.146   2.748  0.00  0.00    +0.045 A 
ATOM     14  C   UNL     1      -0.720  -9.441   4.030  0.00  0.00    -0.029 A 
ATOM     15  C   UNL     1      -1.512 -10.191   4.878  0.00  0.00    +0.050 A 
ATOM     16  C   UNL     1      -2.749 -10.646   4.451  0.00  0.00    +0.126 A 
ATOM     17  C   UNL     1       0.622  -8.943   4.502  0.00  0.00    +0.045 C 
ATOM     18 CL   UNL     1      -0.148  -8.205   1.690  0.00  0.00    -0.083 Cl
BRANCH  16  19
ATOM     19  O   UNL     1      -3.532 -11.377   5.287  0.00  0.00    -0.506 OA
ATOM     20  H   UNL     1      -3.379 -12.331   5.234  0.00  0.00    +0.292 HD
ENDBRANCH  16  19
ENDBRANCH   3  11
BRANCH   1  24
ATOM     21  C   UNL     1      -4.785  -5.580   0.901  0.00  0.00    +0.121 A 
ATOM     22  C   UNL     1      -5.957  -6.264   1.194  0.00  0.00    +0.046 A 
ATOM     23  C   UNL     1      -6.040  -7.622   0.956  0.00  0.00    +0.009 A 
ATOM     24  C   UNL     1      -4.957  -8.300   0.427  0.00  0.00    -0.022 A 
ATOM     25  C   UNL     1      -3.789  -7.622   0.135  0.00  0.00    +0.009 A 
ATOM     26  C   UNL     1      -3.702  -6.262   0.365  0.00  0.00    +0.046 A 
BRANCH  21  27
ATOM     27  O   UNL     1      -4.701  -4.244   1.133  0.00  0.00    -0.492 OA
BRANCH  27  28
ATOM     28  C   UNL     1      -5.854  -3.607   1.686  0.00  0.00    +0.229 C 
BRANCH  28  29
ATOM     29  C   UNL     1      -5.572  -2.116   1.876  0.00  0.00    +0.041 C 
BRANCH  29  30
ATOM     30  C   UNL     1      -6.808  -1.434   2.468  0.00  0.00    +0.003 C 
BRANCH  30  31
ATOM     31  C   UNL     1      -6.525   0.058   2.658  0.00  0.00    -0.000 C 
BRANCH  31  33
ATOM     32  C   UNL     1      -7.478   2.231   3.439  0.00  0.00    +0.004 C 
ATOM     33  C   UNL     1      -7.761   0.739   3.250  0.00  0.00    -0.003 C 
ENDBRANCH  31  33
ENDBRANCH  30  31
ENDBRANCH  29  30
ENDBRANCH  28  29
ENDBRANCH  27  28
ENDBRANCH  21  27
ENDBRANCH   1  24
BRANCH  10  34
ATOM     34  C   UNL     1      -6.669  -9.587  -1.872  0.00  0.00    +0.183 C 
BRANCH  34  35
ATOM     35  C   UNL     1      -6.166 -10.532  -2.933  0.00  0.00    +0.122 A 
ATOM     36  C   UNL     1      -6.843 -11.579  -3.438  0.00  0.00    +0.046 A 
ATOM     37  C   UNL     1      -6.002 -12.185  -4.399  0.00  0.00    +0.041 A 
ATOM     38  C   UNL     1      -4.862 -11.472  -4.425  0.00  0.00    +0.195 A 
ATOM     39  O   UNL     1      -4.969 -10.468  -3.538  0.00  0.00    -0.466 OA
ENDBRANCH  34  35
ENDBRANCH  10  34
TORSDOF 11
