REMARK  Name = ZINC39490281
REMARK  12 active torsions:
REMARK  status: ('A' for Active; 'I' for Inactive)
REMARK    1  A    between atoms: C_1  and  C_2
REMARK    2  A    between atoms: C_4  and  C_22
REMARK    3  A    between atoms: N_10  and  C_11
REMARK    4  A    between atoms: C_11  and  C_12
REMARK    5  A    between atoms: C_12  and  C_13
REMARK    6  A    between atoms: C_12  and  C_14
REMARK    7  A    between atoms: C_16  and  C_20
REMARK    8  A    between atoms: C_16  and  C_21
REMARK    9  A    between atoms: C_22  and  C_23
REMARK   10  A    between atoms: N_25  and  C_26
REMARK   11  A    between atoms: C_26  and  C_28
REMARK   12  A    between atoms: C_26  and  C_29
REMARK                            x       y       z     vdW  Elec       q    Type
REMARK                         _______ _______ _______ _____ _____    ______ ____
ROOT
ATOM      1  C   UNL     1       0.797   1.806   0.136  0.00  0.00    -0.013 C 
ATOM      2  C   UNL     1       0.372   0.339   0.052  0.00  0.00    -0.067 C 
ATOM      3  C   UNL     1      -1.161   0.218   0.259  0.00  0.00    -0.007 C 
ATOM      4  C   UNL     1      -1.292  -0.591   1.548  0.00  0.00    +0.044 C 
ATOM      5  C   UNL     1       0.012  -1.439   1.513  0.00  0.00    -0.057 C 
ATOM      6  N   UNL     1       1.019  -0.443   1.147  0.00  0.00    +0.384 N 
ATOM      7  C   UNL     1       0.143  -2.125   2.852  0.00  0.00    -0.008 C 
ATOM      8  C   UNL     1      -0.985  -3.165   2.954  0.00  0.00    -0.030 C 
ATOM      9  C   UNL     1      -2.364  -2.518   2.833  0.00  0.00    +0.081 C 
ATOM     10  C   UNL     1      -2.429  -1.565   1.625  0.00  0.00    +0.136 C 
ATOM     11  O   UNL     1      -3.314  -1.592   0.803  0.00  0.00    -0.297 OA
ATOM     12  C   UNL     1      -0.817  -4.195   1.835  0.00  0.00    +0.011 C 
ATOM     13  C   UNL     1      -0.886  -3.878   4.304  0.00  0.00    +0.011 C 
ATOM     14  H   UNL     1       1.228   0.154   1.933  0.00  0.00    -0.081 HD
ENDROOT
BRANCH   6  15
ATOM     15  C   UNL     1       2.240  -1.099   0.659  0.00  0.00    -0.075 C 
BRANCH  15  16
ATOM     16  C   UNL     1       3.018  -1.674   1.844  0.00  0.00    -0.034 C 
ATOM     17  C   UNL     1       4.320  -2.302   1.342  0.00  0.00    +0.005 C 
ATOM     18  C   UNL     1       3.342  -0.553   2.833  0.00  0.00    +0.005 C 
ENDBRANCH  15  16
ENDBRANCH   6  15
BRANCH   3  19
ATOM     19  C   UNL     1      -1.804  -0.527  -0.913  0.00  0.00    +0.098 C 
BRANCH  19  20
ATOM     20  C   UNL     1      -1.594   0.258  -2.182  0.00  0.00    +0.214 C 
ATOM     21  O   UNL     1      -0.990   1.309  -2.152  0.00  0.00    -0.276 OA
ATOM     22  N   UNL     1      -2.078  -0.208  -3.350  0.00  0.00    -0.306 N 
ATOM     23  H   UNL     1      -2.562  -1.048  -3.374  0.00  0.00    +0.149 HD
BRANCH  22  24
ATOM     24  C   UNL     1      -1.874   0.555  -4.584  0.00  0.00    +0.140 C 
ATOM     25  C   UNL     1      -0.508   0.206  -5.179  0.00  0.00    +0.036 C 
BRANCH  24  26
ATOM     26  C   UNL     1      -2.957   0.209  -5.574  0.00  0.00    +0.170 A 
ATOM     27  H   UNL     1      -4.896  -1.582  -7.226  0.00  0.00    +0.190 HD
ATOM     28  N   UNL     1      -3.640   1.083  -6.311  0.00  0.00    -0.218 NA
ATOM     29  C   UNL     1      -4.503   0.450  -7.063  0.00  0.00    +0.216 A 
ATOM     30  N   UNL     1      -4.386  -0.866  -6.816  0.00  0.00    -0.265 N 
ATOM     31  N   UNL     1      -3.373  -0.999  -5.852  0.00  0.00    -0.156 NA
ENDBRANCH  24  26
ENDBRANCH  22  24
ENDBRANCH  19  20
ENDBRANCH   3  19
TORSDOF 6
