REMARK  Name = ZINC12186461
REMARK  7 active torsions:
REMARK  status: ('A' for Active; 'I' for Inactive)
REMARK    1  A    between atoms: C_1  and  C_2
REMARK    2  A    between atoms: C_5  and  C_19
REMARK    3  A    between atoms: N_11  and  C_13
REMARK    4  A    between atoms: C_19  and  N_52
REMARK    5  A    between atoms: C_20  and  C_22
REMARK    6  A    between atoms: C_20  and  C_28
REMARK    7  A    between atoms: C_20  and  N_52
REMARK                            x       y       z     vdW  Elec       q    Type
REMARK                         _______ _______ _______ _____ _____    ______ ____
ROOT
ATOM      1  C   UNL     1      -1.207  -0.903   0.008  0.00  0.00    +0.068 C 
ATOM      2  C   UNL     1       0.002  -0.004   0.002  0.00  0.00    +0.070 A 
ATOM      3  C   UNL     1       1.351  -0.430  -0.013  0.00  0.00    +0.040 A 
ATOM      4  C   UNL     1       1.968  -1.702  -0.026  0.00  0.00    +0.020 A 
ATOM      5  C   UNL     1       3.325  -1.779  -0.039  0.00  0.00    +0.001 A 
ATOM      6  C   UNL     1       4.096  -0.603  -0.040  0.00  0.00    +0.252 A 
ATOM      7  O   UNL     1       5.314  -0.681  -0.051  0.00  0.00    -0.268 OA
ATOM      8  N   UNL     1       3.508   0.608  -0.028  0.00  0.00    -0.307 N 
ATOM      9  H   UNL     1       4.056   1.408  -0.029  0.00  0.00    +0.170 HD
ATOM     10  C   UNL     1       2.144   0.720  -0.015  0.00  0.00    +0.145 A 
ATOM     11  N   UNL     1       1.298   1.782  -0.001  0.00  0.00    -0.216 N 
ATOM     12  N   UNL     1      -0.016   1.299   0.009  0.00  0.00    -0.169 NA
ENDROOT
BRANCH  11  13
ATOM     13  C   UNL     1       1.676   3.132   0.003  0.00  0.00    +0.068 A 
ATOM     14  C   UNL     1       2.815   3.534   0.688  0.00  0.00    +0.028 A 
ATOM     15  C   UNL     1       3.187   4.864   0.685  0.00  0.00    +0.002 A 
ATOM     16  C   UNL     1       2.421   5.797   0.011  0.00  0.00    +0.000 A 
ATOM     17  C   UNL     1       1.283   5.400  -0.668  0.00  0.00    +0.002 A 
ATOM     18  C   UNL     1       0.908   4.071  -0.674  0.00  0.00    +0.028 A 
ENDBRANCH  11  13
BRANCH   5  19
ATOM     19  C   UNL     1       4.002  -3.125  -0.053  0.00  0.00    -0.040 C 
BRANCH  19  20
ATOM     20  N   UNL     1       4.315  -3.495  -1.446  0.00  0.00    +0.391 N 
ATOM     21  H   UNL     1       4.938  -2.787  -1.853  0.00  0.00    -0.084 HD
ATOM     22  H   UNL     1       3.444  -3.537  -1.989  0.00  0.00    -0.084 HD
BRANCH  20  23
ATOM     23  C   UNL     1       4.980  -4.811  -1.490  0.00  0.00    +0.027 C 
BRANCH  23  24
ATOM     24  C   UNL     1       4.745  -5.439  -2.839  0.00  0.00    -0.054 A 
ATOM     25  C   UNL     1       4.781  -4.660  -3.981  0.00  0.00    +0.002 A 
ATOM     26  C   UNL     1       4.569  -5.237  -5.219  0.00  0.00    +0.000 A 
ATOM     27  C   UNL     1       4.313  -6.592  -5.315  0.00  0.00    +0.000 A 
ATOM     28  C   UNL     1       4.271  -7.371  -4.173  0.00  0.00    +0.000 A 
ATOM     29  C   UNL     1       4.487  -6.794  -2.935  0.00  0.00    +0.002 A 
ENDBRANCH  23  24
BRANCH  23  30
ATOM     30  C   UNL     1       6.461  -4.633  -1.270  0.00  0.00    +0.095 A 
ATOM     31  C   UNL     1       7.250  -5.441  -0.539  0.00  0.00    +0.043 A 
ATOM     32  C   UNL     1       8.556  -4.905  -0.603  0.00  0.00    +0.041 A 
ATOM     33  C   UNL     1       8.488  -3.802  -1.369  0.00  0.00    +0.195 A 
ATOM     34  O   UNL     1       7.217  -3.645  -1.775  0.00  0.00    -0.469 OA
ENDBRANCH  23  30
ENDBRANCH  20  23
ENDBRANCH  19  20
ENDBRANCH   5  19
TORSDOF 6
