REMARK  Name = ZINC24165284
REMARK  7 active torsions:
REMARK  status: ('A' for Active; 'I' for Inactive)
REMARK    1  A    between atoms: C_6  and  C_7
REMARK    2  A    between atoms: C_7  and  N_8
REMARK    3  A    between atoms: N_8  and  C_25
REMARK    4  A    between atoms: C_9  and  C_11
REMARK    5  A    between atoms: C_11  and  N_12
REMARK    6  A    between atoms: N_15  and  C_18
REMARK    7  A    between atoms: C_21  and  O_24
REMARK                            x       y       z     vdW  Elec       q    Type
REMARK                         _______ _______ _______ _____ _____    ______ ____
ROOT
ATOM      1  N   UNL     1       1.069   4.271   1.409  0.00  0.00    -0.293 N 
ATOM      2  C   UNL     1       2.225   4.085   2.076  0.00  0.00    +0.200 C 
ATOM      3  O   UNL     1       3.256   3.901   1.464  0.00  0.00    -0.278 OA
ENDROOT
BRANCH   1   4
ATOM      4  C   UNL     1      -0.147   4.636   2.139  0.00  0.00    +0.038 C 
ATOM      5  C   UNL     1       0.016   6.035   2.736  0.00  0.00    +0.029 C 
ATOM      6  C   UNL     1      -1.254   6.416   3.498  0.00  0.00    -0.008 C 
ATOM      7  C   UNL     1      -2.446   6.407   2.539  0.00  0.00    +0.007 C 
ATOM      8  C   UNL     1      -2.610   5.008   1.942  0.00  0.00    -0.008 C 
ATOM      9  C   UNL     1      -1.339   4.627   1.180  0.00  0.00    +0.029 C 
ATOM     10  C   UNL     1      -2.852   3.999   3.067  0.00  0.00    +0.007 C 
ATOM     11  C   UNL     1      -1.660   4.008   4.026  0.00  0.00    -0.008 C 
ATOM     12  C   UNL     1      -1.496   5.407   4.623  0.00  0.00    +0.007 C 
ATOM     13  C   UNL     1      -0.389   3.627   3.263  0.00  0.00    +0.029 C 
ENDBRANCH   1   4
BRANCH   1  14
ATOM     14  C   UNL     1       1.030   4.109  -0.046  0.00  0.00    +0.143 C 
BRANCH  14  20
ATOM     15  C   UNL     1      -0.416   2.160  -0.660  0.00  0.00    +0.008 A 
ATOM     16  C   UNL     1      -0.585   0.824  -0.971  0.00  0.00    +0.038 A 
ATOM     17  C   UNL     1       0.511  -0.022  -1.006  0.00  0.00    +0.123 A 
ATOM     18  C   UNL     1       1.775   0.472  -0.730  0.00  0.00    +0.038 A 
ATOM     19  C   UNL     1       1.941   1.808  -0.419  0.00  0.00    +0.008 A 
ATOM     20  C   UNL     1       0.847   2.652  -0.385  0.00  0.00    -0.030 A 
ATOM     21  F   UNL     1       0.347  -1.328  -1.309  0.00  0.00    -0.205 F 
ENDBRANCH  14  20
ENDBRANCH   1  14
BRANCH   2  22
ATOM     22  C   UNL     1       2.237   4.105   3.583  0.00  0.00    +0.019 C 
BRANCH  22  23
ATOM     23  N   UNL     1       3.617   4.267   4.060  0.00  0.00    +0.387 N 
ATOM     24  C   UNL     1       4.432   3.092   3.723  0.00  0.00    -0.059 C 
ATOM     25  C   UNL     1       5.878   3.333   4.165  0.00  0.00    +0.086 C 
ATOM     26  N   UNL     1       5.908   3.595   5.611  0.00  0.00    -0.333 N 
ATOM     27  C   UNL     1       5.093   4.770   5.947  0.00  0.00    +0.086 C 
ATOM     28  C   UNL     1       3.648   4.529   5.506  0.00  0.00    -0.059 C 
ATOM     29  H   UNL     1       4.050   5.139   3.548  0.00  0.00    -0.081 HD
BRANCH  26  30
ATOM     30  C   UNL     1       7.223   3.749   6.065  0.00  0.00    +0.030 A 
ATOM     31  C   UNL     1       7.596   4.910   6.730  0.00  0.00    +0.026 A 
ATOM     32  C   UNL     1       8.892   5.059   7.183  0.00  0.00    +0.047 A 
ATOM     33  C   UNL     1       9.824   4.055   6.963  0.00  0.00    +0.117 A 
ATOM     34  C   UNL     1       9.453   2.898   6.294  0.00  0.00    +0.047 A 
ATOM     35  C   UNL     1       8.156   2.745   5.845  0.00  0.00    +0.026 A 
BRANCH  33  36
ATOM     36  O   UNL     1      11.102   4.206   7.404  0.00  0.00    -0.507 OA
ATOM     37  H   UNL     1      11.841   3.410   7.230  0.00  0.00    +0.292 HD
ENDBRANCH  33  36
ENDBRANCH  26  30
ENDBRANCH  22  23
ENDBRANCH   2  22
TORSDOF 7
