REMARK  Name = ZINC64626455
REMARK  8 active torsions:
REMARK  status: ('A' for Active; 'I' for Inactive)
REMARK    1  A    between atoms: C_1  and  S_2
REMARK    2  A    between atoms: S_2  and  C_3
REMARK    3  A    between atoms: C_6  and  C_9
REMARK    4  A    between atoms: C_9  and  C_10
REMARK    5  A    between atoms: C_10  and  C_16
REMARK    6  A    between atoms: C_16  and  C_17
REMARK    7  A    between atoms: C_17  and  C_18
REMARK    8  A    between atoms: C_24  and  C_26
REMARK                            x       y       z     vdW  Elec       q    Type
REMARK                         _______ _______ _______ _____ _____    ______ ____
ROOT
ATOM      1  C   UNL     1      -9.285  -4.043  -0.721  0.00  0.00    +0.216 C 
ATOM      2  O   UNL     1      -9.962  -3.241  -1.329  0.00  0.00    -0.276 OA
ATOM      3  N   UNL     1      -9.874  -5.059  -0.061  0.00  0.00    -0.295 N 
ATOM      4  C   UNL     1      -9.172  -6.153   0.635  0.00  0.00    +0.108 C 
ATOM      5  C   UNL     1     -10.179  -6.658   1.698  0.00  0.00    +0.021 C 
ATOM      6  C   UNL     1     -11.525  -6.532   0.937  0.00  0.00    +0.028 C 
ATOM      7  C   UNL     1     -11.323  -5.258   0.089  0.00  0.00    +0.119 C 
ENDROOT
BRANCH   7   8
ATOM      8  C   UNL     1     -11.968  -5.443  -1.285  0.00  0.00    +0.195 C 
ATOM      9  N   UNL     1     -13.407  -5.693  -1.137  0.00  0.00    -0.362 N 
ATOM     10  C   UNL     1     -13.656  -6.864  -1.646  0.00  0.00    +0.060 A 
ATOM     11  C   UNL     1     -14.890  -7.650  -1.789  0.00  0.00    +0.030 A 
ATOM     12  C   UNL     1     -14.843  -8.863  -2.372  0.00  0.00    +0.040 A 
ATOM     13  C   UNL     1     -13.646  -9.424  -2.860  0.00  0.00    +0.125 A 
ATOM     14  C   UNL     1     -12.457  -8.786  -2.778  0.00  0.00    +0.065 A 
ATOM     15  C   UNL     1     -12.391  -7.457  -2.161  0.00  0.00    +0.063 A 
ATOM     16  N   UNL     1     -11.408  -6.626  -1.950  0.00  0.00    -0.362 N 
ATOM     17  F   UNL     1     -13.688 -10.648  -3.431  0.00  0.00    -0.205 F 
ATOM     18  H   UNL     1     -14.055  -5.094  -0.733  0.00  0.00    +0.162 HD
ATOM     19  H   UNL     1     -10.478  -6.764  -2.188  0.00  0.00    +0.162 HD
ENDBRANCH   7   8
BRANCH   1  20
ATOM     20  C   UNL     1      -7.785  -3.901  -0.703  0.00  0.00    +0.098 C 
BRANCH  20  21
ATOM     21  C   UNL     1      -7.378  -2.675  -1.522  0.00  0.00    +0.035 C 
BRANCH  21  22
ATOM     22  C   UNL     1      -5.855  -2.531  -1.503  0.00  0.00    +0.039 C 
ATOM     23  C   UNL     1      -5.420  -1.315  -2.352  0.00  0.00    +0.035 C 
ATOM     24  C   UNL     1      -5.141  -1.972  -3.724  0.00  0.00    +0.098 C 
ATOM     25  C   UNL     1      -4.822  -3.412  -3.387  0.00  0.00    +0.214 C 
ATOM     26  O   UNL     1      -4.278  -4.197  -4.136  0.00  0.00    -0.276 OA
ATOM     27  N   UNL     1      -5.227  -3.696  -2.137  0.00  0.00    -0.309 N 
ATOM     28  H   UNL     1      -5.118  -4.559  -1.709  0.00  0.00    +0.149 HD
BRANCH  22  29
ATOM     29  C   UNL     1      -5.356  -2.378  -0.065  0.00  0.00    +0.061 C 
BRANCH  29  33
ATOM     30  C   UNL     1      -1.109  -1.894  -0.074  0.00  0.00    +0.008 A 
ATOM     31  C   UNL     1      -1.937  -0.781  -0.152  0.00  0.00    +0.015 A 
ATOM     32  C   UNL     1      -3.308  -0.941  -0.149  0.00  0.00    +0.005 A 
ATOM     33  C   UNL     1      -3.858  -2.207  -0.068  0.00  0.00    -0.045 A 
ATOM     34  C   UNL     1      -3.038  -3.318   0.010  0.00  0.00    +0.005 A 
ATOM     35  C   UNL     1      -1.665  -3.166   0.001  0.00  0.00    +0.015 A 
BRANCH  30  37
ATOM     36  C   UNL     1       0.879   0.100  -0.187  0.00  0.00    +0.090 C 
ATOM     37  S   UNL     1       0.642  -1.695  -0.078  0.00  0.00    -0.129 S 
ENDBRANCH  30  37
ENDBRANCH  29  33
ENDBRANCH  22  29
ENDBRANCH  21  22
ENDBRANCH  20  21
ENDBRANCH   1  20
TORSDOF 7
