REMARK  Name = ZINC43741861
REMARK  1 active torsions:
REMARK  status: ('A' for Active; 'I' for Inactive)
REMARK    1  A    between atoms: N_16  and  O_17
REMARK                            x       y       z     vdW  Elec       q    Type
REMARK                         _______ _______ _______ _____ _____    ______ ____
ROOT
ATOM      1  C   UNL     1      -0.019   1.518   0.010  0.00  0.00    +0.005 C 
ATOM      2  C   UNL     1       1.440   1.999  -0.001  0.00  0.00    +0.005 C 
ATOM      3  C   UNL     1       2.051   1.625   1.343  0.00  0.00    +0.031 C 
ATOM      4  C   UNL     1       1.793   0.173   1.688  0.00  0.00    -0.062 C 
ATOM      5  C   UNL     1       0.901  -0.557   1.095  0.00  0.00    -0.069 C 
ATOM      6  C   UNL     1       0.002  -0.004   0.002  0.00  0.00    +0.031 C 
ATOM      7  C   UNL     1       0.667  -2.024   1.381  0.00  0.00    +0.040 C 
ATOM      8  C   UNL     1       1.315  -2.502   2.668  0.00  0.00    +0.041 C 
ATOM      9  C   UNL     1       0.497  -2.083   3.887  0.00  0.00    +0.010 C 
ATOM     10  C   UNL     1       0.458  -0.562   4.018  0.00  0.00    +0.002 C 
ATOM     11  C   UNL     1       1.880  -0.008   4.145  0.00  0.00    +0.014 C 
ATOM     12  C   UNL     1       2.657  -0.352   2.828  0.00  0.00    +0.063 C 
ATOM     13  C   UNL     1       2.694  -1.866   2.739  0.00  0.00    +0.068 C 
ATOM     14  N   UNL     1       3.780  -2.542   2.724  0.00  0.00    -0.096 NA
ENDROOT
BRANCH  14  15
ATOM     15  O   UNL     1       5.028  -1.878   2.793  0.00  0.00    -0.409 OA
ATOM     16  H   UNL     1       5.792  -2.471   2.776  0.00  0.00    +0.328 HD
ENDBRANCH  14  15
TORSDOF 1
