REMARK  Name = ZINC06686568
REMARK  6 active torsions:
REMARK  status: ('A' for Active; 'I' for Inactive)
REMARK    1  A    between atoms: C_1  and  C_2
REMARK    2  A    between atoms: C_5  and  C_11
REMARK    3  A    between atoms: C_7  and  N_8
REMARK    4  A    between atoms: C_11  and  C_13
REMARK    5  A    between atoms: C_13  and  C_14
REMARK    6  A    between atoms: C_14  and  O_25
REMARK                            x       y       z     vdW  Elec       q    Type
REMARK                         _______ _______ _______ _____ _____    ______ ____
ROOT
ATOM      1  C   UNL     1       1.482  -0.467   0.022  0.00  0.00    +0.175 C 
ATOM      2  C   UNL     1       2.430   0.703   0.146  0.00  0.00    +0.015 A 
ATOM      3  C   UNL     1       3.790   0.789   0.347  0.00  0.00    +0.024 A 
ATOM      4  C   UNL     1       4.400   2.030   0.418  0.00  0.00    +0.018 A 
ATOM      5  C   UNL     1       3.640   3.179   0.288  0.00  0.00    +0.017 A 
ATOM      6  C   UNL     1       2.278   3.095   0.087  0.00  0.00    +0.025 A 
ATOM      7  C   UNL     1       1.657   1.849   0.014  0.00  0.00    +0.040 A 
ATOM      8  N   UNL     1       0.318   1.508  -0.180  0.00  0.00    -0.282 N 
ATOM      9  C   UNL     1       0.128   0.177  -0.189  0.00  0.00    +0.254 C 
ATOM     10  O   UNL     1      -0.929  -0.399  -0.337  0.00  0.00    -0.272 OA
ATOM     11 BR   UNL     1       6.267   2.154   0.694  0.00  0.00    -0.050 Br
ATOM     12  H   UNL     1      -0.394   2.156  -0.299  0.00  0.00    +0.155 HD
ENDROOT
BRANCH   1  13
ATOM     13  O   UNL     1       1.484  -1.246   1.220  0.00  0.00    -0.374 OA
ATOM     14  H   UNL     1       0.850  -1.976   1.216  0.00  0.00    +0.211 HD
ENDBRANCH   1  13
BRANCH   1  15
ATOM     15  C   UNL     1       1.855  -1.335  -1.181  0.00  0.00    +0.129 C 
BRANCH  15  16
ATOM     16  C   UNL     1       0.777  -2.362  -1.414  0.00  0.00    +0.167 C 
ATOM     17  O   UNL     1      -0.194  -2.396  -0.689  0.00  0.00    -0.292 OA
BRANCH  16  22
ATOM     18  C   UNL     1       1.269  -6.117  -5.739  0.00  0.00    +0.046 C 
ATOM     19  C   UNL     1       1.140  -5.132  -4.606  0.00  0.00    -0.020 A 
ATOM     20  C   UNL     1       2.132  -4.190  -4.396  0.00  0.00    +0.006 A 
ATOM     21  C   UNL     1       2.019  -3.283  -3.363  0.00  0.00    +0.012 A 
ATOM     22  C   UNL     1       0.903  -3.323  -2.521  0.00  0.00    +0.020 A 
ATOM     23  C   UNL     1      -0.095  -4.277  -2.740  0.00  0.00    +0.044 A 
ATOM     24  C   UNL     1       0.030  -5.175  -3.780  0.00  0.00    +0.130 A 
BRANCH  24  25
ATOM     25  N   UNL     1      -1.026  -6.186  -4.014  0.00  0.00    +0.057 N 
ATOM     26  O   UNL     1      -1.943  -6.302  -3.222  0.00  0.00    -0.126 OA
ATOM     27  O   UNL     1      -0.976  -6.901  -4.999  0.00  0.00    -0.126 OA
ENDBRANCH  24  25
ENDBRANCH  16  22
ENDBRANCH  15  16
ENDBRANCH   1  15
TORSDOF 5
