REMARK  Name = ZINC01057550
REMARK  9 active torsions:
REMARK  status: ('A' for Active; 'I' for Inactive)
REMARK    1  A    between atoms: C_1  and  C_2
REMARK    2  A    between atoms: N_5  and  C_7
REMARK    3  A    between atoms: C_14  and  N_30
REMARK    4  A    between atoms: C_15  and  C_28
REMARK    5  A    between atoms: C_16  and  C_18
REMARK    6  A    between atoms: C_21  and  O_24
REMARK    7  A    between atoms: O_24  and  C_25
REMARK    8  A    between atoms: C_25  and  C_26
REMARK    9  A    between atoms: C_25  and  C_27
REMARK                            x       y       z     vdW  Elec       q    Type
REMARK                         _______ _______ _______ _____ _____    ______ ____
ROOT
ATOM      1  C   UNL     1      -0.790   4.462  -0.327  0.00  0.00    +0.068 C 
ATOM      2  C   UNL     1       0.285   3.406  -0.284  0.00  0.00    +0.068 A 
ATOM      3  C   UNL     1       1.648   3.637  -0.153  0.00  0.00    +0.050 A 
ATOM      4  C   UNL     1       2.285   2.428  -0.156  0.00  0.00    +0.230 A 
ATOM      5  N   UNL     1       1.341   1.471  -0.284  0.00  0.00    -0.200 N 
ATOM      6  N   UNL     1       0.094   2.110  -0.369  0.00  0.00    -0.168 NA
ATOM      7  O   UNL     1       3.632   2.309  -0.046  0.00  0.00    -0.423 OA
ATOM      8  C   UNL     1       4.372   3.425  -0.208  0.00  0.00    +0.200 C 
ATOM      9  C   UNL     1       3.858   4.675  -0.209  0.00  0.00    +0.098 C 
ATOM     10  C   UNL     1       2.386   4.945  -0.024  0.00  0.00    +0.101 C 
ENDROOT
BRANCH   5  11
ATOM     11  C   UNL     1       1.566   0.088  -0.332  0.00  0.00    +0.069 A 
ATOM     12  C   UNL     1       2.702  -0.411  -0.954  0.00  0.00    +0.028 A 
ATOM     13  C   UNL     1       2.924  -1.773  -0.993  0.00  0.00    +0.002 A 
ATOM     14  C   UNL     1       2.010  -2.641  -0.424  0.00  0.00    +0.000 A 
ATOM     15  C   UNL     1       0.874  -2.147   0.191  0.00  0.00    +0.002 A 
ATOM     16  C   UNL     1       0.650  -0.785   0.239  0.00  0.00    +0.028 A 
ENDBRANCH   5  11
BRANCH  10  17
ATOM     17  C   UNL     1       2.145   5.532   1.343  0.00  0.00    -0.034 A 
ATOM     18  C   UNL     1       2.514   4.825   2.473  0.00  0.00    +0.008 A 
ATOM     19  C   UNL     1       2.300   5.364   3.727  0.00  0.00    +0.046 A 
ATOM     20  C   UNL     1       1.702   6.610   3.852  0.00  0.00    +0.121 A 
ATOM     21  C   UNL     1       1.327   7.314   2.717  0.00  0.00    +0.046 A 
ATOM     22  C   UNL     1       1.550   6.774   1.466  0.00  0.00    +0.008 A 
BRANCH  20  23
ATOM     23  O   UNL     1       1.484   7.139   5.085  0.00  0.00    -0.489 OA
BRANCH  23  24
ATOM     24  C   UNL     1       1.786   6.310   6.209  0.00  0.00    +0.167 C 
ATOM     25  C   UNL     1       3.273   6.432   6.548  0.00  0.00    +0.051 C 
ATOM     26  C   UNL     1       0.952   6.757   7.411  0.00  0.00    +0.051 C 
ENDBRANCH  23  24
ENDBRANCH  20  23
ENDBRANCH  10  17
BRANCH   8  27
ATOM     27  N   UNL     1       5.726   3.283  -0.380  0.00  0.00    -0.328 N 
ATOM     28  H   UNL     1       6.285   4.067  -0.498  0.00  0.00    +0.145 HD
ATOM     29  H   UNL     1       6.125   2.398  -0.383  0.00  0.00    +0.145 HD
ENDBRANCH   8  27
BRANCH   9  30
ATOM     30  C   UNL     1       4.744   5.785  -0.394  0.00  0.00    +0.101 C 
ATOM     31  N   UNL     1       5.447   6.665  -0.541  0.00  0.00    -0.191 NA
ENDBRANCH   9  30
TORSDOF 6
