REMARK  Name = ZINC52095093
REMARK  2 active torsions:
REMARK  status: ('A' for Active; 'I' for Inactive)
REMARK    1  A    between atoms: C_1  and  C_2
REMARK    2  A    between atoms: C_2  and  C_4
REMARK                            x       y       z     vdW  Elec       q    Type
REMARK                         _______ _______ _______ _____ _____    ______ ____
ROOT
ATOM      1  C   UNL     1       0.731  -0.503   1.223  0.00  0.00    -0.014 A 
ATOM      2  C   UNL     1       0.019  -0.852   2.354  0.00  0.00    +0.034 A 
ATOM      3  C   UNL     1       0.690  -1.312   3.477  0.00  0.00    +0.067 A 
ATOM      4  C   UNL     1       2.082  -1.419   3.461  0.00  0.00    +0.068 A 
ATOM      5  C   UNL     1       2.788  -1.067   2.321  0.00  0.00    +0.043 A 
ATOM      6  C   UNL     1       2.111  -0.616   1.204  0.00  0.00    +0.025 A 
ATOM      7 BR   UNL     1       3.073  -0.143  -0.353  0.00  0.00    -0.050 Br
ATOM      8  N   UNL     1       2.463  -1.901   4.711  0.00  0.00    -0.306 N 
ATOM      9  H   UNL     1       3.373  -2.078   4.998  0.00  0.00    +0.170 HD
ATOM     10  C   UNL     1       1.354  -2.078   5.454  0.00  0.00    +0.325 A 
ATOM     11  O   UNL     1       1.336  -2.488   6.599  0.00  0.00    -0.247 OA
ATOM     12  N   UNL     1       0.268  -1.731   4.737  0.00  0.00    -0.306 N 
ATOM     13  H   UNL     1      -0.650  -1.766   5.046  0.00  0.00    +0.170 HD
ENDROOT
BRANCH   1  15
ATOM     14  C   UNL     1      -0.019   1.526   0.010  0.00  0.00    +0.029 C 
ATOM     15  C   UNL     1       0.002  -0.004   0.002  0.00  0.00    +0.108 C 
ATOM     16 CL   UNL     1      -1.689  -0.628   0.015  0.00  0.00    -0.117 Cl
ENDBRANCH   1  15
TORSDOF 1
