REMARK  Name = ZINC64540893
REMARK  10 active torsions:
REMARK  status: ('A' for Active; 'I' for Inactive)
REMARK    1  A    between atoms: C_1  and  N_2
REMARK    2  A    between atoms: N_2  and  C_3
REMARK    3  A    between atoms: N_2  and  C_4
REMARK    4  A    between atoms: C_7  and  C_10
REMARK    5  A    between atoms: C_10  and  N_11
REMARK    6  A    between atoms: C_12  and  C_14
REMARK    7  A    between atoms: C_14  and  C_15
REMARK    8  A    between atoms: C_21  and  C_23
REMARK    9  A    between atoms: C_29  and  O_33
REMARK   10  A    between atoms: O_33  and  C_34
REMARK                            x       y       z     vdW  Elec       q    Type
REMARK                         _______ _______ _______ _____ _____    ______ ____
ROOT
ATOM      1  C   UNL     1      -8.153  -4.879   3.101  0.00  0.00    +0.001 C 
ATOM      2  C   UNL     1      -9.264  -4.016   2.499  0.00  0.00    +0.023 C 
ATOM      3  C   UNL     1     -10.570  -4.815   2.476  0.00  0.00    +0.108 C 
ATOM      4  N   UNL     1     -10.852  -5.299   3.835  0.00  0.00    -0.300 N 
ATOM      5  C   UNL     1      -9.815  -6.063   4.541  0.00  0.00    +0.108 C 
ATOM      6  C   UNL     1      -8.517  -5.250   4.540  0.00  0.00    +0.023 C 
ATOM      7  C   UNL     1     -12.039  -5.047   4.421  0.00  0.00    +0.242 C 
ATOM      8  O   UNL     1     -12.886  -4.415   3.828  0.00  0.00    -0.273 OA
ENDROOT
BRANCH   7   9
ATOM      9  C   UNL     1     -12.312  -5.551   5.815  0.00  0.00    +0.190 C 
ATOM     10  C   UNL     1     -12.270  -7.062   5.841  0.00  0.00    +0.016 C 
ATOM     11  C   UNL     1     -13.498  -7.466   6.236  0.00  0.00    -0.003 A 
ATOM     12  C   UNL     1     -14.083  -8.795   6.452  0.00  0.00    +0.013 A 
ATOM     13  C   UNL     1     -15.368  -8.889   6.856  0.00  0.00    +0.046 A 
ATOM     14  C   UNL     1     -16.159  -7.744   7.073  0.00  0.00    +0.122 A 
ATOM     15  C   UNL     1     -15.685  -6.485   6.893  0.00  0.00    +0.071 A 
ATOM     16  C   UNL     1     -14.348  -6.277   6.471  0.00  0.00    +0.047 A 
ATOM     17  N   UNL     1     -13.669  -5.177   6.231  0.00  0.00    -0.370 N 
ATOM     18  H   UNL     1     -14.006  -4.271   6.314  0.00  0.00    +0.161 HD
BRANCH  14  19
ATOM     19  O   UNL     1     -17.443  -7.905   7.478  0.00  0.00    -0.495 OA
ATOM     20  C   UNL     1     -17.903  -9.246   7.656  0.00  0.00    +0.277 C 
ENDBRANCH  14  19
ENDBRANCH   7   9
BRANCH   1  21
ATOM     21  C   UNL     1      -6.838  -4.096   3.093  0.00  0.00    +0.099 C 
BRANCH  21  23
ATOM     22  N   UNL     1      -5.280  -3.158   1.417  0.00  0.00    -0.311 N 
ATOM     23  C   UNL     1      -6.417  -3.837   1.670  0.00  0.00    +0.214 C 
ATOM     24  O   UNL     1      -7.100  -4.238   0.752  0.00  0.00    -0.276 OA
ATOM     25  H   UNL     1      -4.733  -2.837   2.151  0.00  0.00    +0.149 HD
BRANCH  22  26
ATOM     26  C   UNL     1      -4.870  -2.906   0.033  0.00  0.00    +0.139 C 
BRANCH  26  30
ATOM     27  C   UNL     1      -1.198  -0.719   0.010  0.00  0.00    +0.029 A 
ATOM     28  C   UNL     1      -1.181  -2.108   0.008  0.00  0.00    +0.023 A 
ATOM     29  C   UNL     1      -2.369  -2.812   0.016  0.00  0.00    +0.007 A 
ATOM     30  C   UNL     1      -3.575  -2.135   0.025  0.00  0.00    -0.030 A 
ATOM     31  C   UNL     1      -3.596  -0.752   0.027  0.00  0.00    +0.007 A 
ATOM     32  C   UNL     1      -2.411  -0.042   0.025  0.00  0.00    +0.023 A 
BRANCH  27  34
ATOM     33  C   UNL     1      -0.018   1.461   0.010  0.00  0.00    +0.129 C 
ATOM     34  N   UNL     1       0.002  -0.004   0.002  0.00  0.00    -0.336 N 
ATOM     35  C   UNL     1       1.281  -0.719  -0.014  0.00  0.00    +0.129 C 
ENDBRANCH  27  34
ENDBRANCH  26  30
ENDBRANCH  22  26
ENDBRANCH  21  23
ENDBRANCH   1  21
TORSDOF 7
