REMARK  Name = ZINC02437300
REMARK  6 active torsions:
REMARK  status: ('A' for Active; 'I' for Inactive)
REMARK    1  A    between atoms: C_1  and  C_2
REMARK    2  A    between atoms: C_6  and  C_8
REMARK    3  A    between atoms: N_12  and  C_13
REMARK    4  A    between atoms: C_18  and  O_19
REMARK    5  A    between atoms: N_24  and  C_31
REMARK    6  A    between atoms: N_27  and  C_30
REMARK                            x       y       z     vdW  Elec       q    Type
REMARK                         _______ _______ _______ _____ _____    ______ ____
ROOT
ATOM      1  C   UNL     1       2.389   3.989   0.048  0.00  0.00    +0.068 A 
ATOM      2  C   UNL     1       3.478   3.770   0.875  0.00  0.00    +0.089 A 
ATOM      3  C   UNL     1       4.531   4.693   0.423  0.00  0.00    +0.077 A 
ATOM      4  C   UNL     1       4.020   5.382  -0.613  0.00  0.00    +0.118 A 
ATOM      5  N   UNL     1       2.736   4.960  -0.846  0.00  0.00    -0.310 N 
ATOM      6  N   UNL     1       5.753   4.672   1.103  0.00  0.00    -0.295 N 
ATOM      7  C   UNL     1       5.939   3.829   2.134  0.00  0.00    +0.332 A 
ATOM      8  O   UNL     1       7.016   3.841   2.699  0.00  0.00    -0.246 OA
ATOM      9  N   UNL     1       5.005   2.976   2.573  0.00  0.00    -0.263 N 
ATOM     10  C   UNL     1       3.781   2.893   2.007  0.00  0.00    +0.266 A 
ATOM     11  O   UNL     1       2.952   2.108   2.428  0.00  0.00    -0.267 OA
ATOM     12  C   UNL     1       5.320   2.103   3.706  0.00  0.00    +0.157 C 
ATOM     13  C   UNL     1       6.834   5.572   0.692  0.00  0.00    +0.154 C 
ENDROOT
BRANCH   5  14
ATOM     14  C   UNL     1       1.900   5.457  -1.856  0.00  0.00    +0.089 A 
ATOM     15  C   UNL     1       2.210   5.239  -3.187  0.00  0.00    +0.033 A 
ATOM     16  C   UNL     1       1.387   5.726  -4.193  0.00  0.00    -0.042 A 
ATOM     17  C   UNL     1       0.248   6.430  -3.866  0.00  0.00    -0.041 A 
ATOM     18  C   UNL     1      -0.066   6.654  -2.531  0.00  0.00    +0.051 A 
ATOM     19  C   UNL     1       0.749   6.168  -1.525  0.00  0.00    +0.141 A 
ATOM     20  C   UNL     1      -0.694   6.978  -4.907  0.00  0.00    +0.035 C 
ATOM     21  C   UNL     1      -0.009   7.040  -6.270  0.00  0.00    +0.005 C 
ATOM     22  C   UNL     1       0.611   5.668  -6.563  0.00  0.00    +0.005 C 
ATOM     23  C   UNL     1       1.794   5.463  -5.619  0.00  0.00    +0.035 C 
BRANCH  19  24
ATOM     24  O   UNL     1       0.430   6.387  -0.222  0.00  0.00    -0.505 OA
ATOM     25  H   UNL     1       0.800   7.203   0.141  0.00  0.00    +0.292 HD
ENDBRANCH  19  24
ENDBRANCH   5  14
BRANCH   1  31
ATOM     26  C   UNL     1      -1.210   1.338  -2.166  0.00  0.00    +0.044 C 
ATOM     27  C   UNL     1      -0.646   2.016  -0.944  0.00  0.00    -0.050 A 
ATOM     28  C   UNL     1      -1.346   1.982   0.249  0.00  0.00    +0.003 A 
ATOM     29  C   UNL     1      -0.839   2.607   1.375  0.00  0.00    +0.001 A 
ATOM     30  C   UNL     1       0.375   3.259   1.317  0.00  0.00    +0.010 A 
ATOM     31  C   UNL     1       1.090   3.293   0.117  0.00  0.00    -0.000 A 
ATOM     32  C   UNL     1       0.569   2.665  -1.016  0.00  0.00    +0.013 A 
ENDBRANCH   1  31
TORSDOF 3
