REMARK  Name = ZINC41078139
REMARK  10 active torsions:
REMARK  status: ('A' for Active; 'I' for Inactive)
REMARK    1  A    between atoms: C_1  and  C_2
REMARK    2  A    between atoms: C_7  and  C_13
REMARK    3  A    between atoms: C_13  and  S_14
REMARK    4  A    between atoms: S_14  and  C_15
REMARK    5  A    between atoms: C_20  and  N_21
REMARK    6  A    between atoms: C_22  and  C_24
REMARK    7  A    between atoms: C_24  and  O_25
REMARK    8  A    between atoms: O_25  and  C_26
REMARK    9  A    between atoms: C_28  and  C_33
REMARK   10  A    between atoms: C_30  and  C_32
REMARK                            x       y       z     vdW  Elec       q    Type
REMARK                         _______ _______ _______ _____ _____    ______ ____
ROOT
ATOM      1  C   UNL     1      -1.361  -8.651   0.656  0.00  0.00    +0.029 A 
ATOM      2  C   UNL     1      -0.133  -9.224   0.960  0.00  0.00    +0.016 A 
ATOM      3  C   UNL     1       0.007 -10.599   0.955  0.00  0.00    +0.001 A 
ATOM      4  C   UNL     1      -1.072 -11.408   0.649  0.00  0.00    +0.002 A 
ATOM      5  C   UNL     1      -2.298 -10.846   0.346  0.00  0.00    +0.024 A 
ATOM      6  C   UNL     1      -2.450  -9.468   0.353  0.00  0.00    +0.047 A 
ENDROOT
BRANCH   6   7
ATOM      7  N   UNL     1      -3.694  -8.896   0.051  0.00  0.00    -0.282 N 
ATOM      8  C   UNL     1      -4.825  -9.605   0.242  0.00  0.00    +0.255 C 
ATOM      9  O   UNL     1      -4.775 -10.697   0.767  0.00  0.00    -0.272 OA
ATOM     10  H   UNL     1      -3.741  -7.992  -0.294  0.00  0.00    +0.155 HD
BRANCH   8  11
ATOM     11  C   UNL     1      -6.151  -9.039  -0.198  0.00  0.00    +0.324 C 
BRANCH  11  12
ATOM     12  O   UNL     1      -7.191  -9.970   0.110  0.00  0.00    -0.483 OA
BRANCH  12  13
ATOM     13  C   UNL     1      -8.458  -9.611  -0.225  0.00  0.00    +0.122 A 
ATOM     14  C   UNL     1      -8.695  -8.391  -0.841  0.00  0.00    +0.049 A 
ATOM     15  C   UNL     1      -9.985  -8.029  -1.181  0.00  0.00    -0.047 A 
ATOM     16  C   UNL     1     -11.038  -8.881  -0.905  0.00  0.00    +0.007 A 
ATOM     17  C   UNL     1     -10.805 -10.097  -0.291  0.00  0.00    -0.047 A 
ATOM     18  C   UNL     1      -9.517 -10.467   0.045  0.00  0.00    +0.049 A 
ATOM     19  C   UNL     1     -11.956 -11.023   0.008  0.00  0.00    +0.044 C 
ATOM     20  C   UNL     1     -10.243  -6.704  -1.850  0.00  0.00    +0.044 C 
ENDBRANCH  12  13
ENDBRANCH  11  12
ENDBRANCH   8  11
ENDBRANCH   6   7
BRANCH   1  21
ATOM     21  S   UNL     1      -1.543  -6.899   0.661  0.00  0.00    -0.117 S 
BRANCH  21  22
ATOM     22  C   UNL     1       0.106  -6.287   1.102  0.00  0.00    +0.130 C 
BRANCH  22  29
ATOM     23  C   UNL     1       0.002   1.496   0.038  0.00  0.00    +0.045 C 
ATOM     24  C   UNL     1       0.020  -0.011   0.023  0.00  0.00    -0.034 A 
ATOM     25  C   UNL     1       0.015  -0.698  -1.200  0.00  0.00    +0.008 A 
ATOM     26  C   UNL     1       0.031  -2.061  -1.205  0.00  0.00    +0.047 A 
ATOM     27  C   UNL     1       0.052  -2.757   0.017  0.00  0.00    +0.141 A 
ATOM     28  N   UNL     1       0.069  -4.089   0.013  0.00  0.00    -0.233 NA
ATOM     29  C   UNL     1       0.089  -4.780   1.142  0.00  0.00    +0.059 A 
ATOM     30  C   UNL     1       0.094  -4.122   2.357  0.00  0.00    +0.094 A 
ATOM     31  C   UNL     1       0.078  -2.723   2.368  0.00  0.00    +0.259 A 
ATOM     32  O   UNL     1       0.082  -2.112   3.425  0.00  0.00    -0.267 OA
ATOM     33  N   UNL     1       0.057  -2.059   1.192  0.00  0.00    -0.268 N 
ATOM     34  C   UNL     1       0.046  -0.698   1.187  0.00  0.00    +0.099 A 
ENDBRANCH  22  29
ENDBRANCH  21  22
ENDBRANCH   1  21
TORSDOF 7
