REMARK  Name = ZINC21238969
REMARK  11 active torsions:
REMARK  status: ('A' for Active; 'I' for Inactive)
REMARK    1  A    between atoms: C_1  and  C_2
REMARK    2  A    between atoms: C_2  and  C_3
REMARK    3  A    between atoms: C_2  and  O_4
REMARK    4  A    between atoms: O_4  and  C_5
REMARK    5  A    between atoms: C_8  and  C_13
REMARK    6  A    between atoms: C_10  and  O_11
REMARK    7  A    between atoms: O_11  and  C_12
REMARK    8  A    between atoms: C_18  and  C_28
REMARK    9  A    between atoms: C_31  and  O_36
REMARK   10  A    between atoms: C_32  and  O_34
REMARK   11  A    between atoms: O_34  and  C_35
REMARK                            x       y       z     vdW  Elec       q    Type
REMARK                         _______ _______ _______ _____ _____    ______ ____
ROOT
ATOM      1  C   UNL     1       4.633   4.231  -1.554  0.00  0.00    +0.032 C 
ATOM      2  C   UNL     1       3.250   4.750  -1.163  0.00  0.00    +0.059 C 
ATOM      3  C   UNL     1       2.526   3.708  -0.326  0.00  0.00    +0.017 C 
ATOM      4  C   UNL     1       2.724   2.399  -0.551  0.00  0.00    +0.036 C 
ATOM      5  C   UNL     1       2.048   1.262   0.178  0.00  0.00    +0.136 C 
ATOM      6  N   UNL     1       1.324   1.659   1.367  0.00  0.00    -0.331 N 
ATOM      7  C   UNL     1       0.209   2.492   1.288  0.00  0.00    +0.049 A 
ATOM      8  C   UNL     1      -1.061   2.030   1.592  0.00  0.00    +0.025 A 
ATOM      9  C   UNL     1      -2.151   2.862   1.402  0.00  0.00    +0.002 A 
ATOM     10  C   UNL     1      -1.975   4.147   0.922  0.00  0.00    +0.002 A 
ATOM     11  C   UNL     1      -0.706   4.617   0.631  0.00  0.00    +0.025 A 
ATOM     12  C   UNL     1       0.386   3.789   0.831  0.00  0.00    +0.052 A 
ATOM     13  N   UNL     1       1.691   4.217   0.615  0.00  0.00    -0.316 N 
ATOM     14  C   UNL     1       3.638   1.977  -1.545  0.00  0.00    +0.163 C 
ATOM     15  O   UNL     1       3.782   0.786  -1.741  0.00  0.00    -0.292 OA
ATOM     16  C   UNL     1       4.436   2.945  -2.366  0.00  0.00    +0.088 C 
ATOM     17  H   UNL     1       1.652   1.304   2.355  0.00  0.00    +0.147 HD
ATOM     18  H   UNL     1       2.035   5.027   1.275  0.00  0.00    +0.152 HD
ENDROOT
BRANCH   1  22
ATOM     19  C   UNL     1       6.657   7.151  -3.934  0.00  0.00    +0.162 A 
ATOM     20  C   UNL     1       5.435   6.644  -4.346  0.00  0.00    +0.050 A 
ATOM     21  C   UNL     1       4.783   5.699  -3.574  0.00  0.00    +0.008 A 
ATOM     22  C   UNL     1       5.348   5.260  -2.392  0.00  0.00    -0.040 A 
ATOM     23  C   UNL     1       6.564   5.765  -1.973  0.00  0.00    +0.053 A 
ATOM     24  C   UNL     1       7.226   6.708  -2.744  0.00  0.00    +0.162 A 
BRANCH  24  25
ATOM     25  O   UNL     1       8.425   7.202  -2.336  0.00  0.00    -0.491 OA
ATOM     26  C   UNL     1       8.948   6.702  -1.104  0.00  0.00    +0.277 C 
ENDBRANCH  24  25
BRANCH  19  27
ATOM     27  O   UNL     1       7.299   8.080  -4.692  0.00  0.00    -0.486 OA
BRANCH  27  29
ATOM     28  C   UNL     1       5.647   9.477  -5.769  0.00  0.00    +0.051 C 
ATOM     29  C   UNL     1       6.717   8.400  -5.957  0.00  0.00    +0.167 C 
ATOM     30  C   UNL     1       7.804   8.919  -6.901  0.00  0.00    +0.051 C 
ENDBRANCH  27  29
ENDBRANCH  19  27
ENDBRANCH   1  22
BRANCH   5  31
ATOM     31  C   UNL     1       1.084   0.593  -0.767  0.00  0.00    -0.019 A 
ATOM     32  C   UNL     1       0.009   1.301  -1.270  0.00  0.00    +0.009 A 
ATOM     33  C   UNL     1      -0.878   0.692  -2.139  0.00  0.00    +0.049 A 
ATOM     34  C   UNL     1      -0.690  -0.630  -2.507  0.00  0.00    +0.158 A 
ATOM     35  C   UNL     1       0.393  -1.343  -2.000  0.00  0.00    +0.162 A 
ATOM     36  C   UNL     1       1.281  -0.725  -1.135  0.00  0.00    +0.055 A 
BRANCH  35  37
ATOM     37  O   UNL     1       0.582  -2.641  -2.358  0.00  0.00    -0.491 OA
ATOM     38  C   UNL     1       1.714  -3.310  -1.800  0.00  0.00    +0.277 C 
ENDBRANCH  35  37
BRANCH  34  39
ATOM     39  O   UNL     1      -1.561  -1.230  -3.361  0.00  0.00    -0.503 OA
ATOM     40  H   UNL     1      -1.411  -2.280  -3.653  0.00  0.00    +0.292 HD
ENDBRANCH  34  39
ENDBRANCH   5  31
TORSDOF 7
