REMARK  Name = ZINC65305509
REMARK  6 active torsions:
REMARK  status: ('A' for Active; 'I' for Inactive)
REMARK    1  A    between atoms: C_4  and  N_11
REMARK    2  A    between atoms: C_5  and  C_7
REMARK    3  A    between atoms: C_12  and  C_14
REMARK    4  A    between atoms: C_14  and  N_15
REMARK    5  A    between atoms: N_26  and  C_29
REMARK    6  A    between atoms: C_29  and  C_30
REMARK                            x       y       z     vdW  Elec       q    Type
REMARK                         _______ _______ _______ _____ _____    ______ ____
ROOT
ATOM      1  N   UNL     1       7.180   0.264  -0.382  0.00  0.00    -0.202 N 
ATOM      2  C   UNL     1       7.888   0.783   0.645  0.00  0.00    +0.353 A 
ATOM      3  O   UNL     1       7.733   0.533   1.827  0.00  0.00    -0.244 OA
ATOM      4  N   UNL     1       8.800   1.627   0.121  0.00  0.00    -0.228 N 
ATOM      5  C   UNL     1       9.781   2.421   0.745  0.00  0.00    +0.074 A 
ATOM      6  C   UNL     1      10.084   2.554   2.098  0.00  0.00    +0.035 A 
ATOM      7  C   UNL     1      11.080   3.382   2.482  0.00  0.00    +0.048 A 
ATOM      8  S   UNL     1      11.663   4.029   1.044  0.00  0.00    -0.090 S 
ATOM      9  C   UNL     1      10.583   3.198  -0.090  0.00  0.00    +0.101 A 
ATOM     10  C   UNL     1      10.426   3.196  -1.482  0.00  0.00    +0.270 A 
ATOM     11  O   UNL     1      11.145   3.888  -2.180  0.00  0.00    -0.266 OA
ATOM     12  N   UNL     1       9.474   2.422  -2.046  0.00  0.00    -0.269 N 
ATOM     13  C   UNL     1       8.658   1.634  -1.245  0.00  0.00    +0.241 A 
ATOM     14  N   UNL     1       7.692   0.815  -1.564  0.00  0.00    -0.129 NA
ENDROOT
BRANCH   1  15
ATOM     15  C   UNL     1       6.083  -0.701  -0.278  0.00  0.00    +0.245 C 
BRANCH  15  17
ATOM     16  N   UNL     1       3.622  -0.651  -0.037  0.00  0.00    -0.283 N 
ATOM     17  C   UNL     1       4.775   0.037  -0.147  0.00  0.00    +0.239 C 
ATOM     18  O   UNL     1       4.761   1.250  -0.141  0.00  0.00    -0.273 OA
ATOM     19  H   UNL     1       3.639  -1.618   0.038  0.00  0.00    +0.155 HD
BRANCH  16  23
ATOM     20  C   UNL     1      -0.019   1.375  -0.023  0.00  0.00    +0.001 A 
ATOM     21  C   UNL     1       1.087   1.947  -0.626  0.00  0.00    +0.002 A 
ATOM     22  C   UNL     1       2.295   1.278  -0.633  0.00  0.00    +0.024 A 
ATOM     23  C   UNL     1       2.399   0.030  -0.032  0.00  0.00    +0.045 A 
ATOM     24  C   UNL     1       1.287  -0.541   0.573  0.00  0.00    +0.076 A 
ATOM     25  C   UNL     1       0.082   0.133   0.576  0.00  0.00    +0.014 A 
BRANCH  24  26
ATOM     26  C   UNL     1       1.396  -1.895   1.226  0.00  0.00    +0.419 C 
ATOM     27  F   UNL     1       0.155  -2.255   1.761  0.00  0.00    -0.166 F 
ATOM     28  F   UNL     1       1.785  -2.842   0.273  0.00  0.00    -0.166 F 
ATOM     29  F   UNL     1       2.349  -1.845   2.249  0.00  0.00    -0.166 F 
ENDBRANCH  24  26
ENDBRANCH  16  23
ENDBRANCH  15  17
ENDBRANCH   1  15
BRANCH  12  30
ATOM     30  C   UNL     1       9.303   2.413  -3.501  0.00  0.00    +0.202 C 
BRANCH  30  31
ATOM     31  C   UNL     1      10.175   1.341  -4.103  0.00  0.00    +0.125 A 
ATOM     32  C   UNL     1       9.813   0.064  -4.322  0.00  0.00    +0.046 A 
ATOM     33  C   UNL     1      10.931  -0.585  -4.896  0.00  0.00    +0.041 A 
ATOM     34  C   UNL     1      11.908   0.334  -4.994  0.00  0.00    +0.195 A 
ATOM     35  O   UNL     1      11.443   1.500  -4.517  0.00  0.00    -0.466 OA
ENDBRANCH  30  31
ENDBRANCH  12  30
TORSDOF 6
