REMARK  Name = ZINC44913999
REMARK  6 active torsions:
REMARK  status: ('A' for Active; 'I' for Inactive)
REMARK    1  A    between atoms: C_5  and  C_7
REMARK    2  A    between atoms: C_7  and  C_9
REMARK    3  A    between atoms: C_7  and  O_25
REMARK    4  A    between atoms: C_9  and  N_10
REMARK    5  A    between atoms: N_10  and  C_11
REMARK    6  A    between atoms: C_12  and  N_22
REMARK                            x       y       z     vdW  Elec       q    Type
REMARK                         _______ _______ _______ _____ _____    ______ ____
ROOT
ATOM      1  C   UNL     1       1.646  -4.857   2.580  0.00  0.00    +0.157 A 
ATOM      2  C   UNL     1       1.695  -6.249   2.572  0.00  0.00    +0.230 A 
ATOM      3  C   UNL     1       1.860  -6.923   3.780  0.00  0.00    +0.291 A 
ATOM      4  O   UNL     1       1.907  -8.143   3.806  0.00  0.00    -0.265 OA
ATOM      5  N   UNL     1       1.966  -6.210   4.921  0.00  0.00    -0.266 N 
ATOM      6  C   UNL     1       2.128  -6.862   6.107  0.00  0.00    +0.096 A 
ATOM      7  C   UNL     1       2.237  -6.173   7.265  0.00  0.00    +0.018 A 
ATOM      8  C   UNL     1       2.186  -4.772   7.259  0.00  0.00    +0.005 A 
ATOM      9  C   UNL     1       2.025  -4.110   6.079  0.00  0.00    +0.047 A 
ATOM     10  C   UNL     1       1.913  -4.844   4.883  0.00  0.00    +0.142 A 
ATOM     11  N   UNL     1       1.761  -4.198   3.730  0.00  0.00    -0.212 NA
ENDROOT
BRANCH   2  12
ATOM     12  N   UNL     1       1.574  -6.999   1.301  0.00  0.00    +0.065 N 
ATOM     13  O   UNL     1       1.536  -6.404   0.249  0.00  0.00    -0.126 OA
ATOM     14  O   UNL     1       1.514  -8.206   1.315  0.00  0.00    -0.126 OA
ENDBRANCH   2  12
BRANCH   1  15
ATOM     15  N   UNL     1       1.483  -4.162   1.396  0.00  0.00    -0.324 N 
ATOM     16  H   UNL     1       1.478  -4.638   0.551  0.00  0.00    +0.148 HD
BRANCH  15  17
ATOM     17  C   UNL     1       1.319  -2.706   1.417  0.00  0.00    +0.139 C 
BRANCH  17  18
ATOM     18  C   UNL     1       1.159  -2.190  -0.014  0.00  0.00    +0.164 C 
BRANCH  18  23
ATOM     19  C   UNL     1      -0.145   1.353   0.028  0.00  0.00    +0.001 A 
ATOM     20  C   UNL     1       1.030   2.082   0.018  0.00  0.00    +0.003 A 
ATOM     21  C   UNL     1       2.248   1.429  -0.002  0.00  0.00    +0.039 A 
ATOM     22  C   UNL     1       2.291   0.045  -0.012  0.00  0.00    +0.129 A 
ATOM     23  C   UNL     1       1.114  -0.683  -0.002  0.00  0.00    +0.018 A 
ATOM     24  C   UNL     1      -0.103  -0.029   0.018  0.00  0.00    +0.009 A 
ATOM     25  F   UNL     1       3.481  -0.594  -0.032  0.00  0.00    -0.205 F 
ENDBRANCH  18  23
BRANCH  18  26
ATOM     26  O   UNL     1      -0.054  -2.699  -0.572  0.00  0.00    -0.386 OA
ATOM     27  H   UNL     1      -0.849  -2.441  -0.085  0.00  0.00    +0.210 HD
ENDBRANCH  18  26
ENDBRANCH  17  18
ENDBRANCH  15  17
ENDBRANCH   1  15
TORSDOF 6
