REMARK  Name = ZINC30858677
REMARK  14 active torsions:
REMARK  status: ('A' for Active; 'I' for Inactive)
REMARK    1  A    between atoms: C_1  and  C_2
REMARK    2  A    between atoms: C_5  and  N_9
REMARK    3  A    between atoms: C_6  and  C_8
REMARK    4  A    between atoms: N_9  and  S_10
REMARK    5  A    between atoms: S_10  and  C_13
REMARK    6  A    between atoms: C_15  and  C_20
REMARK    7  A    between atoms: N_22  and  C_23
REMARK    8  A    between atoms: C_23  and  C_25
REMARK    9  A    between atoms: C_23  and  C_29
REMARK   10  A    between atoms: C_25  and  C_26
REMARK   11  A    between atoms: C_26  and  C_27
REMARK   12  A    between atoms: C_26  and  C_28
REMARK   13  A    between atoms: C_32  and  O_35
REMARK   14  A    between atoms: O_35  and  C_36
REMARK                            x       y       z     vdW  Elec       q    Type
REMARK                         _______ _______ _______ _____ _____    ______ ____
ROOT
ATOM      1  C   UNL     1       1.655  -0.028  -2.916  0.00  0.00    +0.127 A 
ATOM      2  C   UNL     1       2.736  -0.324  -3.719  0.00  0.00    +0.043 A 
ATOM      3  C   UNL     1       2.801   0.191  -5.015  0.00  0.00    +0.039 A 
ATOM      4  C   UNL     1       1.774   1.012  -5.486  0.00  0.00    +0.014 A 
ATOM      5  C   UNL     1       0.701   1.305  -4.672  0.00  0.00    +0.023 A 
ATOM      6  C   UNL     1       0.640   0.787  -3.388  0.00  0.00    +0.068 A 
ATOM      7 CL   UNL     1      -0.714   1.161  -2.368  0.00  0.00    -0.082 Cl
ENDROOT
BRANCH   3   8
ATOM      8  C   UNL     1       3.954  -0.127  -5.883  0.00  0.00    +0.245 C 
ATOM      9  O   UNL     1       4.846  -0.842  -5.471  0.00  0.00    -0.270 OA
ATOM     10  N   UNL     1       4.016   0.375  -7.132  0.00  0.00    -0.305 N 
ATOM     11  H   UNL     1       3.171   0.954  -7.535  0.00  0.00    +0.150 HD
BRANCH  10  12
ATOM     12  C   UNL     1       5.208   0.151  -7.954  0.00  0.00    +0.104 C 
BRANCH  12  13
ATOM     13  C   UNL     1       5.366   1.288  -8.930  0.00  0.00    -0.027 A 
ATOM     14  C   UNL     1       4.255   1.816  -9.561  0.00  0.00    +0.009 A 
ATOM     15  C   UNL     1       4.396   2.862 -10.452  0.00  0.00    +0.046 A 
ATOM     16  C   UNL     1       5.656   3.375 -10.723  0.00  0.00    +0.120 A 
ATOM     17  C   UNL     1       6.771   2.840 -10.093  0.00  0.00    +0.046 A 
ATOM     18  C   UNL     1       6.623   1.798  -9.198  0.00  0.00    +0.009 A 
BRANCH  16  19
ATOM     19  O   UNL     1       5.799   4.400 -11.604  0.00  0.00    -0.495 OA
ATOM     20  C   UNL     1       4.608   4.901 -12.215  0.00  0.00    +0.277 C 
ENDBRANCH  16  19
ENDBRANCH  12  13
BRANCH  12  21
ATOM     21  C   UNL     1       5.059  -1.163  -8.722  0.00  0.00    +0.030 C 
BRANCH  21  22
ATOM     22  C   UNL     1       6.338  -1.440  -9.514  0.00  0.00    -0.015 C 
ATOM     23  C   UNL     1       7.498  -1.675  -8.544  0.00  0.00    +0.007 C 
ATOM     24  C   UNL     1       6.141  -2.683 -10.384  0.00  0.00    +0.007 C 
ENDBRANCH  21  22
ENDBRANCH  12  21
ENDBRANCH  10  12
ENDBRANCH   3   8
BRANCH   1  25
ATOM     25  S   UNL     1       1.569  -0.682  -1.282  0.00  0.00    +0.074 S 
ATOM     26  O   UNL     1       2.769  -1.414  -1.073  0.00  0.00    -0.150 OA
ATOM     27  O   UNL     1       0.283  -1.273  -1.149  0.00  0.00    -0.150 OA
BRANCH  25  28
ATOM     28  N   UNL     1       1.610   0.602  -0.237  0.00  0.00    -0.216 N 
ATOM     29  H   UNL     1       0.720   0.856   0.357  0.00  0.00    +0.174 HD
BRANCH  28  34
ATOM     30  C   UNL     1       6.338   3.692   0.273  0.00  0.00    +0.044 C 
ATOM     31  C   UNL     1       5.081   2.871   0.137  0.00  0.00    -0.050 A 
ATOM     32  C   UNL     1       4.730   2.345  -1.093  0.00  0.00    +0.005 A 
ATOM     33  C   UNL     1       3.577   1.597  -1.222  0.00  0.00    +0.025 A 
ATOM     34  C   UNL     1       2.775   1.363  -0.112  0.00  0.00    +0.051 A 
ATOM     35  C   UNL     1       3.133   1.887   1.123  0.00  0.00    -0.028 A 
ATOM     36  C   UNL     1       4.286   2.640   1.244  0.00  0.00    +0.008 A 
ATOM     37  C   UNL     1       2.266   1.636   2.330  0.00  0.00    +0.046 C 
ENDBRANCH  28  34
ENDBRANCH  25  28
ENDBRANCH   1  25
TORSDOF 9
