REMARK  Name = ZINC35368500
REMARK  2 active torsions:
REMARK  status: ('A' for Active; 'I' for Inactive)
REMARK    1  A    between atoms: C_6  and  C_7
REMARK    2  A    between atoms: C_7  and  C_9
REMARK                            x       y       z     vdW  Elec       q    Type
REMARK                         _______ _______ _______ _____ _____    ______ ____
ROOT
ATOM      1  C   UNL     1      -1.265  -0.762   0.009  0.00  0.00    +0.200 C 
ATOM      2  O   UNL     1      -1.251  -1.973  -0.116  0.00  0.00    -0.286 OA
ENDROOT
BRANCH   1   8
ATOM      3  C   UNL     1       1.162  -0.565  -0.512  0.00  0.00    +0.015 A 
ATOM      4  C   UNL     1       2.344   0.141  -0.486  0.00  0.00    +0.050 A 
ATOM      5  C   UNL     1       2.391   1.409   0.082  0.00  0.00    +0.162 A 
ATOM      6  C   UNL     1       1.239   1.972   0.627  0.00  0.00    +0.163 A 
ATOM      7  C   UNL     1       0.049   1.268   0.605  0.00  0.00    +0.061 A 
ATOM      8  C   UNL     1       0.004  -0.007   0.035  0.00  0.00    +0.026 A 
ATOM      9  O   UNL     1       1.266   3.216   1.180  0.00  0.00    -0.485 OA
ATOM     10  C   UNL     1       2.554   3.741   1.518  0.00  0.00    +0.270 C 
ATOM     11  C   UNL     1       3.499   3.497   0.333  0.00  0.00    +0.270 C 
ATOM     12  O   UNL     1       3.570   2.086   0.100  0.00  0.00    -0.485 OA
ENDBRANCH   1   8
BRANCH   1  13
ATOM     13  C   UNL     1      -2.541  -0.054   0.135  0.00  0.00    +0.060 A 
ATOM     14  C   UNL     1      -3.819  -0.573   0.262  0.00  0.00    +0.023 A 
ATOM     15  C   UNL     1      -4.857   0.340   0.365  0.00  0.00    -0.036 A 
ATOM     16  C   UNL     1      -4.516   1.662   0.330  0.00  0.00    -0.006 A 
ATOM     17  S   UNL     1      -2.854   1.701   0.173  0.00  0.00    -0.090 S 
ATOM     18  C   UNL     1      -5.452   2.832   0.420  0.00  0.00    +0.043 C 
ATOM     19  C   UNL     1      -6.882   2.329   0.179  0.00  0.00    +0.005 C 
ATOM     20  C   UNL     1      -7.123   1.093   1.050  0.00  0.00    +0.005 C 
ATOM     21  C   UNL     1      -6.315  -0.087   0.510  0.00  0.00    +0.036 C 
ENDBRANCH   1  13
TORSDOF 2
