REMARK  Name = ZINC39945665
REMARK  8 active torsions:
REMARK  status: ('A' for Active; 'I' for Inactive)
REMARK    1  A    between atoms: C_4  and  C_7
REMARK    2  A    between atoms: C_7  and  C_9
REMARK    3  A    between atoms: C_7  and  S_20
REMARK    4  A    between atoms: C_9  and  C_11
REMARK    5  A    between atoms: S_20  and  C_21
REMARK    6  A    between atoms: C_24  and  C_27
REMARK    7  A    between atoms: N_25  and  N_26
REMARK    8  A    between atoms: C_27  and  C_28
REMARK                            x       y       z     vdW  Elec       q    Type
REMARK                         _______ _______ _______ _____ _____    ______ ____
ROOT
ATOM      1  C   UNL     1       3.702  -0.139  -0.120  0.00  0.00    +0.155 C 
ENDROOT
BRANCH   1   5
ATOM      2  C   UNL     1      -0.036   1.913   0.138  0.00  0.00    +0.000 A 
ATOM      3  C   UNL     1       1.148   2.625   0.190  0.00  0.00    +0.000 A 
ATOM      4  C   UNL     1       2.358   1.961   0.106  0.00  0.00    +0.005 A 
ATOM      5  C   UNL     1       2.383   0.585  -0.029  0.00  0.00    -0.027 A 
ATOM      6  C   UNL     1       1.199  -0.126  -0.079  0.00  0.00    +0.005 A 
ATOM      7  C   UNL     1      -0.011   0.538   0.003  0.00  0.00    +0.000 A 
ENDBRANCH   1   5
BRANCH   1   8
ATOM      8  C   UNL     1       3.778  -0.880  -1.430  0.00  0.00    +0.179 C 
ATOM      9  O   UNL     1       3.461  -2.051  -1.485  0.00  0.00    -0.291 OA
BRANCH   8  10
ATOM     10  C   UNL     1       4.217  -0.213  -2.594  0.00  0.00    +0.025 C 
ATOM     11  C   UNL     1       4.338  -0.742  -3.866  0.00  0.00    +0.006 A 
ATOM     12  C   UNL     1       4.087  -2.027  -4.402  0.00  0.00    +0.010 A 
ATOM     13  C   UNL     1       4.299  -2.271  -5.714  0.00  0.00    +0.001 A 
ATOM     14  C   UNL     1       4.768  -1.286  -6.598  0.00  0.00    +0.002 A 
ATOM     15  C   UNL     1       5.039  -0.029  -6.188  0.00  0.00    +0.026 A 
ATOM     16  C   UNL     1       4.835   0.322  -4.773  0.00  0.00    +0.043 A 
ATOM     17  N   UNL     1       5.012   1.434  -4.118  0.00  0.00    -0.380 N 
ATOM     18  C   UNL     1       4.647   1.233  -2.712  0.00  0.00    +0.152 C 
ATOM     19  H   UNL     1       5.331   2.266  -4.502  0.00  0.00    +0.160 HD
ENDBRANCH   8  10
ENDBRANCH   1   8
BRANCH   1  20
ATOM     20  S   UNL     1       3.841  -1.318   1.250  0.00  0.00    -0.068 S 
BRANCH  20  21
ATOM     21  C   UNL     1       3.884  -0.299   2.687  0.00  0.00    +0.209 A 
ATOM     22  N   UNL     1       3.821   1.012   2.716  0.00  0.00    -0.121 NA
ATOM     23  N   UNL     1       3.880   1.425   3.932  0.00  0.00    -0.132 NA
ATOM     24  C   UNL     1       3.984   0.411   4.744  0.00  0.00    +0.155 A 
ATOM     25  N   UNL     1       3.984  -0.724   3.981  0.00  0.00    -0.228 N 
BRANCH  25  26
ATOM     26  N   UNL     1       4.070  -2.014   4.421  0.00  0.00    -0.295 N 
ATOM     27  H   UNL     1       5.032  -2.284   4.564  0.00  0.00    +0.163 HD
ATOM     28  H   UNL     1       3.529  -2.146   5.263  0.00  0.00    +0.163 HD
ENDBRANCH  25  26
BRANCH  24  29
ATOM     29  C   UNL     1       4.079   0.477   6.247  0.00  0.00    +0.116 C 
BRANCH  29  30
ATOM     30  C   UNL     1       5.528   0.469   6.659  0.00  0.00    -0.005 A 
ATOM     31  C   UNL     1       6.143  -0.721   7.002  0.00  0.00    +0.007 A 
ATOM     32  C   UNL     1       7.473  -0.729   7.380  0.00  0.00    +0.000 A 
ATOM     33  C   UNL     1       8.189   0.453   7.416  0.00  0.00    +0.003 A 
ATOM     34  C   UNL     1       7.577   1.644   7.074  0.00  0.00    +0.038 A 
ATOM     35  C   UNL     1       6.246   1.652   6.690  0.00  0.00    +0.127 A 
ATOM     36  F   UNL     1       5.647   2.815   6.351  0.00  0.00    -0.205 F 
ENDBRANCH  29  30
ENDBRANCH  24  29
ENDBRANCH  20  21
ENDBRANCH   1  20
TORSDOF 8
