REMARK  Name = ZINC36116994
REMARK  11 active torsions:
REMARK  status: ('A' for Active; 'I' for Inactive)
REMARK    1  A    between atoms: C_1  and  C_2
REMARK    2  A    between atoms: C_2  and  C_3
REMARK    3  A    between atoms: C_2  and  C_4
REMARK    4  A    between atoms: C_7  and  O_10
REMARK    5  A    between atoms: O_10  and  C_11
REMARK    6  A    between atoms: C_11  and  C_12
REMARK    7  A    between atoms: C_22  and  C_24
REMARK    8  A    between atoms: C_24  and  N_25
REMARK    9  A    between atoms: N_25  and  C_26
REMARK   10  A    between atoms: C_26  and  C_27
REMARK   11  A    between atoms: C_33  and  C_35
REMARK                            x       y       z     vdW  Elec       q    Type
REMARK                         _______ _______ _______ _____ _____    ______ ____
ROOT
ATOM      1  C   UNL     1      -9.159  -4.824  -3.472  0.00  0.00    +0.144 C 
ATOM      2  C   UNL     1     -10.101  -3.622  -3.447  0.00  0.00    -0.014 A 
ATOM      3  C   UNL     1     -11.024  -3.355  -4.457  0.00  0.00    +0.013 A 
ATOM      4  C   UNL     1     -11.825  -2.268  -4.371  0.00  0.00    +0.046 A 
ATOM      5  S   UNL     1     -11.304  -1.548  -2.821  0.00  0.00    -0.101 S 
ATOM      6  C   UNL     1     -10.065  -2.747  -2.406  0.00  0.00    -0.004 A 
ATOM      7  C   UNL     1      -9.188  -2.794  -1.197  0.00  0.00    +0.061 C 
ATOM      8  C   UNL     1      -8.026  -3.763  -1.469  0.00  0.00    +0.114 C 
ATOM      9  N   UNL     1      -8.567  -4.959  -2.134  0.00  0.00    -0.289 N 
ATOM     10  C   UNL     1      -8.521  -6.160  -1.525  0.00  0.00    +0.234 C 
ATOM     11  O   UNL     1      -8.971  -7.140  -2.081  0.00  0.00    -0.274 OA
ENDROOT
BRANCH   1  12
ATOM     12  C   UNL     1      -8.054  -4.596  -4.506  0.00  0.00    +0.256 C 
BRANCH  12  13
ATOM     13  O   UNL     1      -7.402  -3.352  -4.240  0.00  0.00    -0.490 OA
BRANCH  13  17
ATOM     14  C   UNL     1      -4.326  -2.273  -6.769  0.00  0.00    -0.045 A 
ATOM     15  C   UNL     1      -4.682  -1.443  -5.722  0.00  0.00    +0.007 A 
ATOM     16  C   UNL     1      -5.712  -1.802  -4.873  0.00  0.00    +0.046 A 
ATOM     17  C   UNL     1      -6.389  -2.997  -5.073  0.00  0.00    +0.121 A 
ATOM     18  C   UNL     1      -6.030  -3.827  -6.125  0.00  0.00    +0.046 A 
ATOM     19  C   UNL     1      -5.003  -3.461  -6.973  0.00  0.00    +0.007 A 
BRANCH  14  21
ATOM     20  C   UNL     1      -3.538  -0.548  -8.366  0.00  0.00    +0.012 C 
ATOM     21  C   UNL     1      -3.202  -1.879  -7.692  0.00  0.00    +0.013 C 
ATOM     22  C   UNL     1      -1.909  -1.731  -6.887  0.00  0.00    +0.012 C 
ENDBRANCH  14  21
ENDBRANCH  13  17
ENDBRANCH  12  13
ENDBRANCH   1  12
BRANCH  10  23
ATOM     23  C   UNL     1      -7.912  -6.287  -0.152  0.00  0.00    +0.203 C 
BRANCH  23  24
ATOM     24  N   UNL     1      -7.983  -7.683   0.287  0.00  0.00    -0.290 N 
ATOM     25  C   UNL     1      -9.059  -8.120   0.971  0.00  0.00    +0.219 C 
ATOM     26  O   UNL     1      -9.078  -9.248   1.414  0.00  0.00    -0.275 OA
BRANCH  25  27
ATOM     27  C   UNL     1     -10.238  -7.206   1.186  0.00  0.00    +0.075 C 
ATOM     28  C   UNL     1     -10.143  -6.538   2.574  0.00  0.00    +0.013 C 
ATOM     29  C   UNL     1     -11.610  -6.477   3.067  0.00  0.00    +0.001 C 
ATOM     30  C   UNL     1     -12.197  -7.818   2.561  0.00  0.00    +0.001 C 
ATOM     31  C   UNL     1     -11.544  -8.019   1.178  0.00  0.00    +0.013 C 
ENDBRANCH  25  27
BRANCH  24  32
ATOM     32  C   UNL     1      -6.886  -8.604  -0.018  0.00  0.00    +0.139 C 
BRANCH  32  33
ATOM     33  C   UNL     1      -5.859  -8.567   1.116  0.00  0.00    +0.136 C 
ATOM     34  C   UNL     1      -4.671  -9.509   0.796  0.00  0.00    +0.035 C 
ATOM     35  C   UNL     1      -3.545  -8.862   1.648  0.00  0.00    +0.031 C 
ATOM     36  C   UNL     1      -3.894  -7.361   1.566  0.00  0.00    +0.160 C 
ATOM     37  O   UNL     1      -5.282  -7.256   1.224  0.00  0.00    -0.375 OA
ENDBRANCH  32  33
ENDBRANCH  24  32
ENDBRANCH  23  24
ENDBRANCH  10  23
TORSDOF 9
