REMARK  Name = ZINC04426834
REMARK  11 active torsions:
REMARK  status: ('A' for Active; 'I' for Inactive)
REMARK    1  A    between atoms: C_1  and  C_2
REMARK    2  A    between atoms: C_6  and  O_12
REMARK    3  A    between atoms: C_9  and  C_11
REMARK    4  A    between atoms: O_12  and  C_13
REMARK    5  A    between atoms: C_13  and  C_15
REMARK    6  A    between atoms: C_16  and  C_33
REMARK    7  A    between atoms: C_21  and  C_23
REMARK    8  A    between atoms: C_25  and  O_31
REMARK    9  A    between atoms: C_28  and  O_29
REMARK   10  A    between atoms: O_29  and  C_30
REMARK   11  A    between atoms: O_31  and  C_32
REMARK                            x       y       z     vdW  Elec       q    Type
REMARK                         _______ _______ _______ _____ _____    ______ ____
ROOT
ATOM      1  C   UNL     1      -1.372   3.209  -0.030  0.00  0.00    +0.078 C 
ATOM      2  C   UNL     1      -0.233   3.930  -0.115  0.00  0.00    +0.019 C 
ATOM      3  N   UNL     1       0.989   3.322  -0.088  0.00  0.00    -0.300 N 
ATOM      4  C   UNL     1       1.158   1.998   0.021  0.00  0.00    +0.135 C 
ATOM      5  S   UNL     1       2.748   1.365   0.041  0.00  0.00    -0.019 S 
ATOM      6  N   UNL     1       0.116   1.147   0.115  0.00  0.00    -0.315 N 
ATOM      7  C   UNL     1      -1.247   1.704   0.090  0.00  0.00    +0.145 C 
ATOM      8  C   UNL     1      -0.312   5.429  -0.240  0.00  0.00    +0.061 C 
ATOM      9  H   UNL     1       1.780   3.880  -0.152  0.00  0.00    +0.154 HD
ATOM     10  H   UNL     1       0.262   0.192   0.193  0.00  0.00    +0.149 HD
ENDROOT
BRANCH   7  11
ATOM     11  C   UNL     1      -1.983   1.078  -1.067  0.00  0.00    +0.022 A 
ATOM     12  C   UNL     1      -2.165   1.791  -2.236  0.00  0.00    +0.055 A 
ATOM     13  C   UNL     1      -2.842   1.216  -3.301  0.00  0.00    +0.121 A 
ATOM     14  C   UNL     1      -3.336  -0.076  -3.192  0.00  0.00    +0.049 A 
ATOM     15  C   UNL     1      -3.153  -0.789  -2.023  0.00  0.00    +0.049 A 
ATOM     16  C   UNL     1      -2.473  -0.215  -0.960  0.00  0.00    +0.126 A 
BRANCH  16  17
ATOM     17  O   UNL     1      -2.289  -0.918   0.189  0.00  0.00    -0.495 OA
ATOM     18  C   UNL     1      -2.716  -2.282   0.191  0.00  0.00    +0.277 C 
ENDBRANCH  16  17
BRANCH  13  19
ATOM     19  O   UNL     1      -3.021   1.917  -4.452  0.00  0.00    -0.495 OA
ATOM     20  C   UNL     1      -3.727   1.262  -5.508  0.00  0.00    +0.277 C 
ENDBRANCH  13  19
ENDBRANCH   7  11
BRANCH   1  21
ATOM     21  C   UNL     1      -2.639   3.837  -0.058  0.00  0.00    +0.339 C 
ATOM     22  O   UNL     1      -2.715   5.051  -0.111  0.00  0.00    -0.245 OA
BRANCH  21  23
ATOM     23  O   UNL     1      -3.763   3.092  -0.027  0.00  0.00    -0.458 OA
BRANCH  23  28
ATOM     24  C   UNL     1      -9.121   4.671  -1.132  0.00  0.00    +0.008 C 
ATOM     25  C   UNL     1      -7.790   3.925  -1.028  0.00  0.00    -0.011 C 
ATOM     26  C   UNL     1      -6.690   4.749  -1.701  0.00  0.00    +0.007 C 
ATOM     27  C   UNL     1      -5.358   4.002  -1.597  0.00  0.00    +0.045 C 
ATOM     28  C   UNL     1      -5.007   3.789  -0.123  0.00  0.00    +0.177 C 
ATOM     29  C   UNL     1      -6.106   2.965   0.549  0.00  0.00    +0.048 C 
ATOM     30  C   UNL     1      -7.438   3.711   0.446  0.00  0.00    -0.008 C 
ATOM     31  C   UNL     1      -8.538   2.887   1.118  0.00  0.00    +0.008 C 
ENDBRANCH  23  28
ENDBRANCH  21  23
ENDBRANCH   1  21
TORSDOF 6
