REMARK  Name = ZINC36032821
REMARK  10 active torsions:
REMARK  status: ('A' for Active; 'I' for Inactive)
REMARK    1  A    between atoms: C_1  and  C_2
REMARK    2  A    between atoms: C_5  and  S_8
REMARK    3  A    between atoms: S_8  and  N_11
REMARK    4  A    between atoms: C_18  and  C_34
REMARK    5  A    between atoms: N_22  and  C_23
REMARK    6  A    between atoms: C_23  and  C_24
REMARK    7  A    between atoms: C_28  and  C_30
REMARK    8  A    between atoms: C_34  and  C_35
REMARK    9  A    between atoms: C_35  and  C_36
REMARK   10  A    between atoms: C_35  and  C_37
REMARK                            x       y       z     vdW  Elec       q    Type
REMARK                         _______ _______ _______ _____ _____    ______ ____
ROOT
ATOM      1  N   UNL     1       2.772  -3.831   0.762  0.00  0.00    -0.177 NA
ATOM      2  C   UNL     1       2.896  -4.200  -0.655  0.00  0.00    +0.109 C 
ATOM      3  C   UNL     1       4.353  -4.009  -1.088  0.00  0.00    +0.023 C 
ATOM      4  C   UNL     1       5.268  -4.787  -0.145  0.00  0.00    +0.006 C 
ATOM      5  C   UNL     1       5.112  -4.277   1.287  0.00  0.00    +0.023 C 
ATOM      6  C   UNL     1       3.666  -4.467   1.739  0.00  0.00    +0.109 C 
ATOM      7  N   UNL     1       6.674  -4.638  -0.578  0.00  0.00    +0.401 N 
ATOM      8  C   UNL     1       6.879  -5.809  -1.463  0.00  0.00    +0.019 C 
ATOM      9  C   UNL     1       5.885  -6.841  -0.975  0.00  0.00    +0.201 C 
ATOM     10  O   UNL     1       5.912  -8.027  -1.229  0.00  0.00    -0.277 OA
ATOM     11  N   UNL     1       4.964  -6.219  -0.210  0.00  0.00    -0.309 N 
ATOM     12  H   UNL     1       6.799  -3.777  -1.090  0.00  0.00    -0.082 HD
ATOM     13  H   UNL     1       7.297  -4.676   0.215  0.00  0.00    -0.082 HD
ENDROOT
BRANCH   1  14
ATOM     14  S   UNL     1       1.650  -2.713   1.247  0.00  0.00    +0.061 S 
ATOM     15  O   UNL     1       1.388  -2.971   2.620  0.00  0.00    -0.153 OA
ATOM     16  O   UNL     1       0.625  -2.713   0.263  0.00  0.00    -0.153 OA
BRANCH  14  21
ATOM     17  C   UNL     1       4.295   2.703   0.984  0.00  0.00    +0.044 C 
ATOM     18  C   UNL     1       3.635   1.350   1.050  0.00  0.00    -0.050 A 
ATOM     19  C   UNL     1       2.966   0.853  -0.053  0.00  0.00    +0.005 A 
ATOM     20  C   UNL     1       2.360  -0.388   0.007  0.00  0.00    +0.029 A 
ATOM     21  C   UNL     1       2.423  -1.132   1.170  0.00  0.00    +0.105 A 
ATOM     22  C   UNL     1       3.093  -0.635   2.273  0.00  0.00    +0.029 A 
ATOM     23  C   UNL     1       3.702   0.604   2.211  0.00  0.00    +0.005 A 
ENDBRANCH  14  21
ENDBRANCH   1  14
BRANCH  11  24
ATOM     24  C   UNL     1       3.834  -6.874   0.454  0.00  0.00    +0.141 C 
BRANCH  24  25
ATOM     25  C   UNL     1       4.322  -7.587   1.689  0.00  0.00    -0.030 A 
ATOM     26  C   UNL     1       5.223  -8.629   1.576  0.00  0.00    +0.005 A 
ATOM     27  C   UNL     1       5.670  -9.282   2.709  0.00  0.00    +0.001 A 
ATOM     28  C   UNL     1       5.216  -8.894   3.955  0.00  0.00    +0.012 A 
ATOM     29  C   UNL     1       4.316  -7.851   4.069  0.00  0.00    +0.055 A 
ATOM     30  C   UNL     1       3.872  -7.195   2.936  0.00  0.00    +0.017 A 
BRANCH  29  31
ATOM     31  C   UNL     1       3.821  -7.428   5.428  0.00  0.00    +0.417 C 
ATOM     32  F   UNL     1       4.410  -8.232   6.410  0.00  0.00    -0.166 F 
ATOM     33  F   UNL     1       4.163  -6.090   5.653  0.00  0.00    -0.166 F 
ATOM     34  F   UNL     1       2.430  -7.569   5.482  0.00  0.00    -0.166 F 
ENDBRANCH  29  31
ENDBRANCH  24  25
ENDBRANCH  11  24
BRANCH   8  35
ATOM     35  C   UNL     1       6.591  -5.435  -2.918  0.00  0.00    -0.004 C 
BRANCH  35  36
ATOM     36  C   UNL     1       7.451  -4.234  -3.315  0.00  0.00    -0.018 C 
ATOM     37  C   UNL     1       8.928  -4.631  -3.284  0.00  0.00    +0.007 C 
ATOM     38  C   UNL     1       7.074  -3.781  -4.728  0.00  0.00    +0.007 C 
ENDBRANCH  35  36
ENDBRANCH   8  35
TORSDOF 7
