REMARK  Name = ZINC65788193
REMARK  5 active torsions:
REMARK  status: ('A' for Active; 'I' for Inactive)
REMARK    1  A    between atoms: C_3  and  N_23
REMARK    2  A    between atoms: C_4  and  N_10
REMARK    3  A    between atoms: C_6  and  C_7
REMARK    4  A    between atoms: N_13  and  C_14
REMARK    5  A    between atoms: C_14  and  C_15
REMARK                            x       y       z     vdW  Elec       q    Type
REMARK                         _______ _______ _______ _____ _____    ______ ____
ROOT
ATOM      1  C   UNL     1      -0.025   1.378   0.046  0.00  0.00    +0.015 A 
ATOM      2  C   UNL     1       1.155   2.089   0.030  0.00  0.00    +0.026 A 
ATOM      3  C   UNL     1       2.373   1.419   0.002  0.00  0.00    +0.051 A 
ATOM      4  C   UNL     1       2.405   0.022  -0.010  0.00  0.00    +0.057 A 
ATOM      5  C   UNL     1       1.224  -0.694   0.007  0.00  0.00    +0.038 A 
ATOM      6  C   UNL     1       0.000  -0.019   0.035  0.00  0.00    +0.038 A 
ENDROOT
BRANCH   4   7
ATOM      7  N   UNL     1       3.634  -0.652  -0.038  0.00  0.00    -0.268 N 
ATOM      8  C   UNL     1       3.706  -1.901  -0.540  0.00  0.00    +0.304 C 
ATOM      9  O   UNL     1       2.730  -2.404  -1.060  0.00  0.00    -0.252 OA
ATOM     10  N   UNL     1       4.861  -2.591  -0.465  0.00  0.00    -0.293 N 
ATOM     11  H   UNL     1       4.432  -0.219   0.302  0.00  0.00    +0.156 HD
ATOM     12  H   UNL     1       5.641  -2.189  -0.050  0.00  0.00    +0.151 HD
BRANCH  10  13
ATOM     13  C   UNL     1       4.940  -3.949  -1.010  0.00  0.00    +0.162 C 
BRANCH  13  14
ATOM     14  C   UNL     1       6.329  -4.495  -0.800  0.00  0.00    +0.078 A 
ATOM     15  C   UNL     1       6.722  -5.268   0.225  0.00  0.00    +0.118 A 
ATOM     16  N   UNL     1       8.073  -5.554   0.045  0.00  0.00    -0.300 N 
ATOM     17  C   UNL     1       9.069  -6.260   0.686  0.00  0.00    +0.100 A 
ATOM     18  C   UNL     1      10.303  -6.305   0.185  0.00  0.00    +0.067 A 
ATOM     19  S   UNL     1      10.139  -5.311  -1.290  0.00  0.00    -0.058 S 
ATOM     20  C   UNL     1       8.416  -4.912  -1.115  0.00  0.00    +0.178 A 
ATOM     21  N   UNL     1       7.381  -4.295  -1.609  0.00  0.00    -0.225 NA
ENDBRANCH  13  14
ENDBRANCH  10  13
ENDBRANCH   4   7
BRANCH   3  22
ATOM     22  N   UNL     1       3.563   2.142  -0.014  0.00  0.00    -0.328 N 
ATOM     23  C   UNL     1       4.177   2.546  -1.287  0.00  0.00    +0.105 C 
ATOM     24  C   UNL     1       4.419   4.058  -1.260  0.00  0.00    +0.019 C 
ATOM     25  C   UNL     1       5.246   4.416  -0.022  0.00  0.00    +0.003 C 
ATOM     26  C   UNL     1       4.472   4.028   1.240  0.00  0.00    +0.019 C 
ATOM     27  C   UNL     1       4.227   2.521   1.241  0.00  0.00    +0.105 C 
ENDBRANCH   3  22
BRANCH   6  28
ATOM     28  C   UNL     1      -1.264  -0.780   0.052  0.00  0.00    +0.242 C 
ATOM     29  O   UNL     1      -1.241  -1.996   0.042  0.00  0.00    -0.270 OA
ATOM     30  N   UNL     1      -2.443  -0.128   0.079  0.00  0.00    -0.325 N 
ATOM     31  H   UNL     1      -2.461   0.842   0.087  0.00  0.00    +0.145 HD
ATOM     32  H   UNL     1      -3.274  -0.628   0.090  0.00  0.00    +0.145 HD
ENDBRANCH   6  28
TORSDOF 5
