REMARK  Name = ZINC09550157
REMARK  6 active torsions:
REMARK  status: ('A' for Active; 'I' for Inactive)
REMARK    1  A    between atoms: C_1  and  C_2
REMARK    2  A    between atoms: C_2  and  C_27
REMARK    3  A    between atoms: N_5  and  C_9
REMARK    4  A    between atoms: C_9  and  C_10
REMARK    5  A    between atoms: N_12  and  C_13
REMARK    6  A    between atoms: N_12  and  C_19
REMARK                            x       y       z     vdW  Elec       q    Type
REMARK                         _______ _______ _______ _____ _____    ______ ____
ROOT
ATOM      1  C   UNL     1       7.251   0.308   1.728  0.00  0.00    +0.050 C 
ATOM      2  C   UNL     1       7.550   1.705   1.179  0.00  0.00    +0.168 C 
ATOM      3  C   UNL     1       6.413   2.659   1.490  0.00  0.00    +0.254 C 
ATOM      4  O   UNL     1       6.013   2.989   2.585  0.00  0.00    -0.272 OA
ATOM      5  N   UNL     1       5.939   3.062   0.294  0.00  0.00    -0.215 N 
ATOM      6  C   UNL     1       6.616   2.507  -0.718  0.00  0.00    +0.310 C 
ATOM      7  O   UNL     1       6.375   2.721  -1.890  0.00  0.00    -0.252 OA
ATOM      8  N   UNL     1       7.593   1.685  -0.293  0.00  0.00    -0.279 N 
ATOM      9  H   UNL     1       8.205   1.178  -0.849  0.00  0.00    +0.152 HD
ENDROOT
BRANCH   2  10
ATOM     10  C   UNL     1       8.848   2.227   1.740  0.00  0.00    +0.138 A 
ATOM     11  C   UNL     1      10.049   2.067   1.169  0.00  0.00    +0.056 A 
ATOM     12  C   UNL     1      11.014   2.731   2.054  0.00  0.00    +0.020 A 
ATOM     13  C   UNL     1      12.395   2.918   2.026  0.00  0.00    +0.011 A 
ATOM     14  C   UNL     1      13.007   3.604   3.038  0.00  0.00    +0.001 A 
ATOM     15  C   UNL     1      12.263   4.115   4.091  0.00  0.00    +0.004 A 
ATOM     16  C   UNL     1      10.896   3.941   4.136  0.00  0.00    +0.047 A 
ATOM     17  C   UNL     1      10.254   3.247   3.118  0.00  0.00    +0.135 A 
ATOM     18  O   UNL     1       8.966   2.925   2.883  0.00  0.00    -0.457 OA
ENDBRANCH   2  10
BRANCH   5  19
ATOM     19  C   UNL     1       4.824   3.997   0.124  0.00  0.00    +0.214 C 
BRANCH  19  20
ATOM     20  C   UNL     1       3.530   3.228   0.054  0.00  0.00    +0.238 C 
ATOM     21  O   UNL     1       3.545   2.016   0.046  0.00  0.00    -0.273 OA
ATOM     22  N   UNL     1       2.356   3.889  -0.000  0.00  0.00    -0.265 N 
BRANCH  22  23
ATOM     23  C   UNL     1       2.342   5.350  -0.100  0.00  0.00    +0.104 C 
ATOM     24  C   UNL     1       1.557   5.768  -1.354  0.00  0.00    +0.047 C 
ATOM     25  C   UNL     1       1.289   7.298  -1.270  0.00  0.00    +0.168 C 
ATOM     26  S   UNL     1       0.874   7.470   0.517  0.00  0.00    -0.029 S 
ATOM     27  O   UNL     1      -0.533   7.357   0.678  0.00  0.00    -0.174 OA
ATOM     28  O   UNL     1       1.550   8.604   1.041  0.00  0.00    -0.174 OA
ATOM     29  C   UNL     1       1.674   5.945   1.163  0.00  0.00    +0.188 C 
ENDBRANCH  22  23
BRANCH  22  30
ATOM     30  C   UNL     1       1.151   3.178   0.039  0.00  0.00    +0.037 A 
ATOM     31  C   UNL     1       1.160   1.791  -0.015  0.00  0.00    +0.023 A 
ATOM     32  C   UNL     1      -0.031   1.093   0.023  0.00  0.00    +0.002 A 
ATOM     33  C   UNL     1      -1.231   1.774   0.111  0.00  0.00    +0.000 A 
ATOM     34  C   UNL     1      -1.243   3.155   0.171  0.00  0.00    +0.002 A 
ATOM     35  C   UNL     1      -0.055   3.859   0.133  0.00  0.00    +0.023 A 
ENDBRANCH  22  30
ENDBRANCH  19  20
ENDBRANCH   5  19
TORSDOF 5
