REMARK  Name = ZINC47075502
REMARK  5 active torsions:
REMARK  status: ('A' for Active; 'I' for Inactive)
REMARK    1  A    between atoms: C_1  and  C_2
REMARK    2  A    between atoms: C_2  and  C_3
REMARK    3  A    between atoms: C_2  and  C_4
REMARK    4  A    between atoms: C_4  and  C_5
REMARK    5  A    between atoms: C_11  and  C_13
REMARK                            x       y       z     vdW  Elec       q    Type
REMARK                         _______ _______ _______ _____ _____    ______ ____
ROOT
ATOM      1  C   UNL     1      -1.416  -2.035  -0.119  0.00  0.00    +0.104 A 
ATOM      2  N   UNL     1      -1.372  -2.967   0.812  0.00  0.00    -0.145 NA
ATOM      3  N   UNL     1      -1.364  -4.196   0.532  0.00  0.00    -0.126 NA
ATOM      4  C   UNL     1      -1.399  -4.628  -0.721  0.00  0.00    +0.188 A 
ATOM      5  S   UNL     1      -1.457  -3.061  -1.586  0.00  0.00    -0.035 S 
ATOM      6  N   UNL     1      -1.397  -5.925  -1.220  0.00  0.00    -0.259 N 
ATOM      7  C   UNL     1      -1.355  -6.973  -0.373  0.00  0.00    +0.250 C 
ATOM      8  O   UNL     1      -1.318  -6.784   0.827  0.00  0.00    -0.270 OA
ATOM      9  H   UNL     1      -1.426  -6.077  -2.178  0.00  0.00    +0.157 HD
ENDROOT
BRANCH   7  10
ATOM     10  C   UNL     1      -1.353  -8.353  -0.904  0.00  0.00    +0.041 A 
ATOM     11  C   UNL     1      -1.389  -8.573  -2.282  0.00  0.00    +0.051 A 
ATOM     12  C   UNL     1      -1.387  -9.865  -2.772  0.00  0.00    +0.125 A 
ATOM     13  C   UNL     1      -1.349 -10.940  -1.898  0.00  0.00    +0.053 A 
ATOM     14  C   UNL     1      -1.313 -10.726  -0.531  0.00  0.00    +0.021 A 
ATOM     15  C   UNL     1      -1.309  -9.440  -0.030  0.00  0.00    +0.028 A 
ATOM     16 BR   UNL     1      -1.263 -12.200   0.653  0.00  0.00    -0.050 Br
ATOM     17  F   UNL     1      -1.422 -10.081  -4.105  0.00  0.00    -0.205 F 
ENDBRANCH   7  10
BRANCH   1  18
ATOM     18  C   UNL     1      -1.433  -0.534   0.013  0.00  0.00    +0.068 C 
BRANCH  18  20
ATOM     19  C   UNL     1      -0.019   1.526   0.010  0.00  0.00    +0.007 C 
ATOM     20  C   UNL     1       0.002  -0.004   0.002  0.00  0.00    -0.011 C 
ATOM     21  C   UNL     1       0.742  -0.511   1.242  0.00  0.00    +0.007 C 
ENDBRANCH  18  20
ENDBRANCH   1  18
TORSDOF 3
