REMARK  Name = ZINC64665246
REMARK  9 active torsions:
REMARK  status: ('A' for Active; 'I' for Inactive)
REMARK    1  A    between atoms: C_1  and  C_2
REMARK    2  A    between atoms: C_2  and  C_3
REMARK    3  A    between atoms: C_2  and  C_4
REMARK    4  A    between atoms: C_4  and  C_5
REMARK    5  A    between atoms: C_7  and  N_11
REMARK    6  A    between atoms: N_8  and  C_10
REMARK    7  A    between atoms: C_12  and  C_14
REMARK    8  A    between atoms: C_14  and  N_15
REMARK    9  A    between atoms: C_16  and  C_18
REMARK                            x       y       z     vdW  Elec       q    Type
REMARK                         _______ _______ _______ _____ _____    ______ ____
ROOT
ATOM      1  N   UNL     1      -2.211  -5.388   0.871  0.00  0.00    -0.269 N 
ATOM      2  C   UNL     1      -2.943  -5.360   2.003  0.00  0.00    +0.235 C 
ATOM      3  O   UNL     1      -3.226  -4.298   2.515  0.00  0.00    -0.274 OA
ATOM      4  H   UNL     1      -1.984  -6.237   0.461  0.00  0.00    +0.156 HD
ENDROOT
BRANCH   1   7
ATOM      5  C   UNL     1      -1.416  -2.035  -0.119  0.00  0.00    +0.065 A 
ATOM      6  C   UNL     1      -2.024  -2.940   0.755  0.00  0.00    +0.068 A 
ATOM      7  C   UNL     1      -1.780  -4.196   0.290  0.00  0.00    +0.123 A 
ATOM      8  N   UNL     1      -1.044  -4.078  -0.839  0.00  0.00    -0.253 N 
ATOM      9  N   UNL     1      -0.834  -2.713  -1.075  0.00  0.00    -0.175 NA
ATOM     10  C   UNL     1      -0.557  -5.181  -1.670  0.00  0.00    +0.174 C 
BRANCH   5  11
ATOM     11  C   UNL     1      -1.433  -0.534   0.013  0.00  0.00    +0.060 C 
BRANCH  11  13
ATOM     12  C   UNL     1      -0.019   1.526   0.010  0.00  0.00    +0.007 C 
ATOM     13  C   UNL     1       0.002  -0.004   0.002  0.00  0.00    -0.011 C 
ATOM     14  C   UNL     1       0.742  -0.511   1.242  0.00  0.00    +0.007 C 
ENDBRANCH  11  13
ENDBRANCH   5  11
ENDBRANCH   1   7
BRANCH   2  15
ATOM     15  C   UNL     1      -3.409  -6.648   2.631  0.00  0.00    +0.200 C 
BRANCH  15  16
ATOM     16  N   UNL     1      -4.179  -6.351   3.841  0.00  0.00    -0.303 N 
ATOM     17  C   UNL     1      -4.699  -7.356   4.573  0.00  0.00    +0.245 C 
ATOM     18  O   UNL     1      -4.528  -8.509   4.229  0.00  0.00    -0.270 OA
ATOM     19  H   UNL     1      -4.314  -5.430   4.116  0.00  0.00    +0.150 HD
BRANCH  17  20
ATOM     20  C   UNL     1      -5.475  -7.056   5.793  0.00  0.00    +0.040 A 
ATOM     21  C   UNL     1      -5.676  -5.731   6.186  0.00  0.00    +0.017 A 
ATOM     22  C   UNL     1      -6.402  -5.453   7.324  0.00  0.00    +0.050 A 
ATOM     23  C   UNL     1      -6.934  -6.487   8.083  0.00  0.00    +0.166 A 
ATOM     24  C   UNL     1      -6.736  -7.812   7.696  0.00  0.00    +0.167 A 
ATOM     25  C   UNL     1      -6.014  -8.097   6.553  0.00  0.00    +0.062 A 
ATOM     26  O   UNL     1      -7.354  -8.627   8.600  0.00  0.00    -0.453 OA
ATOM     27  C   UNL     1      -7.582  -7.808   9.762  0.00  0.00    +0.466 C 
ATOM     28  O   UNL     1      -7.676  -6.474   9.228  0.00  0.00    -0.453 OA
ENDBRANCH  17  20
ENDBRANCH  15  16
ENDBRANCH   2  15
TORSDOF 6
