REMARK  Name = ZINC08996416
REMARK  5 active torsions:
REMARK  status: ('A' for Active; 'I' for Inactive)
REMARK    1  A    between atoms: C_1  and  O_2
REMARK    2  A    between atoms: O_2  and  C_3
REMARK    3  A    between atoms: C_6  and  N_9
REMARK    4  A    between atoms: C_10  and  C_12
REMARK    5  A    between atoms: C_22  and  C_25
REMARK                            x       y       z     vdW  Elec       q    Type
REMARK                         _______ _______ _______ _____ _____    ______ ____
ROOT
ATOM      1  C   UNL     1       3.363  -4.458  -5.442  0.00  0.00    +0.119 C 
ATOM      2  C   UNL     1       2.699  -4.130  -6.779  0.00  0.00    +0.115 C 
ATOM      3  C   UNL     1       1.439  -4.944  -6.920  0.00  0.00    +0.237 C 
ATOM      4  N   UNL     1       1.400  -6.206  -6.514  0.00  0.00    -0.185 NA
ATOM      5  C   UNL     1       2.351  -6.743  -5.773  0.00  0.00    +0.042 C 
ATOM      6  C   UNL     1       3.370  -5.954  -5.232  0.00  0.00    +0.026 C 
ATOM      7  C   UNL     1       4.378  -6.501  -4.512  0.00  0.00    +0.162 C 
ATOM      8  O   UNL     1       5.352  -5.707  -4.031  0.00  0.00    -0.292 OA
ATOM      9  C   UNL     1       4.428  -7.980  -4.239  0.00  0.00    +0.091 C 
ATOM     10  C   UNL     1       2.995  -8.518  -4.161  0.00  0.00    +0.068 C 
ATOM     11  C   UNL     1       2.295  -8.224  -5.487  0.00  0.00    +0.065 C 
ATOM     12  O   UNL     1       0.448  -4.439  -7.410  0.00  0.00    -0.274 OA
ENDROOT
BRANCH  10  13
ATOM     13  C   UNL     1       3.025 -10.005  -3.918  0.00  0.00    +0.109 A 
ATOM     14  C   UNL     1       2.484 -10.641  -2.863  0.00  0.00    +0.045 A 
ATOM     15  C   UNL     1       2.745 -12.019  -3.038  0.00  0.00    +0.041 A 
ATOM     16  C   UNL     1       3.430 -12.143  -4.189  0.00  0.00    +0.195 A 
ATOM     17  O   UNL     1       3.591 -10.921  -4.721  0.00  0.00    -0.468 OA
ENDBRANCH  10  13
BRANCH   1  19
ATOM     18  N   UNL     1       2.458  -2.458  -4.302  0.00  0.00    -0.285 N 
ATOM     19  C   UNL     1       2.596  -3.798  -4.325  0.00  0.00    +0.225 C 
ATOM     20  O   UNL     1       2.102  -4.474  -3.447  0.00  0.00    -0.275 OA
ATOM     21  H   UNL     1       2.795  -1.923  -5.038  0.00  0.00    +0.155 HD
BRANCH  18  25
ATOM     22  C   UNL     1       0.586  -0.610  -1.067  0.00  0.00    +0.120 A 
ATOM     23  C   UNL     1       0.148  -1.851  -1.504  0.00  0.00    +0.047 A 
ATOM     24  C   UNL     1       0.768  -2.464  -2.575  0.00  0.00    +0.027 A 
ATOM     25  C   UNL     1       1.829  -1.837  -3.215  0.00  0.00    +0.034 A 
ATOM     26  C   UNL     1       2.266  -0.594  -2.777  0.00  0.00    +0.027 A 
ATOM     27  C   UNL     1       1.642   0.020  -1.709  0.00  0.00    +0.047 A 
BRANCH  22  29
ATOM     28  C   UNL     1      -1.105  -0.713   0.602  0.00  0.00    +0.277 C 
ATOM     29  O   UNL     1      -0.025  -0.007  -0.011  0.00  0.00    -0.495 OA
ENDBRANCH  22  29
ENDBRANCH  18  25
ENDBRANCH   1  19
TORSDOF 4
