REMARK  Name = ZINC66853905
REMARK  9 active torsions:
REMARK  status: ('A' for Active; 'I' for Inactive)
REMARK    1  A    between atoms: C_1  and  C_2
REMARK    2  A    between atoms: C_2  and  C_4
REMARK    3  A    between atoms: C_2  and  C_24
REMARK    4  A    between atoms: C_4  and  N_5
REMARK    5  A    between atoms: N_5  and  C_6
REMARK    6  A    between atoms: N_5  and  C_7
REMARK    7  A    between atoms: C_7  and  C_8
REMARK    8  A    between atoms: C_8  and  C_9
REMARK    9  A    between atoms: N_11  and  N_12
REMARK                            x       y       z     vdW  Elec       q    Type
REMARK                         _______ _______ _______ _____ _____    ______ ____
ROOT
ATOM      1  C   UNL     1       0.449  -0.615  -6.124  0.00  0.00    +0.228 C 
ATOM      2  O   UNL     1       1.452  -1.291  -6.043  0.00  0.00    -0.274 OA
ATOM      3  N   UNL     1      -0.110  -0.380  -7.327  0.00  0.00    -0.224 N 
ATOM      4  H   UNL     1      -0.913   0.161  -7.392  0.00  0.00    +0.174 HD
ENDROOT
BRANCH   3   5
ATOM      5  N   UNL     1       0.468  -0.917  -8.485  0.00  0.00    -0.137 N 
ATOM      6  C   UNL     1       1.184  -0.201  -9.377  0.00  0.00    +0.263 C 
ATOM      7  O   UNL     1       1.439   0.983  -9.332  0.00  0.00    -0.271 OA
ATOM      8  C   UNL     1       1.600  -1.187 -10.444  0.00  0.00    +0.114 C 
ATOM      9  C   UNL     1       3.120  -1.284 -10.515  0.00  0.00    +0.035 C 
ATOM     10  C   UNL     1       3.519  -2.309 -11.580  0.00  0.00    +0.003 C 
ATOM     11  C   UNL     1       2.955  -1.880 -12.936  0.00  0.00    +0.000 C 
ATOM     12  C   UNL     1       1.429  -1.810 -12.856  0.00  0.00    +0.003 C 
ATOM     13  C   UNL     1       1.021  -0.783 -11.796  0.00  0.00    +0.035 C 
ATOM     14  N   UNL     1       1.023  -2.461  -9.998  0.00  0.00    -0.284 N 
ATOM     15  C   UNL     1       0.384  -2.205  -8.840  0.00  0.00    +0.326 C 
ATOM     16  O   UNL     1      -0.206  -3.047  -8.193  0.00  0.00    -0.251 OA
ATOM     17  H   UNL     1       1.092  -3.319 -10.445  0.00  0.00    +0.151 HD
ENDBRANCH   3   5
BRANCH   1  18
ATOM     18  C   UNL     1      -0.173  -0.037  -4.878  0.00  0.00    +0.079 C 
BRANCH  18  19
ATOM     19  C   UNL     1       0.651  -0.451  -3.658  0.00  0.00    -0.070 C 
BRANCH  19  20
ATOM     20  N   UNL     1       0.044   0.112  -2.444  0.00  0.00    +0.379 N 
ATOM     21  C   UNL     1       0.128   1.578  -2.490  0.00  0.00    -0.096 C 
ATOM     22  H   UNL     1      -0.923  -0.169  -2.390  0.00  0.00    -0.082 HD
BRANCH  20  23
ATOM     23  C   UNL     1       0.764  -0.383  -1.262  0.00  0.00    -0.071 C 
BRANCH  23  25
ATOM     24  C   UNL     1       0.859  -0.326   1.234  0.00  0.00    +0.010 C 
ATOM     25  C   UNL     1       0.046   0.085   0.005  0.00  0.00    -0.001 C 
BRANCH  25  26
ATOM     26  C   UNL     1      -1.320  -0.549   0.071  0.00  0.00    -0.046 A 
ATOM     27  C   UNL     1      -1.442  -1.925   0.113  0.00  0.00    +0.004 A 
ATOM     28  C   UNL     1      -2.694  -2.507   0.174  0.00  0.00    +0.000 A 
ATOM     29  C   UNL     1      -3.825  -1.712   0.194  0.00  0.00    +0.000 A 
ATOM     30  C   UNL     1      -3.703  -0.336   0.153  0.00  0.00    +0.000 A 
ATOM     31  C   UNL     1      -2.450   0.246   0.097  0.00  0.00    +0.004 A 
ENDBRANCH  25  26
ENDBRANCH  23  25
ENDBRANCH  20  23
ENDBRANCH  19  20
ENDBRANCH  18  19
ENDBRANCH   1  18
TORSDOF 7
