REMARK  Name = ZINC39710690
REMARK  12 active torsions:
REMARK  status: ('A' for Active; 'I' for Inactive)
REMARK    1  A    between atoms: C_1  and  C_2
REMARK    2  A    between atoms: C_7  and  C_14
REMARK    3  A    between atoms: C_14  and  C_16
REMARK    4  A    between atoms: C_14  and  N_26
REMARK    5  A    between atoms: N_21  and  C_22
REMARK    6  A    between atoms: C_22  and  C_23
REMARK    7  A    between atoms: C_22  and  C_24
REMARK    8  A    between atoms: C_22  and  C_25
REMARK    9  A    between atoms: N_26  and  C_27
REMARK   10  A    between atoms: N_26  and  C_33
REMARK   11  A    between atoms: C_27  and  C_28
REMARK   12  A    between atoms: C_33  and  C_34
REMARK                            x       y       z     vdW  Elec       q    Type
REMARK                         _______ _______ _______ _____ _____    ______ ____
ROOT
ATOM      1  C   UNL     1       1.296  -5.768   1.628  0.00  0.00    -0.008 C 
ENDROOT
BRANCH   1   8
ATOM      2  C   UNL     1       1.012   1.436  -0.429  0.00  0.00    +0.044 C 
ATOM      3  C   UNL     1       0.885  -0.063  -0.331  0.00  0.00    -0.049 A 
ATOM      4  C   UNL     1       1.107  -0.830  -1.475  0.00  0.00    +0.004 A 
ATOM      5  C   UNL     1       1.008  -2.184  -1.449  0.00  0.00    +0.010 A 
ATOM      6  C   UNL     1       0.659  -2.842  -0.189  0.00  0.00    -0.007 A 
ATOM      7  C   UNL     1       0.549  -4.198  -0.116  0.00  0.00    -0.006 C 
ATOM      8  C   UNL     1       0.185  -4.794   1.230  0.00  0.00    +0.088 C 
ATOM      9  C   UNL     1      -0.026  -3.836   2.380  0.00  0.00    +0.223 C 
ATOM     10  O   UNL     1      -0.319  -4.260   3.482  0.00  0.00    -0.275 OA
ATOM     11  N   UNL     1       0.111  -2.535   2.184  0.00  0.00    -0.285 N 
ATOM     12  C   UNL     1       0.430  -2.007   1.003  0.00  0.00    +0.041 A 
ATOM     13  C   UNL     1       0.564  -0.613   0.869  0.00  0.00    +0.027 A 
ATOM     14  H   UNL     1      -0.029  -1.937   2.935  0.00  0.00    +0.155 HD
ENDBRANCH   1   8
BRANCH   1  15
ATOM     15  C   UNL     1       1.280  -6.973   0.686  0.00  0.00    +0.205 C 
ATOM     16  N   UNL     1       2.487  -7.788   0.875  0.00  0.00    -0.152 NA
ATOM     17  N   UNL     1       3.121  -7.814  -0.182  0.00  0.00    -0.070 NA
ATOM     18  N   UNL     1       2.509  -7.082  -1.199  0.00  0.00    -0.179 N 
ATOM     19  N   UNL     1       1.347  -6.528  -0.722  0.00  0.00    -0.183 NA
ATOM     20  H   UNL     1       2.851  -6.981  -2.101  0.00  0.00    +0.191 HD
BRANCH  19  21
ATOM     21  C   UNL     1       0.183  -7.006  -1.481  0.00  0.00    +0.035 C 
ATOM     22  C   UNL     1      -1.101  -6.581  -0.766  0.00  0.00    +0.029 C 
ATOM     23  C   UNL     1       0.209  -6.402  -2.886  0.00  0.00    +0.029 C 
ATOM     24  C   UNL     1       0.231  -8.532  -1.581  0.00  0.00    +0.029 C 
ENDBRANCH  19  21
ENDBRANCH   1  15
BRANCH   1  25
ATOM     25  N   UNL     1       1.078  -6.222   3.008  0.00  0.00    +0.392 N 
ATOM     26  H   UNL     1       1.045  -5.423   3.624  0.00  0.00    -0.080 HD
BRANCH  25  27
ATOM     27  C   UNL     1      -0.193  -6.954   3.087  0.00  0.00    -0.002 C 
BRANCH  27  28
ATOM     28  C   UNL     1      -0.487  -7.296   4.525  0.00  0.00    +0.089 A 
ATOM     29  C   UNL     1      -1.182  -6.533   5.389  0.00  0.00    +0.042 A 
ATOM     30  C   UNL     1      -1.216  -7.232   6.617  0.00  0.00    +0.041 A 
ATOM     31  C   UNL     1      -0.539  -8.380   6.431  0.00  0.00    +0.195 A 
ATOM     32  O   UNL     1      -0.106  -8.415   5.161  0.00  0.00    -0.470 OA
ENDBRANCH  27  28
ENDBRANCH  25  27
BRANCH  25  33
ATOM     33  C   UNL     1       2.179  -7.106   3.412  0.00  0.00    -0.034 C 
BRANCH  33  34
ATOM     34  C   UNL     1       3.471  -6.331   3.417  0.00  0.00    -0.027 A 
ATOM     35  C   UNL     1       4.085  -5.700   4.447  0.00  0.00    +0.009 A 
ATOM     36  C   UNL     1       5.279  -5.044   4.216  0.00  0.00    +0.008 A 
ATOM     37  C   UNL     1       5.801  -5.050   2.965  0.00  0.00    +0.045 A 
ATOM     38  S   UNL     1       4.594  -6.010   2.066  0.00  0.00    -0.103 S 
ENDBRANCH  33  34
ENDBRANCH  25  33
ENDBRANCH   1  25
TORSDOF 8
