REMARK  Name = ZINC08014220
REMARK  7 active torsions:
REMARK  status: ('A' for Active; 'I' for Inactive)
REMARK    1  A    between atoms: C_1  and  C_2
REMARK    2  A    between atoms: C_9  and  N_14
REMARK    3  A    between atoms: C_15  and  C_17
REMARK    4  A    between atoms: C_20  and  S_25
REMARK    5  A    between atoms: C_22  and  O_23
REMARK    6  A    between atoms: O_23  and  C_24
REMARK    7  A    between atoms: S_25  and  C_26
REMARK                            x       y       z     vdW  Elec       q    Type
REMARK                         _______ _______ _______ _____ _____    ______ ____
ROOT
ATOM      1  N   UNL     1      -2.615   3.018   4.577  0.00  0.00    -0.281 N 
ATOM      2  C   UNL     1      -1.857   2.508   3.585  0.00  0.00    +0.252 C 
ATOM      3  O   UNL     1      -1.641   1.312   3.538  0.00  0.00    -0.270 OA
ATOM      4  H   UNL     1      -2.724   3.978   4.659  0.00  0.00    +0.155 HD
ENDROOT
BRANCH   1  12
ATOM      5  C   UNL     1      -6.465  -2.300   8.672  0.00  0.00    +0.062 C 
ATOM      6  C   UNL     1      -6.126  -1.212   7.652  0.00  0.00    +0.256 C 
ATOM      7  C   UNL     1      -5.643  -1.853   6.375  0.00  0.00    +0.258 C 
ATOM      8  O   UNL     1      -6.032  -2.959   6.065  0.00  0.00    -0.271 OA
ATOM      9  N   UNL     1      -4.776  -1.191   5.579  0.00  0.00    -0.279 N 
ATOM     10  C   UNL     1      -4.315   0.071   5.978  0.00  0.00    +0.077 A 
ATOM     11  C   UNL     1      -3.698   0.917   5.072  0.00  0.00    +0.050 A 
ATOM     12  C   UNL     1      -3.243   2.161   5.489  0.00  0.00    +0.036 A 
ATOM     13  C   UNL     1      -3.417   2.558   6.808  0.00  0.00    +0.027 A 
ATOM     14  C   UNL     1      -4.037   1.716   7.712  0.00  0.00    +0.049 A 
ATOM     15  C   UNL     1      -4.488   0.473   7.302  0.00  0.00    +0.143 A 
ATOM     16  O   UNL     1      -5.102  -0.365   8.180  0.00  0.00    -0.478 OA
ATOM     17  H   UNL     1      -4.476  -1.583   4.744  0.00  0.00    +0.155 HD
ENDBRANCH   1  12
BRANCH   2  18
ATOM     18  C   UNL     1      -1.292   3.399   2.559  0.00  0.00    +0.079 A 
ATOM     19  C   UNL     1      -1.540   4.775   2.610  0.00  0.00    +0.018 A 
ATOM     20  C   UNL     1      -1.016   5.601   1.659  0.00  0.00    +0.015 A 
ATOM     21  C   UNL     1      -0.232   5.082   0.629  0.00  0.00    +0.011 A 
ATOM     22  C   UNL     1       0.027   3.717   0.568  0.00  0.00    +0.061 A 
ATOM     23  C   UNL     1      -0.503   2.871   1.525  0.00  0.00    +0.133 A 
BRANCH  23  24
ATOM     24  O   UNL     1      -0.258   1.538   1.467  0.00  0.00    -0.494 OA
ATOM     25  C   UNL     1       0.553   1.073   0.387  0.00  0.00    +0.277 C 
ENDBRANCH  23  24
BRANCH  21  26
ATOM     26  S   UNL     1       0.438   6.159  -0.593  0.00  0.00    -0.128 S 
ATOM     27  C   UNL     1      -0.152   7.802  -0.101  0.00  0.00    +0.090 C 
ENDBRANCH  21  26
ENDBRANCH   2  18
TORSDOF 4
