REMARK  Name = ZINC00689748
REMARK  9 active torsions:
REMARK  status: ('A' for Active; 'I' for Inactive)
REMARK    1  A    between atoms: C_1  and  C_2
REMARK    2  A    between atoms: C_3  and  C_24
REMARK    3  A    between atoms: C_4  and  C_14
REMARK    4  A    between atoms: C_17  and  O_22
REMARK    5  A    between atoms: C_19  and  O_20
REMARK    6  A    between atoms: O_20  and  C_21
REMARK    7  A    between atoms: O_22  and  C_23
REMARK    8  A    between atoms: N_26  and  C_27
REMARK    9  A    between atoms: C_29  and  C_34
REMARK                            x       y       z     vdW  Elec       q    Type
REMARK                         _______ _______ _______ _____ _____    ______ ____
ROOT
ATOM      1  C   UNL     1      -3.795  -1.842  -0.095  0.00  0.00    +0.061 C 
ATOM      2  C   UNL     1      -2.552  -2.694  -0.069  0.00  0.00    +0.014 C 
ATOM      3  C   UNL     1      -1.344  -2.109  -0.022  0.00  0.00    +0.043 C 
ATOM      4  C   UNL     1      -0.085  -2.924   0.006  0.00  0.00    +0.094 C 
ATOM      5  C   UNL     1      -0.345  -4.339  -0.441  0.00  0.00    +0.024 C 
ATOM      6  C   UNL     1      -1.600  -4.836  -0.464  0.00  0.00    +0.015 C 
ATOM      7  N   UNL     1      -2.662  -4.057  -0.094  0.00  0.00    -0.321 N 
ATOM      8  C   UNL     1      -1.864  -6.258  -0.893  0.00  0.00    +0.051 C 
ATOM      9  C   UNL     1      -0.820  -6.685  -1.927  0.00  0.00    +0.014 C 
ATOM     10  C   UNL     1       0.571  -6.542  -1.301  0.00  0.00    +0.080 C 
ATOM     11  C   UNL     1       0.754  -5.124  -0.833  0.00  0.00    +0.162 C 
ATOM     12  O   UNL     1       1.871  -4.649  -0.792  0.00  0.00    -0.292 OA
ATOM     13  H   UNL     1      -3.612  -4.537   0.185  0.00  0.00    +0.152 HD
ENDROOT
BRANCH   4  14
ATOM     14  C   UNL     1       0.460  -2.946   1.411  0.00  0.00    +0.007 A 
ATOM     15  C   UNL     1      -0.305  -3.460   2.440  0.00  0.00    +0.012 A 
ATOM     16  C   UNL     1       0.193  -3.486   3.728  0.00  0.00    +0.046 A 
ATOM     17  C   UNL     1       1.460  -2.985   3.993  0.00  0.00    +0.124 A 
ATOM     18  C   UNL     1       2.227  -2.463   2.964  0.00  0.00    +0.091 A 
ATOM     19  C   UNL     1       1.727  -2.443   1.671  0.00  0.00    +0.128 A 
BRANCH  19  20
ATOM     20  O   UNL     1       2.476  -1.932   0.659  0.00  0.00    -0.495 OA
ATOM     21  C   UNL     1       3.771  -1.432   1.000  0.00  0.00    +0.277 C 
ENDBRANCH  19  20
BRANCH  17  22
ATOM     22  O   UNL     1       1.948  -3.006   5.262  0.00  0.00    -0.495 OA
ATOM     23  C   UNL     1       1.102  -3.558   6.273  0.00  0.00    +0.277 C 
ENDBRANCH  17  22
ENDBRANCH   4  14
BRANCH   3  24
ATOM     24  C   UNL     1      -1.257  -0.695  -0.005  0.00  0.00    +0.247 C 
ATOM     25  O   UNL     1      -1.086  -0.083  -1.044  0.00  0.00    -0.270 OA
ATOM     26  N   UNL     1      -1.363  -0.028   1.161  0.00  0.00    -0.280 N 
ATOM     27  H   UNL     1      -1.424  -0.583   2.109  0.00  0.00    +0.155 HD
BRANCH  26  28
ATOM     28  C   UNL     1      -1.395   1.371   1.166  0.00  0.00    +0.053 A 
ATOM     29  C   UNL     1      -1.828   2.061   0.042  0.00  0.00    +0.037 A 
ATOM     30  C   UNL     1      -1.864   3.442   0.052  0.00  0.00    +0.057 A 
ATOM     31  C   UNL     1      -1.457   4.138   1.176  0.00  0.00    +0.014 A 
ATOM     32  C   UNL     1      -1.020   3.455   2.295  0.00  0.00    +0.022 A 
ATOM     33  C   UNL     1      -0.987   2.073   2.294  0.00  0.00    +0.062 A 
ATOM     34 CL   UNL     1      -0.437   1.215   3.700  0.00  0.00    -0.082 Cl
BRANCH  30  35
ATOM     35  C   UNL     1      -2.339   4.191  -1.166  0.00  0.00    +0.417 C 
ATOM     36  F   UNL     1      -2.279   5.567  -0.920  0.00  0.00    -0.166 F 
ATOM     37  F   UNL     1      -1.522   3.876  -2.256  0.00  0.00    -0.166 F 
ATOM     38  F   UNL     1      -3.659   3.826  -1.452  0.00  0.00    -0.166 F 
ENDBRANCH  30  35
ENDBRANCH  26  28
ENDBRANCH   3  24
TORSDOF 6
