REMARK  Name = ZINC66461959
REMARK  4 active torsions:
REMARK  status: ('A' for Active; 'I' for Inactive)
REMARK    1  A    between atoms: C_1  and  C_2
REMARK    2  A    between atoms: C_9  and  N_12
REMARK    3  A    between atoms: C_13  and  C_15
REMARK    4  A    between atoms: C_15  and  C_16
REMARK                            x       y       z     vdW  Elec       q    Type
REMARK                         _______ _______ _______ _____ _____    ______ ____
ROOT
ATOM      1  N   UNL     1       0.045  -1.961   3.623  0.00  0.00    -0.283 N 
ATOM      2  C   UNL     1      -0.042  -2.620   4.795  0.00  0.00    +0.223 C 
ATOM      3  O   UNL     1      -0.025  -3.833   4.811  0.00  0.00    -0.275 OA
ATOM      4  H   UNL     1       0.112  -0.993   3.615  0.00  0.00    +0.155 HD
ENDROOT
BRANCH   1  13
ATOM      5  C   UNL     1       2.399   0.969   0.317  0.00  0.00    +0.065 C 
ATOM      6  C   UNL     1       1.762  -0.394   0.226  0.00  0.00    +0.039 A 
ATOM      7  C   UNL     1       1.776  -1.069  -0.992  0.00  0.00    +0.023 A 
ATOM      8  C   UNL     1       1.203  -2.305  -1.093  0.00  0.00    +0.012 A 
ATOM      9  C   UNL     1       0.611  -2.859   0.058  0.00  0.00    +0.002 A 
ATOM     10  C   UNL     1       0.004  -4.125   0.029  0.00  0.00    +0.010 A 
ATOM     11  C   UNL     1      -0.560  -4.633   1.159  0.00  0.00    +0.003 A 
ATOM     12  C   UNL     1      -0.546  -3.916   2.352  0.00  0.00    +0.025 A 
ATOM     13  C   UNL     1       0.039  -2.671   2.420  0.00  0.00    +0.060 A 
ATOM     14  C   UNL     1       0.633  -2.118   1.264  0.00  0.00    +0.092 A 
ATOM     15  N   UNL     1       1.214  -0.915   1.297  0.00  0.00    -0.250 NA
ENDBRANCH   1  13
BRANCH   2  16
ATOM     16  C   UNL     1      -0.161  -1.851   6.086  0.00  0.00    +0.152 C 
BRANCH  16  17
ATOM     17  C   UNL     1      -0.242  -2.816   7.240  0.00  0.00    +0.059 A 
ATOM     18  C   UNL     1       0.617  -2.743   8.286  0.00  0.00    +0.072 A 
ATOM     19  S   UNL     1       0.036  -4.100   9.290  0.00  0.00    -0.060 S 
ATOM     20  C   UNL     1      -1.218  -4.610   8.290  0.00  0.00    +0.168 A 
ATOM     21  N   UNL     1      -1.157  -3.768   7.281  0.00  0.00    -0.229 NA
ATOM     22  N   UNL     1      -2.105  -5.662   8.485  0.00  0.00    -0.234 N 
ATOM     23  C   UNL     1      -2.000  -6.473   9.698  0.00  0.00    +0.119 C 
ATOM     24  C   UNL     1      -3.385  -7.021  10.059  0.00  0.00    +0.038 C 
ATOM     25  C   UNL     1      -3.937  -7.785   8.851  0.00  0.00    +0.107 C 
ATOM     26  N   UNL     1      -3.937  -6.903   7.683  0.00  0.00    -0.299 N 
ATOM     27  C   UNL     1      -3.044  -5.909   7.559  0.00  0.00    +0.308 C 
ATOM     28  O   UNL     1      -3.085  -5.208   6.567  0.00  0.00    -0.252 OA
ATOM     29  H   UNL     1      -4.598  -7.036   6.987  0.00  0.00    +0.150 HD
ENDBRANCH  16  17
ENDBRANCH   2  16
TORSDOF 3
