REMARK  Name = ZINC05544499
REMARK  5 active torsions:
REMARK  status: ('A' for Active; 'I' for Inactive)
REMARK    1  A    between atoms: C_1  and  C_2
REMARK    2  A    between atoms: C_5  and  N_8
REMARK    3  A    between atoms: C_9  and  C_11
REMARK    4  A    between atoms: N_13  and  N_14
REMARK    5  A    between atoms: C_15  and  C_16
REMARK                            x       y       z     vdW  Elec       q    Type
REMARK                         _______ _______ _______ _____ _____    ______ ____
ROOT
ATOM      1  C   UNL     1       0.309  -6.332   1.121  0.00  0.00    +0.318 C 
ATOM      2  O   UNL     1       0.311  -6.930   0.065  0.00  0.00    -0.263 OA
ATOM      3  N   UNL     1       0.425  -7.011   2.280  0.00  0.00    -0.199 N 
ATOM      4  H   UNL     1       0.423  -6.533   3.124  0.00  0.00    +0.178 HD
ENDROOT
BRANCH   1   6
ATOM      5  N   UNL     1       0.059  -4.168  -0.021  0.00  0.00    -0.278 N 
ATOM      6  C   UNL     1       0.176  -4.847   1.138  0.00  0.00    +0.305 C 
ATOM      7  O   UNL     1       0.174  -4.249   2.194  0.00  0.00    -0.265 OA
ATOM      8  H   UNL     1      -0.015  -4.649  -0.860  0.00  0.00    +0.155 HD
BRANCH   5  13
ATOM      9  C   UNL     1       0.005   1.503   0.009  0.00  0.00    +0.044 C 
ATOM     10  C   UNL     1       0.020  -0.004   0.001  0.00  0.00    -0.050 A 
ATOM     11  C   UNL     1      -0.724  -0.696  -0.937  0.00  0.00    +0.005 A 
ATOM     12  C   UNL     1      -0.713  -2.077  -0.948  0.00  0.00    +0.023 A 
ATOM     13  C   UNL     1       0.046  -2.771  -0.014  0.00  0.00    +0.034 A 
ATOM     14  C   UNL     1       0.792  -2.072   0.927  0.00  0.00    +0.023 A 
ATOM     15  C   UNL     1       0.781  -0.691   0.928  0.00  0.00    +0.005 A 
ENDBRANCH   5  13
ENDBRANCH   1   6
BRANCH   3  16
ATOM     16  N   UNL     1       0.550  -8.406   2.265  0.00  0.00    -0.187 NA
ATOM     17  C   UNL     1       0.662  -9.060   3.381  0.00  0.00    +0.138 C 
BRANCH  17  18
ATOM     18  C   UNL     1       0.793 -10.528   3.365  0.00  0.00    -0.004 A 
ATOM     19  C   UNL     1       0.803 -11.219   2.150  0.00  0.00    +0.011 A 
ATOM     20  C   UNL     1       0.925 -12.592   2.142  0.00  0.00    +0.022 A 
ATOM     21  C   UNL     1       1.039 -13.288   3.334  0.00  0.00    +0.059 A 
ATOM     22  C   UNL     1       1.031 -12.610   4.543  0.00  0.00    +0.060 A 
ATOM     23  C   UNL     1       0.915 -11.235   4.565  0.00  0.00    +0.031 A 
ATOM     24 CL   UNL     1       1.173 -13.491   6.032  0.00  0.00    -0.082 Cl
ATOM     25 CL   UNL     1       1.194 -15.017   3.314  0.00  0.00    -0.082 Cl
ENDBRANCH  17  18
ENDBRANCH   3  16
TORSDOF 4
