REMARK  Name = ZINC16901624
REMARK  5 active torsions:
REMARK  status: ('A' for Active; 'I' for Inactive)
REMARK    1  A    between atoms: C_3  and  O_24
REMARK    2  A    between atoms: C_6  and  N_7
REMARK    3  A    between atoms: C_11  and  N_15
REMARK    4  A    between atoms: N_15  and  C_16
REMARK    5  A    between atoms: C_21  and  O_22
REMARK                            x       y       z     vdW  Elec       q    Type
REMARK                         _______ _______ _______ _____ _____    ______ ____
ROOT
ATOM      1  N   UNL     1      -1.204  -0.723   0.010  0.00  0.00    -0.209 N 
ATOM      2  C   UNL     1      -2.399  -0.130   0.118  0.00  0.00    +0.228 C 
ATOM      3  O   UNL     1      -2.585   1.064   0.218  0.00  0.00    -0.275 OA
ATOM      4  C   UNL     1      -3.482  -1.186   0.094  0.00  0.00    +0.128 C 
ATOM      5  C   UNL     1      -2.697  -2.506  -0.048  0.00  0.00    +0.167 C 
ATOM      6  C   UNL     1      -1.253  -2.056  -0.095  0.00  0.00    +0.247 C 
ATOM      7  O   UNL     1      -0.293  -2.788  -0.207  0.00  0.00    -0.273 OA
ENDROOT
BRANCH   1  13
ATOM      8  C   UNL     1       0.775   0.043  -1.150  0.00  0.00    +0.027 A 
ATOM      9  C   UNL     1       1.960   0.750  -1.158  0.00  0.00    +0.047 A 
ATOM     10  C   UNL     1       2.380   1.413  -0.014  0.00  0.00    +0.117 A 
ATOM     11  C   UNL     1       1.608   1.367   1.138  0.00  0.00    +0.047 A 
ATOM     12  C   UNL     1       0.422   0.660   1.146  0.00  0.00    +0.027 A 
ATOM     13  C   UNL     1       0.002  -0.004   0.002  0.00  0.00    +0.044 A 
BRANCH  10  14
ATOM     14  O   UNL     1       3.548   2.109  -0.022  0.00  0.00    -0.507 OA
ATOM     15  H   UNL     1       3.453   3.035  -0.285  0.00  0.00    +0.292 HD
ENDBRANCH  10  14
ENDBRANCH   1  13
BRANCH   5  16
ATOM     16  N   UNL     1      -3.062  -3.193  -1.289  0.00  0.00    -0.330 N 
ATOM     17  H   UNL     1      -3.410  -2.686  -2.040  0.00  0.00    +0.147 HD
BRANCH  16  18
ATOM     18  C   UNL     1      -2.909  -4.581  -1.393  0.00  0.00    +0.070 A 
ATOM     19  C   UNL     1      -2.417  -5.308  -0.319  0.00  0.00    +0.028 A 
ATOM     20  C   UNL     1      -2.267  -6.678  -0.423  0.00  0.00    +0.022 A 
ATOM     21  C   UNL     1      -2.605  -7.327  -1.597  0.00  0.00    +0.045 A 
ATOM     22  C   UNL     1      -3.096  -6.608  -2.672  0.00  0.00    +0.067 A 
ATOM     23  C   UNL     1      -3.256  -5.236  -2.573  0.00  0.00    +0.139 A 
ATOM     24 CL   UNL     1      -2.413  -9.048  -1.721  0.00  0.00    -0.083 Cl
BRANCH  23  25
ATOM     25  O   UNL     1      -3.744  -4.528  -3.627  0.00  0.00    -0.505 OA
ATOM     26  H   UNL     1      -3.063  -4.210  -4.236  0.00  0.00    +0.292 HD
ENDBRANCH  23  25
ENDBRANCH  16  18
ENDBRANCH   5  16
TORSDOF 5
