REMARK  Name = ZINC40022118
REMARK  6 active torsions:
REMARK  status: ('A' for Active; 'I' for Inactive)
REMARK    1  A    between atoms: C_1  and  C_2
REMARK    2  A    between atoms: C_14  and  C_37
REMARK    3  A    between atoms: N_17  and  C_18
REMARK    4  A    between atoms: C_19  and  C_27
REMARK    5  A    between atoms: N_29  and  C_30
REMARK    6  A    between atoms: C_30  and  C_31
REMARK                            x       y       z     vdW  Elec       q    Type
REMARK                         _______ _______ _______ _____ _____    ______ ____
ROOT
ATOM      1  C   UNL     1       4.639   2.128   5.161  0.00  0.00    +0.047 C 
ATOM      2  C   UNL     1       4.839   0.638   5.261  0.00  0.00    -0.007 A 
ATOM      3  C   UNL     1       6.088   0.126   5.447  0.00  0.00    +0.008 A 
ATOM      4  C   UNL     1       6.261  -1.262   5.539  0.00  0.00    +0.019 A 
ATOM      5  C   UNL     1       5.192  -2.085   5.443  0.00  0.00    +0.096 A 
ATOM      6  N   UNL     1       3.939  -1.582   5.256  0.00  0.00    -0.267 N 
ATOM      7  C   UNL     1       3.736  -0.233   5.168  0.00  0.00    +0.145 A 
ATOM      8  N   UNL     1       2.524   0.290   4.991  0.00  0.00    -0.211 NA
ATOM      9  C   UNL     1       1.435  -0.461   4.894  0.00  0.00    +0.156 A 
ATOM     10  C   UNL     1       1.558  -1.867   4.981  0.00  0.00    +0.084 A 
ATOM     11  C   UNL     1       2.894  -2.436   5.164  0.00  0.00    +0.268 A 
ATOM     12  O   UNL     1       3.058  -3.640   5.246  0.00  0.00    -0.267 OA
ATOM     13  C   UNL     1       0.429  -2.687   4.882  0.00  0.00    +0.041 A 
ATOM     14  C   UNL     1      -0.818  -2.095   4.697  0.00  0.00    +0.117 A 
ATOM     15  C   UNL     1      -0.908  -0.637   4.611  0.00  0.00    +0.275 A 
ATOM     16  O   UNL     1      -1.992  -0.104   4.449  0.00  0.00    -0.266 OA
ATOM     17  N   UNL     1       0.202   0.118   4.712  0.00  0.00    -0.253 N 
ENDROOT
BRANCH  17  18
ATOM     18  C   UNL     1       0.100   1.500   4.629  0.00  0.00    +0.102 A 
ATOM     19  C   UNL     1      -0.068   2.406   5.665  0.00  0.00    +0.071 A 
ATOM     20  C   UNL     1      -0.146   3.812   5.312  0.00  0.00    -0.023 A 
ATOM     21  C   UNL     1      -0.044   4.055   3.987  0.00  0.00    -0.004 A 
ATOM     22  S   UNL     1       0.158   2.459   3.252  0.00  0.00    -0.075 S 
ATOM     23  C   UNL     1      -0.089   5.391   3.312  0.00  0.00    +0.043 C 
ATOM     24  C   UNL     1      -0.647   6.417   4.310  0.00  0.00    +0.005 C 
ATOM     25  C   UNL     1       0.085   6.258   5.646  0.00  0.00    +0.005 C 
ATOM     26  C   UNL     1      -0.327   4.944   6.312  0.00  0.00    +0.037 C 
BRANCH  19  27
ATOM     27  C   UNL     1      -0.162   1.962   7.060  0.00  0.00    +0.247 C 
ATOM     28  O   UNL     1       0.842   1.884   7.743  0.00  0.00    -0.270 OA
ATOM     29  N   UNL     1      -1.361   1.640   7.585  0.00  0.00    -0.309 N 
ATOM     30  H   UNL     1      -2.161   1.702   7.041  0.00  0.00    +0.149 HD
BRANCH  29  31
ATOM     31  C   UNL     1      -1.455   1.197   8.979  0.00  0.00    +0.136 C 
BRANCH  31  32
ATOM     32  C   UNL     1      -2.916   0.897   9.321  0.00  0.00    +0.135 C 
ATOM     33  C   UNL     1      -3.042   0.459  10.802  0.00  0.00    +0.035 C 
ATOM     34  C   UNL     1      -4.519   0.837  11.096  0.00  0.00    +0.031 C 
ATOM     35  C   UNL     1      -4.710   2.105  10.236  0.00  0.00    +0.160 C 
ATOM     36  O   UNL     1      -3.708   2.089   9.211  0.00  0.00    -0.375 OA
ENDBRANCH  31  32
ENDBRANCH  29  31
ENDBRANCH  19  27
ENDBRANCH  17  18
BRANCH  14  37
ATOM     37  C   UNL     1      -1.996  -2.902   4.590  0.00  0.00    +0.105 C 
ATOM     38  N   UNL     1      -2.931  -3.543   4.506  0.00  0.00    -0.191 NA
ENDBRANCH  14  37
TORSDOF 5
