REMARK  Name = ZINC03144886
REMARK  9 active torsions:
REMARK  status: ('A' for Active; 'I' for Inactive)
REMARK    1  A    between atoms: C_1  and  C_2
REMARK    2  A    between atoms: C_6  and  C_9
REMARK    3  A    between atoms: C_7  and  O_8
REMARK    4  A    between atoms: N_10  and  N_11
REMARK    5  A    between atoms: C_12  and  C_14
REMARK    6  A    between atoms: C_14  and  N_15
REMARK    7  A    between atoms: C_16  and  C_18
REMARK    8  A    between atoms: C_18  and  C_19
REMARK    9  A    between atoms: C_18  and  C_25
REMARK                            x       y       z     vdW  Elec       q    Type
REMARK                         _______ _______ _______ _____ _____    ______ ____
ROOT
ATOM      1  C   UNL     1      -0.879  -0.200   3.722  0.00  0.00    +0.201 C 
ENDROOT
BRANCH   1   3
ATOM      2  N   UNL     1      -0.513   0.160   6.142  0.00  0.00    -0.206 N 
ATOM      3  C   UNL     1      -0.060   0.307   4.881  0.00  0.00    +0.249 C 
ATOM      4  O   UNL     1       1.007   0.847   4.679  0.00  0.00    -0.272 OA
ATOM      5  H   UNL     1      -1.366  -0.272   6.303  0.00  0.00    +0.177 HD
BRANCH   2   7
ATOM      6  C   UNL     1      -0.188   0.490   8.433  0.00  0.00    +0.142 C 
ATOM      7  N   UNL     1       0.248   0.632   7.219  0.00  0.00    -0.188 NA
BRANCH   6  13
ATOM      8  C   UNL     1       3.919   2.746  10.168  0.00  0.00    +0.047 C 
ATOM      9  C   UNL     1       2.592   2.074  10.409  0.00  0.00    -0.007 A 
ATOM     10  C   UNL     1       2.121   1.920  11.700  0.00  0.00    +0.022 A 
ATOM     11  C   UNL     1       0.903   1.303  11.931  0.00  0.00    +0.019 A 
ATOM     12  C   UNL     1       0.147   0.836  10.874  0.00  0.00    +0.028 A 
ATOM     13  C   UNL     1       0.613   0.986   9.567  0.00  0.00    +0.037 A 
ATOM     14  C   UNL     1       1.850   1.606   9.338  0.00  0.00    +0.128 A 
ATOM     15 BR   UNL     1       0.271   1.100  13.702  0.00  0.00    -0.050 Br
BRANCH  14  16
ATOM     16  O   UNL     1       2.315   1.752   8.070  0.00  0.00    -0.506 OA
ATOM     17  H   UNL     1       2.046   2.578   7.645  0.00  0.00    +0.292 HD
ENDBRANCH  14  16
ENDBRANCH   6  13
ENDBRANCH   2   7
ENDBRANCH   1   3
BRANCH   1  18
ATOM     18  N   UNL     1      -0.175   0.077   2.468  0.00  0.00    -0.306 N 
ATOM     19  C   UNL     1      -0.722  -0.290   1.292  0.00  0.00    +0.225 C 
ATOM     20  O   UNL     1      -1.798  -0.850   1.273  0.00  0.00    -0.275 OA
ATOM     21  H   UNL     1       0.685   0.525   2.483  0.00  0.00    +0.149 HD
BRANCH  19  22
ATOM     22  C   UNL     1       0.002  -0.004   0.002  0.00  0.00    +0.135 C 
BRANCH  22  23
ATOM     23  C   UNL     1       0.208   1.482  -0.140  0.00  0.00    -0.031 A 
ATOM     24  C   UNL     1      -0.864   2.344  -0.003  0.00  0.00    +0.005 A 
ATOM     25  C   UNL     1      -0.675   3.708  -0.129  0.00  0.00    +0.000 A 
ATOM     26  C   UNL     1       0.585   4.208  -0.402  0.00  0.00    +0.000 A 
ATOM     27  C   UNL     1       1.655   3.346  -0.545  0.00  0.00    +0.000 A 
ATOM     28  C   UNL     1       1.467   1.983  -0.414  0.00  0.00    +0.005 A 
ENDBRANCH  22  23
BRANCH  22  29
ATOM     29  C   UNL     1      -0.817  -0.511  -1.157  0.00  0.00    -0.031 A 
ATOM     30  C   UNL     1      -2.134  -0.116  -1.298  0.00  0.00    +0.005 A 
ATOM     31  C   UNL     1      -2.884  -0.577  -2.364  0.00  0.00    +0.000 A 
ATOM     32  C   UNL     1      -2.320  -1.442  -3.283  0.00  0.00    +0.000 A 
ATOM     33  C   UNL     1      -1.005  -1.842  -3.138  0.00  0.00    +0.000 A 
ATOM     34  C   UNL     1      -0.253  -1.376  -2.076  0.00  0.00    +0.005 A 
ENDBRANCH  22  29
ENDBRANCH  19  22
ENDBRANCH   1  18
TORSDOF 8
