REMARK  Name = ZINC09572804
REMARK  4 active torsions:
REMARK  status: ('A' for Active; 'I' for Inactive)
REMARK    1  A    between atoms: C_3  and  N_30
REMARK    2  A    between atoms: C_6  and  N_7
REMARK    3  A    between atoms: N_15  and  C_16
REMARK    4  A    between atoms: N_21  and  C_23
REMARK                            x       y       z     vdW  Elec       q    Type
REMARK                         _______ _______ _______ _____ _____    ______ ____
ROOT
ATOM      1  N   UNL     1       3.250   7.506  -2.414  0.00  0.00    -0.327 N 
ATOM      2  C   UNL     1       4.062   7.130  -1.249  0.00  0.00    +0.124 C 
ATOM      3  C   UNL     1       4.400   5.638  -1.326  0.00  0.00    +0.128 C 
ATOM      4  N   UNL     1       3.147   4.883  -1.481  0.00  0.00    -0.283 N 
ATOM      5  C   UNL     1       2.218   5.287  -2.547  0.00  0.00    +0.128 C 
ATOM      6  C   UNL     1       1.963   6.797  -2.418  0.00  0.00    +0.124 C 
ATOM      7  C   UNL     1       2.860   3.845  -0.670  0.00  0.00    +0.303 C 
ATOM      8  O   UNL     1       1.868   3.172  -0.872  0.00  0.00    -0.253 OA
ATOM      9  N   UNL     1       3.674   3.552   0.363  0.00  0.00    -0.294 N 
ATOM     10  H   UNL     1       4.424   4.132   0.570  0.00  0.00    +0.151 HD
ENDROOT
BRANCH   1  16
ATOM     11  C   UNL     1       3.608   9.705  -1.485  0.00  0.00    +0.025 A 
ATOM     12  C   UNL     1       3.422  11.072  -1.542  0.00  0.00    +0.034 A 
ATOM     13  C   UNL     1       2.681  11.628  -2.569  0.00  0.00    +0.126 A 
ATOM     14  C   UNL     1       2.128  10.818  -3.544  0.00  0.00    +0.034 A 
ATOM     15  C   UNL     1       2.315   9.451  -3.496  0.00  0.00    +0.025 A 
ATOM     16  C   UNL     1       3.059   8.889  -2.466  0.00  0.00    +0.030 A 
BRANCH  13  17
ATOM     17  N   UNL     1       2.478  13.093  -2.623  0.00  0.00    +0.056 N 
ATOM     18  O   UNL     1       1.825  13.584  -3.527  0.00  0.00    -0.126 OA
ATOM     19  O   UNL     1       2.964  13.807  -1.765  0.00  0.00    -0.126 OA
ENDBRANCH  13  17
ENDBRANCH   1  16
BRANCH   9  20
ATOM     20  C   UNL     1       3.427   2.358   1.175  0.00  0.00    +0.101 C 
ATOM     21  C   UNL     1       2.546   2.694   2.400  0.00  0.00    +0.120 C 
ATOM     22  C   UNL     1       3.104   1.828   3.508  0.00  0.00    +0.222 C 
ATOM     23  O   UNL     1       2.534   1.579   4.549  0.00  0.00    -0.275 OA
ATOM     24  N   UNL     1       4.324   1.375   3.170  0.00  0.00    -0.270 N 
ATOM     25  C   UNL     1       4.729   1.868   1.848  0.00  0.00    +0.136 C 
BRANCH  24  26
ATOM     26  C   UNL     1       5.108   0.541   3.976  0.00  0.00    +0.036 A 
ATOM     27  C   UNL     1       4.691   0.226   5.263  0.00  0.00    +0.025 A 
ATOM     28  C   UNL     1       5.464  -0.602   6.054  0.00  0.00    +0.022 A 
ATOM     29  C   UNL     1       6.657  -1.107   5.570  0.00  0.00    +0.041 A 
ATOM     30  C   UNL     1       7.077  -0.790   4.290  0.00  0.00    +0.022 A 
ATOM     31  C   UNL     1       6.306   0.032   3.493  0.00  0.00    +0.025 A 
ATOM     32 CL   UNL     1       7.629  -2.142   6.569  0.00  0.00    -0.084 Cl
ENDBRANCH  24  26
ENDBRANCH   9  20
TORSDOF 4
