REMARK  Name = ZINC52430348
REMARK  8 active torsions:
REMARK  status: ('A' for Active; 'I' for Inactive)
REMARK    1  A    between atoms: C_1  and  C_2
REMARK    2  A    between atoms: C_8  and  O_10
REMARK    3  A    between atoms: O_10  and  C_11
REMARK    4  A    between atoms: C_11  and  C_12
REMARK    5  A    between atoms: C_12  and  N_13
REMARK    6  A    between atoms: N_16  and  C_19
REMARK    7  A    between atoms: C_19  and  C_20
REMARK    8  A    between atoms: C_28  and  N_30
REMARK                            x       y       z     vdW  Elec       q    Type
REMARK                         _______ _______ _______ _____ _____    ______ ____
ROOT
ATOM      1  N   UNL     1       4.214   2.439   2.086  0.00  0.00    +0.383 N 
ATOM      2  C   UNL     1       3.716   2.490   0.705  0.00  0.00    -0.063 C 
ATOM      3  C   UNL     1       3.733   3.937   0.209  0.00  0.00    +0.066 C 
ATOM      4  N   UNL     1       5.105   4.458   0.274  0.00  0.00    -0.299 NA
ATOM      5  C   UNL     1       5.626   4.391   1.646  0.00  0.00    +0.066 C 
ATOM      6  C   UNL     1       5.594   2.940   2.130  0.00  0.00    -0.063 C 
ATOM      7  H   UNL     1       3.629   3.013   2.675  0.00  0.00    -0.082 HD
ENDROOT
BRANCH   1   8
ATOM      8  C   UNL     1       4.181   1.052   2.568  0.00  0.00    -0.050 C 
BRANCH   8   9
ATOM      9  C   UNL     1       2.729   0.581   2.670  0.00  0.00    +0.142 C 
BRANCH   9  10
ATOM     10  O   UNL     1       2.042   1.365   3.648  0.00  0.00    -0.378 OA
BRANCH  10  17
ATOM     11  C   UNL     1       1.235   0.724   6.336  0.00  0.00    +0.010 C 
ATOM     12  C   UNL     1       0.291   1.359   5.313  0.00  0.00    +0.015 C 
ATOM     13  C   UNL     1      -1.142   0.896   5.587  0.00  0.00    +0.006 C 
ATOM     14  C   UNL     1      -2.087   1.532   4.565  0.00  0.00    +0.000 C 
ATOM     15  C   UNL     1      -1.674   1.105   3.155  0.00  0.00    +0.003 C 
ATOM     16  C   UNL     1      -0.241   1.568   2.881  0.00  0.00    +0.032 C 
ATOM     17  C   UNL     1       0.704   0.933   3.903  0.00  0.00    +0.121 C 
ENDBRANCH  10  17
ENDBRANCH   9  10
ENDBRANCH   8   9
ENDBRANCH   1   8
BRANCH   4  18
ATOM     18  C   UNL     1       5.173   5.830  -0.248  0.00  0.00    +0.160 C 
BRANCH  18  19
ATOM     19  C   UNL     1       6.615   6.241  -0.397  0.00  0.00    +0.146 A 
ATOM     20  N   UNL     1       7.210   6.817   0.621  0.00  0.00    -0.231 NA
ATOM     21  C   UNL     1       8.492   7.198   0.532  0.00  0.00    +0.076 A 
ATOM     22  C   UNL     1       9.160   7.816   1.598  0.00  0.00    +0.028 A 
ATOM     23  C   UNL     1      10.464   8.183   1.454  0.00  0.00    +0.002 A 
ATOM     24  C   UNL     1      11.146   7.955   0.262  0.00  0.00    +0.001 A 
ATOM     25  C   UNL     1      10.527   7.356  -0.796  0.00  0.00    +0.013 A 
ATOM     26  C   UNL     1       9.188   6.967  -0.680  0.00  0.00    +0.040 A 
ATOM     27  C   UNL     1       8.492   6.341  -1.742  0.00  0.00    +0.127 A 
ATOM     28  N   UNL     1       7.225   6.000  -1.546  0.00  0.00    -0.216 NA
BRANCH  27  29
ATOM     29  N   UNL     1       9.115   6.089  -2.946  0.00  0.00    -0.343 N 
ATOM     30  H   UNL     1      10.043   6.341  -3.074  0.00  0.00    +0.144 HD
ATOM     31  H   UNL     1       8.625   5.659  -3.665  0.00  0.00    +0.144 HD
ENDBRANCH  27  29
ENDBRANCH  18  19
ENDBRANCH   4  18
TORSDOF 7
