REMARK  Name = ZINC50924218
REMARK  5 active torsions:
REMARK  status: ('A' for Active; 'I' for Inactive)
REMARK    1  A    between atoms: C_1  and  C_2
REMARK    2  A    between atoms: C_5  and  C_7
REMARK    3  A    between atoms: N_9  and  C_10
REMARK    4  A    between atoms: N_13  and  C_16
REMARK    5  A    between atoms: C_16  and  N_17
REMARK                            x       y       z     vdW  Elec       q    Type
REMARK                         _______ _______ _______ _____ _____    ______ ____
ROOT
ATOM      1  C   UNL     1       2.984  -5.457  -0.043  0.00  0.00    +0.070 C 
ATOM      2  C   UNL     1       3.083  -5.982   1.392  0.00  0.00    +0.004 C 
ATOM      3  C   UNL     1       3.753  -7.358   1.381  0.00  0.00    -0.075 C 
ATOM      4  N   UNL     1       5.098  -7.247   0.805  0.00  0.00    +0.391 N 
ATOM      5  C   UNL     1       5.006  -6.813  -0.594  0.00  0.00    -0.075 C 
ATOM      6  C   UNL     1       4.385  -5.416  -0.659  0.00  0.00    +0.004 C 
ATOM      7  H   UNL     1       5.634  -6.572   1.331  0.00  0.00    -0.079 HD
ENDROOT
BRANCH   1  10
ATOM      8  C   UNL     1       1.076  -3.942  -0.025  0.00  0.00    +0.251 C 
ATOM      9  O   UNL     1       0.342  -4.913  -0.028  0.00  0.00    -0.270 OA
ATOM     10  N   UNL     1       2.413  -4.108  -0.033  0.00  0.00    -0.308 N 
ATOM     11  H   UNL     1       2.998  -3.334  -0.031  0.00  0.00    +0.149 HD
BRANCH   8  16
ATOM     12  C   UNL     1      -0.018   1.503   0.010  0.00  0.00    +0.051 C 
ATOM     13  C   UNL     1       0.002  -0.004   0.002  0.00  0.00    -0.013 A 
ATOM     14  C   UNL     1      -1.056  -0.852   0.002  0.00  0.00    +0.011 A 
ATOM     15  C   UNL     1      -0.827  -2.207  -0.007  0.00  0.00    +0.021 A 
ATOM     16  C   UNL     1       0.505  -2.592  -0.015  0.00  0.00    +0.074 A 
ATOM     17  S   UNL     1       1.341  -1.018  -0.017  0.00  0.00    -0.089 S 
ENDBRANCH   8  16
ENDBRANCH   1  10
BRANCH   4  18
ATOM     18  C   UNL     1       5.766  -8.554   0.867  0.00  0.00    +0.043 C 
BRANCH  18  19
ATOM     19  N   UNL     1       7.149  -8.419   0.403  0.00  0.00    -0.241 N 
ATOM     20  C   UNL     1       7.535  -8.562  -0.883  0.00  0.00    +0.245 C 
ATOM     21  O   UNL     1       6.834  -8.817  -1.838  0.00  0.00    -0.273 OA
ATOM     22  C   UNL     1       9.026  -8.336  -0.877  0.00  0.00    +0.112 C 
ATOM     23  C   UNL     1       9.407  -7.149  -1.772  0.00  0.00    +0.035 C 
ATOM     24  C   UNL     1      10.772  -7.563  -2.381  0.00  0.00    +0.003 C 
ATOM     25  C   UNL     1      10.598  -9.085  -2.616  0.00  0.00    +0.003 C 
ATOM     26  C   UNL     1       9.775  -9.565  -1.399  0.00  0.00    +0.035 C 
ATOM     27  N   UNL     1       9.351  -8.068   0.525  0.00  0.00    -0.285 N 
ATOM     28  C   UNL     1       8.186  -8.132   1.201  0.00  0.00    +0.308 C 
ATOM     29  O   UNL     1       8.089  -7.954   2.399  0.00  0.00    -0.252 OA
ATOM     30  H   UNL     1      10.228  -7.879   0.894  0.00  0.00    +0.151 HD
ENDBRANCH  18  19
ENDBRANCH   4  18
TORSDOF 4
