REMARK  Name = ZINC23762047
REMARK  11 active torsions:
REMARK  status: ('A' for Active; 'I' for Inactive)
REMARK    1  A    between atoms: C_1  and  C_2
REMARK    2  A    between atoms: C_2  and  C_3
REMARK    3  A    between atoms: C_3  and  N_4
REMARK    4  A    between atoms: C_5  and  O_24
REMARK    5  A    between atoms: C_8  and  S_9
REMARK    6  A    between atoms: S_9  and  C_10
REMARK    7  A    between atoms: C_10  and  C_12
REMARK    8  A    between atoms: C_10  and  C_13
REMARK    9  A    between atoms: N_15  and  C_16
REMARK   10  A    between atoms: C_19  and  C_23
REMARK   11  A    between atoms: C_20  and  C_22
REMARK                            x       y       z     vdW  Elec       q    Type
REMARK                         _______ _______ _______ _____ _____    ______ ____
ROOT
ATOM      1  C   UNL     1       1.280   1.959   0.174  0.00  0.00    +0.137 C 
ATOM      2  C   UNL     1       1.579   2.496   1.575  0.00  0.00    +0.029 C 
ENDROOT
BRANCH   1   3
ATOM      3  C   UNL     1      -0.023   1.202   0.193  0.00  0.00    +0.230 C 
ATOM      4  O   UNL     1      -0.023  -0.002   0.340  0.00  0.00    -0.274 OA
ATOM      5  N   UNL     1      -1.188   1.862   0.042  0.00  0.00    -0.285 N 
ATOM      6  H   UNL     1      -1.196   2.961  -0.004  0.00  0.00    +0.155 HD
BRANCH   5   7
ATOM      7  C   UNL     1      -2.389   1.150  -0.056  0.00  0.00    +0.034 A 
ATOM      8  C   UNL     1      -2.411  -0.094  -0.674  0.00  0.00    +0.023 A 
ATOM      9  C   UNL     1      -3.596  -0.797  -0.764  0.00  0.00    +0.005 A 
ATOM     10  C   UNL     1      -4.762  -0.259  -0.250  0.00  0.00    -0.047 A 
ATOM     11  C   UNL     1      -4.744   0.981   0.360  0.00  0.00    -0.046 A 
ATOM     12  C   UNL     1      -3.561   1.687   0.459  0.00  0.00    +0.027 A 
ATOM     13  C   UNL     1      -6.017   1.564   0.918  0.00  0.00    +0.044 C 
ATOM     14  C   UNL     1      -6.054  -1.027  -0.355  0.00  0.00    +0.044 C 
ENDBRANCH   5   7
ENDBRANCH   1   3
BRANCH   1  15
ATOM     15  S   UNL     1       2.617   0.848  -0.346  0.00  0.00    -0.073 S 
BRANCH  15  20
ATOM     16  N   UNL     1       5.287   1.517  -0.815  0.00  0.00    -0.272 N 
ATOM     17  C   UNL     1       6.089   2.621  -0.780  0.00  0.00    +0.317 A 
ATOM     18  N   UNL     1       5.357   3.644  -0.419  0.00  0.00    -0.091 NA
ATOM     19  N   UNL     1       4.046   3.189  -0.221  0.00  0.00    -0.119 NA
ATOM     20  C   UNL     1       4.025   1.900  -0.461  0.00  0.00    +0.195 A 
BRANCH  17  21
ATOM     21  O   UNL     1       7.414   2.653  -1.069  0.00  0.00    -0.479 OA
ATOM     22  H   UNL     1       7.968   3.601  -1.008  0.00  0.00    +0.295 HD
ENDBRANCH  17  21
BRANCH  16  23
ATOM     23  C   UNL     1       5.707   0.159  -1.171  0.00  0.00    +0.128 C 
BRANCH  23  25
ATOM     24  C   UNL     1       5.984  -1.464  -3.050  0.00  0.00    +0.005 C 
ATOM     25  C   UNL     1       5.545  -0.046  -2.678  0.00  0.00    +0.018 C 
ENDBRANCH  23  25
ENDBRANCH  16  23
ENDBRANCH  15  20
ENDBRANCH   1  15
TORSDOF 7
