REMARK  Name = ZINC57345250
REMARK  8 active torsions:
REMARK  status: ('A' for Active; 'I' for Inactive)
REMARK    1  A    between atoms: C_1  and  C_2
REMARK    2  A    between atoms: C_9  and  C_11
REMARK    3  A    between atoms: C_14  and  N_18
REMARK    4  A    between atoms: C_16  and  O_17
REMARK    5  A    between atoms: C_19  and  C_21
REMARK    6  A    between atoms: C_21  and  C_23
REMARK    7  A    between atoms: C_21  and  O_29
REMARK    8  A    between atoms: O_29  and  C_30
REMARK                            x       y       z     vdW  Elec       q    Type
REMARK                         _______ _______ _______ _____ _____    ______ ____
ROOT
ATOM      1  C   UNL     1       0.110  -5.526   2.286  0.00  0.00    +0.078 A 
ATOM      2  C   UNL     1       0.101  -5.543   3.683  0.00  0.00    +0.018 A 
ATOM      3  C   UNL     1       0.113  -6.744   4.356  0.00  0.00    +0.024 A 
ATOM      4  C   UNL     1       0.135  -7.943   3.649  0.00  0.00    +0.037 A 
ATOM      5  C   UNL     1       0.145  -7.936   2.261  0.00  0.00    +0.069 A 
ATOM      6  C   UNL     1       0.127  -6.734   1.574  0.00  0.00    +0.131 A 
ENDROOT
BRANCH   1  15
ATOM      7  C   UNL     1       0.032   1.488  -0.029  0.00  0.00    +0.044 C 
ATOM      8  C   UNL     1       0.051  -0.019  -0.031  0.00  0.00    -0.047 A 
ATOM      9  C   UNL     1       0.063  -0.705  -1.237  0.00  0.00    +0.005 A 
ATOM     10  C   UNL     1       0.080  -2.082  -1.255  0.00  0.00    +0.032 A 
ATOM     11  C   UNL     1       0.084  -2.791  -0.052  0.00  0.00    +0.110 A 
ATOM     12  C   UNL     1       0.072  -2.092   1.166  0.00  0.00    +0.156 A 
ATOM     13  C   UNL     1       0.061  -0.706   1.165  0.00  0.00    +0.052 A 
ATOM     14  O   UNL     1       0.080  -3.027   2.143  0.00  0.00    -0.435 OA
ATOM     15  C   UNL     1       0.097  -4.241   1.561  0.00  0.00    +0.232 A 
ATOM     16  N   UNL     1       0.099  -4.114   0.257  0.00  0.00    -0.209 NA
ENDBRANCH   1  15
BRANCH   4  17
ATOM     17  N   UNL     1       0.148  -9.157   4.338  0.00  0.00    -0.283 N 
ATOM     18  C   UNL     1      -0.505 -10.224   3.837  0.00  0.00    +0.251 C 
ATOM     19  O   UNL     1      -1.034 -10.154   2.748  0.00  0.00    -0.272 OA
ATOM     20  H   UNL     1       0.627  -9.233   5.179  0.00  0.00    +0.155 HD
BRANCH  18  21
ATOM     21  C   UNL     1      -0.579 -11.504   4.629  0.00  0.00    +0.234 C 
BRANCH  21  22
ATOM     22  C   UNL     1       0.805 -12.082   4.779  0.00  0.00    -0.010 A 
ATOM     23  C   UNL     1       1.373 -12.793   3.739  0.00  0.00    +0.006 A 
ATOM     24  C   UNL     1       2.642 -13.323   3.877  0.00  0.00    +0.000 A 
ATOM     25  C   UNL     1       3.343 -13.142   5.054  0.00  0.00    +0.000 A 
ATOM     26  C   UNL     1       2.775 -12.430   6.094  0.00  0.00    +0.000 A 
ATOM     27  C   UNL     1       1.508 -11.896   5.955  0.00  0.00    +0.006 A 
ENDBRANCH  21  22
BRANCH  21  28
ATOM     28  O   UNL     1      -1.415 -12.440   3.946  0.00  0.00    -0.366 OA
ATOM     29  C   UNL     1      -2.794 -12.363   4.312  0.00  0.00    +0.195 C 
ENDBRANCH  21  28
ENDBRANCH  18  21
ENDBRANCH   4  17
BRANCH   6  30
ATOM     30  O   UNL     1       0.131  -6.725   0.217  0.00  0.00    -0.506 OA
ATOM     31  H   UNL     1       1.016  -6.712  -0.174  0.00  0.00    +0.292 HD
ENDBRANCH   6  30
TORSDOF 6
