REMARK  Name = ZINC40064191
REMARK  10 active torsions:
REMARK  status: ('A' for Active; 'I' for Inactive)
REMARK    1  A    between atoms: C_1  and  C_2
REMARK    2  A    between atoms: C_2  and  O_3
REMARK    3  A    between atoms: O_3  and  C_4
REMARK    4  A    between atoms: C_6  and  C_11
REMARK    5  A    between atoms: C_9  and  O_10
REMARK    6  A    between atoms: C_19  and  C_37
REMARK    7  A    between atoms: C_20  and  C_36
REMARK    8  A    between atoms: C_29  and  C_35
REMARK    9  A    between atoms: C_30  and  C_32
REMARK   10  A    between atoms: C_32  and  C_34
REMARK                            x       y       z     vdW  Elec       q    Type
REMARK                         _______ _______ _______ _____ _____    ______ ____
ROOT
ATOM      1  C   UNL     1       0.654  -4.954  -0.018  0.00  0.00    +0.152 C 
ATOM      2  C   UNL     1       0.913  -5.484   1.354  0.00  0.00    +0.072 A 
ATOM      3  C   UNL     1       1.232  -4.798   2.610  0.00  0.00    +0.199 A 
ATOM      4  O   UNL     1       1.166  -3.590   2.746  0.00  0.00    -0.287 OA
ATOM      5  C   UNL     1       1.644  -5.718   3.701  0.00  0.00    +0.065 A 
ATOM      6  C   UNL     1       2.169  -5.213   4.890  0.00  0.00    +0.015 A 
ATOM      7  C   UNL     1       2.548  -6.073   5.883  0.00  0.00    +0.004 A 
ATOM      8  C   UNL     1       2.412  -7.444   5.710  0.00  0.00    -0.044 A 
ATOM      9  C   UNL     1       1.895  -7.959   4.543  0.00  0.00    -0.005 A 
ATOM     10  C   UNL     1       1.498  -7.103   3.516  0.00  0.00    +0.143 A 
ATOM     11  O   UNL     1       0.983  -7.630   2.382  0.00  0.00    -0.449 OA
ATOM     12  C   UNL     1       0.810  -6.846   1.300  0.00  0.00    +0.199 A 
ATOM     13  C   UNL     1       0.495  -7.231  -0.085  0.00  0.00    +0.289 C 
ATOM     14  O   UNL     1       0.341  -8.373  -0.472  0.00  0.00    -0.266 OA
ATOM     15  N   UNL     1       0.401  -6.132  -0.864  0.00  0.00    -0.232 N 
ATOM     16  C   UNL     1       0.118  -6.115  -2.215  0.00  0.00    +0.169 A 
ATOM     17  N   UNL     1       0.021  -5.068  -3.017  0.00  0.00    -0.229 NA
ATOM     18  C   UNL     1      -0.255  -5.202  -4.287  0.00  0.00    +0.058 A 
ATOM     19  C   UNL     1      -0.442  -6.506  -4.743  0.00  0.00    +0.078 A 
ATOM     20  S   UNL     1      -0.180  -7.422  -3.233  0.00  0.00    -0.049 S 
ATOM     21  C   UNL     1      -0.367  -4.013  -5.207  0.00  0.00    +0.067 C 
ATOM     22  C   UNL     1       1.758  -9.450   4.375  0.00  0.00    +0.048 C 
ATOM     23  C   UNL     1       2.837  -8.379   6.813  0.00  0.00    +0.044 C 
ENDROOT
BRANCH   1  26
ATOM     24  C   UNL     1      -1.498  -1.849   0.006  0.00  0.00    +0.162 A 
ATOM     25  C   UNL     1      -0.389  -2.680  -0.003  0.00  0.00    +0.055 A 
ATOM     26  C   UNL     1      -0.553  -4.052  -0.008  0.00  0.00    -0.018 A 
ATOM     27  C   UNL     1      -1.823  -4.600  -0.005  0.00  0.00    +0.009 A 
ATOM     28  C   UNL     1      -2.934  -3.777   0.004  0.00  0.00    +0.049 A 
ATOM     29  C   UNL     1      -2.776  -2.400   0.016  0.00  0.00    +0.158 A 
BRANCH  29  30
ATOM     30  O   UNL     1      -3.868  -1.589   0.030  0.00  0.00    -0.503 OA
ATOM     31  H   UNL     1      -4.192  -1.350  -0.849  0.00  0.00    +0.292 HD
ENDBRANCH  29  30
BRANCH  24  32
ATOM     32  O   UNL     1      -1.339  -0.499   0.012  0.00  0.00    -0.489 OA
BRANCH  32  34
ATOM     33  C   UNL     1      -0.019   1.526   0.010  0.00  0.00    +0.048 C 
ATOM     34  C   UNL     1       0.002  -0.004   0.002  0.00  0.00    +0.226 C 
ENDBRANCH  32  34
ENDBRANCH  24  32
ENDBRANCH   1  26
BRANCH  19  35
ATOM     35  C   UNL     1      -0.747  -6.972  -6.037  0.00  0.00    +0.168 C 
ATOM     36  O   UNL     1      -0.886  -6.182  -6.950  0.00  0.00    -0.292 OA
ATOM     37  C   UNL     1      -0.902  -8.450  -6.289  0.00  0.00    +0.092 C 
ENDBRANCH  19  35
TORSDOF 5
