REMARK  Name = ZINC43844490
REMARK  6 active torsions:
REMARK  status: ('A' for Active; 'I' for Inactive)
REMARK    1  A    between atoms: C_1  and  C_2
REMARK    2  A    between atoms: C_6  and  N_12
REMARK    3  A    between atoms: C_13  and  C_15
REMARK    4  A    between atoms: C_16  and  C_27
REMARK    5  A    between atoms: C_18  and  N_22
REMARK    6  A    between atoms: C_19  and  C_20
REMARK                            x       y       z     vdW  Elec       q    Type
REMARK                         _______ _______ _______ _____ _____    ______ ____
ROOT
ATOM      1  N   UNL     1       0.076  -5.800  -1.246  0.00  0.00    -0.281 N 
ATOM      2  C   UNL     1       0.197  -6.940  -0.538  0.00  0.00    +0.253 C 
ATOM      3  O   UNL     1       0.203  -6.904   0.678  0.00  0.00    -0.270 OA
ATOM      4  H   UNL     1       0.004  -5.835  -2.213  0.00  0.00    +0.155 HD
ENDROOT
BRANCH   1  10
ATOM      5  C   UNL     1      -1.186  -0.566   3.846  0.00  0.00    +0.063 C 
ATOM      6  C   UNL     1      -0.817  -1.450   2.682  0.00  0.00    +0.014 A 
ATOM      7  C   UNL     1      -1.103  -2.758   2.587  0.00  0.00    +0.030 A 
ATOM      8  C   UNL     1      -0.568  -3.222   1.305  0.00  0.00    +0.002 A 
ATOM      9  C   UNL     1      -0.550  -4.456   0.652  0.00  0.00    +0.033 A 
ATOM     10  C   UNL     1       0.054  -4.565  -0.586  0.00  0.00    +0.034 A 
ATOM     11  C   UNL     1       0.643  -3.449  -1.180  0.00  0.00    +0.025 A 
ATOM     12  C   UNL     1       0.631  -2.228  -0.544  0.00  0.00    +0.028 A 
ATOM     13  C   UNL     1       0.027  -2.099   0.702  0.00  0.00    +0.047 A 
ATOM     14  N   UNL     1      -0.147  -1.036   1.564  0.00  0.00    -0.358 N 
ATOM     15  H   UNL     1       0.162  -0.131   1.402  0.00  0.00    +0.166 HD
ENDBRANCH   1  10
BRANCH   2  16
ATOM     16  C   UNL     1       0.322  -8.230  -1.236  0.00  0.00    +0.097 A 
ATOM     17  C   UNL     1       1.470  -8.844  -1.629  0.00  0.00    +0.118 A 
ATOM     18  O   UNL     1       1.168 -10.000  -2.232  0.00  0.00    -0.442 OA
ATOM     19  C   UNL     1      -0.157 -10.202  -2.265  0.00  0.00    +0.223 A 
ATOM     20  C   UNL     1      -0.776  -9.133  -1.650  0.00  0.00    +0.127 A 
ATOM     21  C   UNL     1       2.862  -8.306  -1.420  0.00  0.00    +0.087 C 
BRANCH  19  22
ATOM     22  N   UNL     1      -0.796 -11.303  -2.819  0.00  0.00    -0.293 N 
ATOM     23  C   UNL     1      -2.148 -11.504  -2.857  0.00  0.00    +0.094 A 
ATOM     24  C   UNL     1      -2.382 -12.680  -3.473  0.00  0.00    +0.020 A 
ATOM     25  C   UNL     1      -1.132 -13.228  -3.829  0.00  0.00    +0.020 A 
ATOM     26  C   UNL     1      -0.180 -12.364  -3.422  0.00  0.00    +0.094 A 
ENDBRANCH  19  22
BRANCH  20  27
ATOM     27  C   UNL     1      -2.182  -8.937  -1.457  0.00  0.00    +0.105 C 
ATOM     28  N   UNL     1      -3.296  -8.781  -1.304  0.00  0.00    -0.191 NA
ENDBRANCH  20  27
ENDBRANCH   2  16
TORSDOF 4
