REMARK  Name = ZINC25701281
REMARK  6 active torsions:
REMARK  status: ('A' for Active; 'I' for Inactive)
REMARK    1  A    between atoms: C_1  and  C_2
REMARK    2  A    between atoms: C_2  and  C_4
REMARK    3  A    between atoms: C_2  and  N_16
REMARK    4  A    between atoms: N_6  and  C_7
REMARK    5  A    between atoms: N_16  and  C_17
REMARK    6  A    between atoms: C_21  and  N_23
REMARK                            x       y       z     vdW  Elec       q    Type
REMARK                         _______ _______ _______ _____ _____    ______ ____
ROOT
ATOM      1  C   UNL     1       0.513   1.286  -0.244  0.00  0.00    +0.038 C 
ATOM      2  C   UNL     1       0.531  -0.243  -0.188  0.00  0.00    +0.154 C 
ENDROOT
BRANCH   2   3
ATOM      3  C   UNL     1       1.303  -0.779  -1.366  0.00  0.00    +0.237 C 
ATOM      4  O   UNL     1       2.291  -1.459  -1.185  0.00  0.00    -0.273 OA
ATOM      5  N   UNL     1       0.896  -0.504  -2.621  0.00  0.00    -0.284 N 
ATOM      6  H   UNL     1       0.071  -0.016  -2.767  0.00  0.00    +0.155 HD
BRANCH   5   7
ATOM      7  C   UNL     1       1.664  -0.923  -3.715  0.00  0.00    +0.037 A 
ATOM      8  C   UNL     1       1.745  -0.130  -4.851  0.00  0.00    +0.027 A 
ATOM      9  C   UNL     1       2.503  -0.542  -5.931  0.00  0.00    +0.051 A 
ATOM     10  C   UNL     1       3.184  -1.747  -5.882  0.00  0.00    +0.166 A 
ATOM     11  C   UNL     1       3.105  -2.546  -4.744  0.00  0.00    +0.168 A 
ATOM     12  C   UNL     1       2.350  -2.129  -3.660  0.00  0.00    +0.072 A 
ATOM     13  O   UNL     1       3.855  -3.668  -4.944  0.00  0.00    -0.453 OA
ATOM     14  C   UNL     1       4.063  -3.743  -6.367  0.00  0.00    +0.466 C 
ATOM     15  O   UNL     1       3.985  -2.371  -6.797  0.00  0.00    -0.453 OA
ENDBRANCH   5   7
ENDBRANCH   2   3
BRANCH   2  16
ATOM     16  N   UNL     1       1.171  -0.679   1.055  0.00  0.00    -0.333 N 
ATOM     17  H   UNL     1       2.116  -0.898   1.063  0.00  0.00    +0.147 HD
BRANCH  16  18
ATOM     18  C   UNL     1       0.421  -0.778   2.229  0.00  0.00    +0.029 A 
ATOM     19  C   UNL     1      -0.934  -0.470   2.218  0.00  0.00    +0.023 A 
ATOM     20  C   UNL     1      -1.676  -0.568   3.378  0.00  0.00    +0.004 A 
ATOM     21  C   UNL     1      -1.074  -0.973   4.555  0.00  0.00    +0.023 A 
ATOM     22  C   UNL     1       0.280  -1.283   4.573  0.00  0.00    +0.038 A 
ATOM     23  C   UNL     1       1.027  -1.191   3.407  0.00  0.00    +0.046 A 
BRANCH  22  24
ATOM     24  N   UNL     1       0.888  -1.692   5.764  0.00  0.00    -0.271 N 
ATOM     25  C   UNL     1       0.168  -1.947   7.018  0.00  0.00    +0.114 C 
ATOM     26  C   UNL     1       1.139  -2.771   7.891  0.00  0.00    +0.029 C 
ATOM     27  C   UNL     1       2.513  -2.347   7.323  0.00  0.00    +0.098 C 
ATOM     28  C   UNL     1       2.207  -1.909   5.907  0.00  0.00    +0.220 C 
ATOM     29  O   UNL     1       3.033  -1.772   5.029  0.00  0.00    -0.275 OA
ENDBRANCH  22  24
ENDBRANCH  16  18
ENDBRANCH   2  16
TORSDOF 5
