REMARK  Name = ZINC55504232
REMARK  5 active torsions:
REMARK  status: ('A' for Active; 'I' for Inactive)
REMARK    1  A    between atoms: C_1  and  C_2
REMARK    2  A    between atoms: C_8  and  C_17
REMARK    3  A    between atoms: C_12  and  C_13
REMARK    4  A    between atoms: C_13  and  O_15
REMARK    5  A    between atoms: O_15  and  C_16
REMARK                            x       y       z     vdW  Elec       q    Type
REMARK                         _______ _______ _______ _____ _____    ______ ____
ROOT
ATOM      1  C   UNL     1      -0.018   1.503   0.010  0.00  0.00    +0.046 C 
ATOM      2  C   UNL     1       0.002  -0.004   0.002  0.00  0.00    -0.015 A 
ATOM      3  C   UNL     1       0.005  -0.697  -1.210  0.00  0.00    +0.076 A 
ATOM      4  C   UNL     1      -0.009  -0.162  -2.590  0.00  0.00    +0.260 A 
ATOM      5  O   UNL     1      -0.026   1.039  -2.794  0.00  0.00    -0.267 OA
ATOM      6  N   UNL     1      -0.002  -1.035  -3.616  0.00  0.00    -0.306 N 
ATOM      7  H   UNL     1      -0.011  -0.700  -4.527  0.00  0.00    +0.170 HD
ATOM      8  C   UNL     1       0.018  -2.383  -3.399  0.00  0.00    +0.144 A 
ATOM      9  N   UNL     1       0.032  -2.885  -2.183  0.00  0.00    -0.222 NA
ATOM     10  C   UNL     1       0.025  -2.109  -1.112  0.00  0.00    +0.117 A 
ATOM     11  S   UNL     1       0.038  -2.396   0.640  0.00  0.00    -0.062 S 
ATOM     12  C   UNL     1       0.023  -0.694   1.180  0.00  0.00    +0.102 A 
ENDROOT
BRANCH   8  13
ATOM     13  C   UNL     1       0.025  -3.299  -4.557  0.00  0.00    +0.036 A 
ATOM     14  C   UNL     1       0.040  -4.687  -4.367  0.00  0.00    +0.016 A 
ATOM     15  C   UNL     1       0.046  -5.502  -5.484  0.00  0.00    +0.041 A 
ATOM     16  C   UNL     1       0.037  -4.925  -6.744  0.00  0.00    +0.129 A 
ATOM     17  N   UNL     1       0.023  -3.613  -6.892  0.00  0.00    -0.243 NA
ATOM     18  C   UNL     1       0.012  -2.796  -5.859  0.00  0.00    +0.124 A 
ATOM     19 CL   UNL     1       0.043  -5.944  -8.149  0.00  0.00    -0.062 Cl
ENDBRANCH   8  13
BRANCH  12  20
ATOM     20  C   UNL     1       0.030  -0.169   2.546  0.00  0.00    +0.346 C 
ATOM     21  O   UNL     1       0.015   1.032   2.737  0.00  0.00    -0.244 OA
BRANCH  20  22
ATOM     22  O   UNL     1       0.052  -1.018   3.595  0.00  0.00    -0.464 OA
ATOM     23  C   UNL     1       0.057  -0.436   4.900  0.00  0.00    +0.280 C 
ENDBRANCH  20  22
ENDBRANCH  12  20
TORSDOF 3
