REMARK  Name = ZINC39504904
REMARK  3 active torsions:
REMARK  status: ('A' for Active; 'I' for Inactive)
REMARK    1  A    between atoms: C_1  and  S_2
REMARK    2  A    between atoms: S_2  and  C_3
REMARK    3  A    between atoms: N_13  and  O_15
REMARK                            x       y       z     vdW  Elec       q    Type
REMARK                         _______ _______ _______ _____ _____    ______ ____
ROOT
ATOM      1  C   UNL     1       0.873  -0.423  -1.533  0.00  0.00    +0.064 C 
ATOM      2  C   UNL     1       0.946  -1.961  -1.729  0.00  0.00    +0.040 C 
ATOM      3  C   UNL     1       2.210  -2.138  -2.586  0.00  0.00    +0.051 C 
ATOM      4  C   UNL     1       2.962  -3.408  -2.170  0.00  0.00    +0.027 C 
ATOM      5  C   UNL     1       3.016  -4.311  -3.421  0.00  0.00    +0.039 C 
ATOM      6  C   UNL     1       1.821  -3.837  -4.285  0.00  0.00    +0.168 C 
ATOM      7  C   UNL     1       1.827  -2.302  -4.066  0.00  0.00    +0.061 C 
ATOM      8  F   UNL     1       2.030  -4.149  -5.633  0.00  0.00    -0.245 F 
ATOM      9  N   UNL     1       3.050  -0.948  -2.400  0.00  0.00    -0.184 NA
ATOM     10  C   UNL     1       2.374  -0.046  -1.440  0.00  0.00    +0.129 C 
ENDROOT
BRANCH   1  12
ATOM     11  C   UNL     1      -0.022   1.810   0.012  0.00  0.00    +0.084 C 
ATOM     12  S   UNL     1       0.002  -0.004   0.002  0.00  0.00    -0.159 S 
ENDBRANCH   1  12
BRANCH   9  13
ATOM     13  O   UNL     1       4.383  -1.316  -1.923  0.00  0.00    -0.312 OA
ATOM     14  H   UNL     1       4.974  -0.563  -1.785  0.00  0.00    +0.237 HD
ENDBRANCH   9  13
TORSDOF 2
