REMARK  Name = ZINC63213119
REMARK  4 active torsions:
REMARK  status: ('A' for Active; 'I' for Inactive)
REMARK    1  A    between atoms: C_5  and  S_8
REMARK    2  A    between atoms: S_8  and  N_11
REMARK    3  A    between atoms: N_11  and  C_12
REMARK    4  A    between atoms: C_19  and  N_21
REMARK                            x       y       z     vdW  Elec       q    Type
REMARK                         _______ _______ _______ _____ _____    ______ ____
ROOT
ATOM      1  N   UNL     1       1.256  -2.940   1.556  0.00  0.00    -0.188 NA
ATOM      2  H   UNL     1       2.028  -3.414   1.903  0.00  0.00    +0.148 HD
ENDROOT
BRANCH   1   3
ATOM      3  C   UNL     1       0.111  -2.665   2.427  0.00  0.00    +0.062 C 
ATOM      4  C   UNL     1      -0.838  -3.878   2.401  0.00  0.00    +0.019 C 
ATOM      5  C   UNL     1      -1.829  -3.887   3.580  0.00  0.00    +0.001 C 
ATOM      6  C   UNL     1      -2.392  -2.522   3.869  0.00  0.00    -0.000 C 
ATOM      7  C   UNL     1      -1.535  -1.860   4.967  0.00  0.00    -0.002 C 
ATOM      8  C   UNL     1      -0.303  -1.291   4.442  0.00  0.00    -0.015 C 
ATOM      9  C   UNL     1       0.615  -2.360   3.812  0.00  0.00    -0.056 C 
BRANCH   9  10
ATOM     10  N   UNL     1       1.989  -1.846   3.735  0.00  0.00    +0.381 N 
ATOM     11  H   UNL     1       2.002  -1.003   3.180  0.00  0.00    -0.090 HD
ATOM     12  H   UNL     1       2.325  -1.643   4.664  0.00  0.00    -0.090 HD
ATOM     13  H   UNL     1       2.584  -2.540   3.307  0.00  0.00    -0.090 HD
ENDBRANCH   9  10
ENDBRANCH   1   3
BRANCH   1  14
ATOM     14  S   UNL     1       1.233  -2.441  -0.024  0.00  0.00    +0.061 S 
ATOM     15  O   UNL     1      -0.012  -2.861  -0.564  0.00  0.00    -0.153 OA
ATOM     16  O   UNL     1       2.479  -2.827  -0.589  0.00  0.00    -0.153 OA
BRANCH  14  21
ATOM     17  C   UNL     1      -0.017   1.379   0.010  0.00  0.00    +0.037 A 
ATOM     18  C   UNL     1       1.171   2.087   0.002  0.00  0.00    +0.021 A 
ATOM     19  C   UNL     1       2.379   1.412  -0.014  0.00  0.00    +0.037 A 
ATOM     20  C   UNL     1       2.398   0.029  -0.021  0.00  0.00    +0.070 A 
ATOM     21  C   UNL     1       1.209  -0.679  -0.013  0.00  0.00    +0.142 A 
ATOM     22  C   UNL     1       0.002  -0.004   0.002  0.00  0.00    +0.070 A 
ATOM     23 CL   UNL     1      -1.489  -0.892   0.012  0.00  0.00    -0.081 Cl
ATOM     24 CL   UNL     1       3.913  -0.818  -0.041  0.00  0.00    -0.081 Cl
ATOM     25 BR   UNL     1       1.146   3.978   0.013  0.00  0.00    -0.050 Br
ENDBRANCH  14  21
ENDBRANCH   1  14
TORSDOF 4
