REMARK  Name = ZINC67180828
REMARK  8 active torsions:
REMARK  status: ('A' for Active; 'I' for Inactive)
REMARK    1  A    between atoms: C_1  and  C_2
REMARK    2  A    between atoms: C_3  and  C_13
REMARK    3  A    between atoms: C_4  and  C_12
REMARK    4  A    between atoms: C_13  and  C_14
REMARK    5  A    between atoms: N_16  and  C_17
REMARK    6  A    between atoms: C_20  and  C_23
REMARK    7  A    between atoms: C_23  and  S_24
REMARK    8  A    between atoms: S_24  and  C_25
REMARK                            x       y       z     vdW  Elec       q    Type
REMARK                         _______ _______ _______ _____ _____    ______ ____
ROOT
ATOM      1  C   UNL     1      -0.011   1.502   0.027  0.00  0.00    +0.066 C 
ATOM      2  C   UNL     1       0.005  -0.005   0.010  0.00  0.00    +0.047 A 
ATOM      3  C   UNL     1      -1.201  -0.715   0.003  0.00  0.00    +0.004 A 
ATOM      4  C   UNL     1      -1.171  -2.073  -0.012  0.00  0.00    +0.049 A 
ATOM      5  N   UNL     1       0.031  -2.706  -0.021  0.00  0.00    -0.199 N 
ATOM      6  C   UNL     1       1.190  -1.984  -0.014  0.00  0.00    +0.255 A 
ATOM      7  N   UNL     1       1.152  -0.646  -0.004  0.00  0.00    -0.216 NA
ATOM      8  N   UNL     1       2.197  -2.851  -0.025  0.00  0.00    -0.176 NA
ATOM      9  C   UNL     1       1.720  -4.093  -0.038  0.00  0.00    +0.234 A 
ATOM     10  N   UNL     1       0.403  -4.057  -0.036  0.00  0.00    -0.128 NA
ATOM     11  N   UNL     1       2.493  -5.251  -0.052  0.00  0.00    -0.326 N 
ATOM     12  C   UNL     1      -2.453  -2.865  -0.019  0.00  0.00    +0.066 C 
ATOM     13  H   UNL     1       3.461  -5.188  -0.051  0.00  0.00    +0.145 HD
ATOM     14  H   UNL     1       2.063  -6.121  -0.061  0.00  0.00    +0.145 HD
ENDROOT
BRANCH   3  15
ATOM     15  C   UNL     1      -2.517   0.019   0.014  0.00  0.00    +0.134 C 
BRANCH  15  16
ATOM     16  C   UNL     1      -2.894   0.355   1.434  0.00  0.00    +0.222 C 
ATOM     17  O   UNL     1      -2.165   0.031   2.348  0.00  0.00    -0.275 OA
ATOM     18  N   UNL     1      -4.040   1.016   1.689  0.00  0.00    -0.285 N 
ATOM     19  H   UNL     1      -4.590   1.334   0.956  0.00  0.00    +0.155 HD
BRANCH  18  20
ATOM     20  C   UNL     1      -4.438   1.243   3.011  0.00  0.00    +0.033 A 
ATOM     21  C   UNL     1      -5.785   1.216   3.347  0.00  0.00    +0.023 A 
ATOM     22  C   UNL     1      -6.174   1.441   4.653  0.00  0.00    +0.006 A 
ATOM     23  C   UNL     1      -5.224   1.692   5.626  0.00  0.00    -0.037 A 
ATOM     24  C   UNL     1      -3.882   1.719   5.295  0.00  0.00    +0.006 A 
ATOM     25  C   UNL     1      -3.486   1.490   3.991  0.00  0.00    +0.023 A 
BRANCH  23  26
ATOM     26  C   UNL     1      -5.652   1.936   7.050  0.00  0.00    +0.104 C 
BRANCH  26  27
ATOM     27  S   UNL     1      -5.711   0.359   7.943  0.00  0.00    -0.159 S 
ATOM     28  C   UNL     1      -6.236   0.821   9.617  0.00  0.00    +0.084 C 
ENDBRANCH  26  27
ENDBRANCH  23  26
ENDBRANCH  18  20
ENDBRANCH  15  16
ENDBRANCH   3  15
TORSDOF 5
