REMARK  Name = ZINC67209883
REMARK  12 active torsions:
REMARK  status: ('A' for Active; 'I' for Inactive)
REMARK    1  A    between atoms: C_1  and  C_2
REMARK    2  A    between atoms: C_2  and  C_3
REMARK    3  A    between atoms: C_2  and  C_4
REMARK    4  A    between atoms: C_2  and  O_5
REMARK    5  A    between atoms: O_5  and  C_6
REMARK    6  A    between atoms: N_8  and  C_9
REMARK    7  A    between atoms: C_9  and  C_10
REMARK    8  A    between atoms: N_12  and  C_13
REMARK    9  A    between atoms: C_16  and  N_19
REMARK   10  A    between atoms: N_19  and  C_20
REMARK   11  A    between atoms: N_19  and  C_21
REMARK   12  A    between atoms: N_24  and  C_27
REMARK                            x       y       z     vdW  Elec       q    Type
REMARK                         _______ _______ _______ _____ _____    ______ ____
ROOT
ATOM      1  C   UNL     1       6.263  -0.887  -5.503  0.00  0.00    +0.034 A 
ATOM      2  C   UNL     1       5.375  -1.583  -6.313  0.00  0.00    +0.025 A 
ATOM      3  C   UNL     1       5.789  -2.060  -7.541  0.00  0.00    +0.025 A 
ATOM      4  C   UNL     1       7.093  -1.843  -7.966  0.00  0.00    +0.030 A 
ATOM      5  C   UNL     1       7.981  -1.146  -7.157  0.00  0.00    +0.025 A 
ATOM      6  C   UNL     1       7.565  -0.666  -5.931  0.00  0.00    +0.025 A 
ENDROOT
BRANCH   1   9
ATOM      7  C   UNL     1       6.317   0.770  -3.795  0.00  0.00    +0.234 C 
ATOM      8  O   UNL     1       7.170   1.367  -4.418  0.00  0.00    -0.274 OA
ATOM      9  N   UNL     1       5.842  -0.404  -4.257  0.00  0.00    -0.284 N 
ATOM     10  H   UNL     1       5.210  -0.913  -3.727  0.00  0.00    +0.155 HD
BRANCH   7  11
ATOM     11  C   UNL     1       5.788   1.341  -2.504  0.00  0.00    +0.203 C 
BRANCH  11  14
ATOM     12  C   UNL     1       6.143   3.309  -1.112  0.00  0.00    +0.401 C 
ATOM     13  O   UNL     1       5.303   2.882  -0.345  0.00  0.00    -0.226 OA
ATOM     14  N   UNL     1       6.458   2.613  -2.222  0.00  0.00    -0.273 N 
ATOM     15  H   UNL     1       7.128   2.954  -2.835  0.00  0.00    +0.153 HD
BRANCH  12  16
ATOM     16  O   UNL     1       6.759   4.478  -0.853  0.00  0.00    -0.445 OA
BRANCH  16  18
ATOM     17  C   UNL     1       6.658   4.271   1.553  0.00  0.00    +0.055 C 
ATOM     18  C   UNL     1       6.375   5.162   0.342  0.00  0.00    +0.107 C 
ATOM     19  C   UNL     1       4.881   5.488   0.286  0.00  0.00    +0.055 C 
ATOM     20  C   UNL     1       7.176   6.460   0.466  0.00  0.00    +0.055 C 
ENDBRANCH  16  18
ENDBRANCH  12  16
ENDBRANCH  11  14
ENDBRANCH   7  11
ENDBRANCH   1   9
BRANCH   4  21
ATOM     21  N   UNL     1       7.512  -2.325  -9.211  0.00  0.00    -0.330 N 
ATOM     22  C   UNL     1       6.549  -2.963 -10.112  0.00  0.00    +0.129 C 
BRANCH  21  23
ATOM     23  C   UNL     1       8.915  -2.194  -9.612  0.00  0.00    +0.070 C 
ATOM     24  C   UNL     1       8.995  -1.481 -10.965  0.00  0.00    +0.004 C 
ATOM     25  C   UNL     1      10.456  -1.418 -11.416  0.00  0.00    -0.077 C 
ATOM     26  N   UNL     1      10.992  -2.778 -11.546  0.00  0.00    +0.378 N 
ATOM     27  C   UNL     1      10.984  -3.443 -10.238  0.00  0.00    -0.077 C 
ATOM     28  C   UNL     1       9.543  -3.585  -9.741  0.00  0.00    +0.004 C 
ATOM     29  C   UNL     1      12.369  -2.715 -12.053  0.00  0.00    -0.096 C 
ATOM     30  H   UNL     1      10.421  -3.303 -12.192  0.00  0.00    -0.082 HD
ENDBRANCH  21  23
ENDBRANCH   4  21
TORSDOF 7
