REMARK  Name = ZINC11591860
REMARK  6 active torsions:
REMARK  status: ('A' for Active; 'I' for Inactive)
REMARK    1  A    between atoms: C_4  and  C_7
REMARK    2  A    between atoms: C_10  and  C_12
REMARK    3  A    between atoms: C_12  and  S_13
REMARK    4  A    between atoms: S_13  and  C_14
REMARK    5  A    between atoms: C_17  and  C_20
REMARK    6  A    between atoms: N_18  and  N_19
REMARK                            x       y       z     vdW  Elec       q    Type
REMARK                         _______ _______ _______ _____ _____    ______ ____
ROOT
ATOM      1  S   UNL     1       6.168  -4.129   1.623  0.00  0.00    -0.075 S 
ENDROOT
BRANCH   1   2
ATOM      2  C   UNL     1       6.967  -5.688   1.435  0.00  0.00    +0.209 A 
ATOM      3  N   UNL     1       7.272  -6.275   0.300  0.00  0.00    -0.121 NA
ATOM      4  N   UNL     1       7.848  -7.402   0.525  0.00  0.00    -0.126 NA
ATOM      5  C   UNL     1       7.946  -7.605   1.820  0.00  0.00    +0.188 A 
ATOM      6  N   UNL     1       7.389  -6.510   2.443  0.00  0.00    -0.223 N 
BRANCH   5   7
ATOM      7  C   UNL     1       8.543  -8.778   2.479  0.00  0.00    +0.058 A 
ATOM      8  C   UNL     1       9.357  -9.746   1.949  0.00  0.00    +0.019 A 
ATOM      9  C   UNL     1       9.799 -10.760   2.770  0.00  0.00    +0.008 A 
ATOM     10  C   UNL     1       9.418 -10.770   4.073  0.00  0.00    +0.046 A 
ATOM     11  S   UNL     1       8.402  -9.306   4.179  0.00  0.00    -0.093 S 
ENDBRANCH   5   7
BRANCH   6  12
ATOM     12  N   UNL     1       7.280  -6.291   3.787  0.00  0.00    -0.295 N 
ATOM     13  H   UNL     1       6.413  -6.663   4.144  0.00  0.00    +0.163 HD
ATOM     14  H   UNL     1       8.070  -6.678   4.281  0.00  0.00    +0.163 HD
ENDBRANCH   6  12
ENDBRANCH   1   2
BRANCH   1  15
ATOM     15  C   UNL     1       5.881  -3.575  -0.080  0.00  0.00    +0.175 C 
BRANCH  15  19
ATOM     16  C   UNL     1       3.695  -0.685  -0.037  0.00  0.00    +0.248 A 
ATOM     17  N   UNL     1       4.889  -0.140  -0.040  0.00  0.00    -0.107 NA
ATOM     18  N   UNL     1       5.779  -1.068  -0.056  0.00  0.00    -0.111 NA
ATOM     19  C   UNL     1       5.194  -2.233  -0.062  0.00  0.00    +0.228 A 
ATOM     20  O   UNL     1       3.867  -2.022  -0.046  0.00  0.00    -0.419 OA
BRANCH  16  24
ATOM     21  C   UNL     1      -0.017   1.379   0.010  0.00  0.00    +0.000 A 
ATOM     22  C   UNL     1       1.168   2.093   0.002  0.00  0.00    +0.001 A 
ATOM     23  C   UNL     1       2.377   1.429  -0.013  0.00  0.00    +0.013 A 
ATOM     24  C   UNL     1       2.403   0.034  -0.021  0.00  0.00    +0.038 A 
ATOM     25  C   UNL     1       1.204  -0.681  -0.013  0.00  0.00    +0.013 A 
ATOM     26  C   UNL     1       0.002  -0.004   0.002  0.00  0.00    +0.001 A 
ENDBRANCH  16  24
ENDBRANCH  15  19
ENDBRANCH   1  15
TORSDOF 6
