REMARK  Name = ZINC09126863
REMARK  5 active torsions:
REMARK  status: ('A' for Active; 'I' for Inactive)
REMARK    1  A    between atoms: C_4  and  N_7
REMARK    2  A    between atoms: C_8  and  S_12
REMARK    3  A    between atoms: S_12  and  C_13
REMARK    4  A    between atoms: N_23  and  S_24
REMARK    5  A    between atoms: S_24  and  C_27
REMARK                            x       y       z     vdW  Elec       q    Type
REMARK                         _______ _______ _______ _____ _____    ______ ____
ROOT
ATOM      1  C   UNL     1      -0.683   3.968   0.027  0.00  0.00    +0.146 A 
ATOM      2  C   UNL     1      -1.485   5.135   0.032  0.00  0.00    +0.171 A 
ATOM      3  N   UNL     1      -0.926   6.327   0.041  0.00  0.00    -0.227 NA
ATOM      4  C   UNL     1       0.410   6.437   0.035  0.00  0.00    +0.091 A 
ATOM      5  C   UNL     1       1.029   7.697   0.038  0.00  0.00    +0.030 A 
ATOM      6  C   UNL     1       2.389   7.784   0.032  0.00  0.00    +0.002 A 
ATOM      7  C   UNL     1       3.178   6.636   0.021  0.00  0.00    +0.002 A 
ATOM      8  C   UNL     1       2.611   5.398   0.018  0.00  0.00    +0.030 A 
ATOM      9  C   UNL     1       1.212   5.271   0.025  0.00  0.00    +0.091 A 
ATOM     10  N   UNL     1       0.631   4.063   0.021  0.00  0.00    -0.235 NA
ATOM     11  N   UNL     1      -2.867   5.021   0.032  0.00  0.00    -0.197 N 
ATOM     12  H   UNL     1      -3.281   4.144   0.029  0.00  0.00    +0.175 HD
ENDROOT
BRANCH  11  13
ATOM     13  S   UNL     1      -3.810   6.383   0.037  0.00  0.00    +0.074 S 
ATOM     14  O   UNL     1      -5.160   5.941   0.010  0.00  0.00    -0.150 OA
ATOM     15  O   UNL     1      -3.304   7.223   1.065  0.00  0.00    -0.150 OA
BRANCH  13  16
ATOM     16  C   UNL     1      -3.522   7.221  -1.486  0.00  0.00    +0.109 A 
ATOM     17  C   UNL     1      -2.521   8.170  -1.573  0.00  0.00    +0.031 A 
ATOM     18  C   UNL     1      -2.292   8.825  -2.769  0.00  0.00    +0.040 A 
ATOM     19  C   UNL     1      -3.072   8.538  -3.876  0.00  0.00    +0.124 A 
ATOM     20  C   UNL     1      -4.078   7.591  -3.785  0.00  0.00    +0.040 A 
ATOM     21  C   UNL     1      -4.302   6.934  -2.590  0.00  0.00    +0.031 A 
ATOM     22  F   UNL     1      -2.852   9.181  -5.043  0.00  0.00    -0.205 F 
ENDBRANCH  13  16
ENDBRANCH  11  13
BRANCH   1  23
ATOM     23  S   UNL     1      -1.447   2.381   0.022  0.00  0.00    -0.025 S 
BRANCH  23  25
ATOM     24  N   UNL     1       0.002  -0.004   0.002  0.00  0.00    -0.187 N 
ATOM     25  C   UNL     1      -0.016   1.353   0.009  0.00  0.00    +0.220 A 
ATOM     26  N   UNL     1       1.236   1.755  -0.000  0.00  0.00    -0.101 NA
ATOM     27  N   UNL     1       2.032   0.748  -0.013  0.00  0.00    -0.022 NA
ATOM     28  N   UNL     1       1.364  -0.354  -0.013  0.00  0.00    -0.038 NA
BRANCH  24  32
ATOM     29  C   UNL     1      -3.274  -2.582   0.021  0.00  0.00    +0.000 A 
ATOM     30  C   UNL     1      -2.132  -2.923  -0.679  0.00  0.00    +0.002 A 
ATOM     31  C   UNL     1      -1.045  -2.071  -0.688  0.00  0.00    +0.028 A 
ATOM     32  C   UNL     1      -1.100  -0.871   0.008  0.00  0.00    +0.070 A 
ATOM     33  C   UNL     1      -2.246  -0.534   0.715  0.00  0.00    +0.028 A 
ATOM     34  C   UNL     1      -3.332  -1.387   0.715  0.00  0.00    +0.002 A 
ENDBRANCH  24  32
ENDBRANCH  23  25
ENDBRANCH   1  23
TORSDOF 5
