REMARK  Name = ZINC47089121
REMARK  9 active torsions:
REMARK  status: ('A' for Active; 'I' for Inactive)
REMARK    1  A    between atoms: C_4  and  C_7
REMARK    2  A    between atoms: C_7  and  O_8
REMARK    3  A    between atoms: O_8  and  C_9
REMARK    4  A    between atoms: C_12  and  O_15
REMARK    5  A    between atoms: O_15  and  C_16
REMARK    6  A    between atoms: C_16  and  C_17
REMARK    7  A    between atoms: N_19  and  N_20
REMARK    8  A    between atoms: N_23  and  C_24
REMARK    9  A    between atoms: C_24  and  C_25
REMARK                            x       y       z     vdW  Elec       q    Type
REMARK                         _______ _______ _______ _____ _____    ______ ____
ROOT
ATOM      1  C   UNL     1       9.323  -3.850   3.302  0.00  0.00    +0.326 C 
ENDROOT
BRANCH   1   2
ATOM      2  C   UNL     1      10.638  -4.586   3.284  0.00  0.00    +0.267 C 
ATOM      3  O   UNL     1      11.159  -4.873   2.227  0.00  0.00    -0.271 OA
ATOM      4  N   UNL     1      11.236  -4.925   4.444  0.00  0.00    -0.230 N 
ATOM      5  H   UNL     1      10.820  -4.696   5.289  0.00  0.00    +0.173 HD
BRANCH   4   6
ATOM      6  N   UNL     1      12.459  -5.609   4.427  0.00  0.00    -0.218 N 
ATOM      7  C   UNL     1      13.057  -5.948   5.587  0.00  0.00    +0.316 C 
ATOM      8  O   UNL     1      14.118  -6.542   5.572  0.00  0.00    -0.251 OA
ATOM      9  N   UNL     1      12.479  -5.629   6.761  0.00  0.00    -0.294 N 
ATOM     10  H   UNL     1      12.875  -5.839   3.582  0.00  0.00    +0.174 HD
ATOM     11  H   UNL     1      11.632  -5.155   6.773  0.00  0.00    +0.151 HD
BRANCH   9  12
ATOM     12  C   UNL     1      13.129  -5.998   8.022  0.00  0.00    +0.144 C 
BRANCH  12  13
ATOM     13  C   UNL     1      12.284  -5.529   9.178  0.00  0.00    +0.007 A 
ATOM     14  C   UNL     1      12.362  -4.274   9.825  0.00  0.00    +0.046 A 
ATOM     15  C   UNL     1      11.432  -4.278  10.796  0.00  0.00    +0.195 A 
ATOM     16  O   UNL     1      10.797  -5.462  10.772  0.00  0.00    -0.471 OA
ATOM     17  C   UNL     1      11.307  -6.223   9.790  0.00  0.00    +0.200 A 
ENDBRANCH  12  13
ENDBRANCH   9  12
ENDBRANCH   4   6
ENDBRANCH   1   2
BRANCH   1  18
ATOM     18  O   UNL     1       8.896  -3.606   1.960  0.00  0.00    -0.483 OA
BRANCH  18  22
ATOM     19  C   UNL     1       5.319  -1.605   1.467  0.00  0.00    +0.121 A 
ATOM     20  C   UNL     1       6.048  -2.007   0.357  0.00  0.00    +0.049 A 
ATOM     21  C   UNL     1       7.245  -2.677   0.522  0.00  0.00    +0.049 A 
ATOM     22  C   UNL     1       7.718  -2.946   1.798  0.00  0.00    +0.121 A 
ATOM     23  C   UNL     1       6.990  -2.544   2.907  0.00  0.00    +0.049 A 
ATOM     24  C   UNL     1       5.795  -1.871   2.742  0.00  0.00    +0.049 A 
BRANCH  19  25
ATOM     25  O   UNL     1       4.141  -0.946   1.304  0.00  0.00    -0.487 OA
BRANCH  25  26
ATOM     26  C   UNL     1       3.711  -0.707  -0.038  0.00  0.00    +0.264 C 
BRANCH  26  30
ATOM     27  C   UNL     1      -0.017   1.378   0.010  0.00  0.00    +0.000 A 
ATOM     28  C   UNL     1       1.171   2.086   0.002  0.00  0.00    +0.000 A 
ATOM     29  C   UNL     1       2.377   1.411  -0.013  0.00  0.00    +0.007 A 
ATOM     30  C   UNL     1       2.396   0.029  -0.020  0.00  0.00    -0.010 A 
ATOM     31  C   UNL     1       1.208  -0.679  -0.012  0.00  0.00    +0.007 A 
ATOM     32  C   UNL     1       0.002  -0.004   0.002  0.00  0.00    +0.000 A 
ENDBRANCH  26  30
ENDBRANCH  25  26
ENDBRANCH  19  25
ENDBRANCH  18  22
ENDBRANCH   1  18
TORSDOF 9
