REMARK  Name = ZINC40799091
REMARK  6 active torsions:
REMARK  status: ('A' for Active; 'I' for Inactive)
REMARK    1  A    between atoms: C_1  and  C_2
REMARK    2  A    between atoms: C_4  and  C_28
REMARK    3  A    between atoms: C_8  and  N_27
REMARK    4  A    between atoms: C_9  and  N_13
REMARK    5  A    between atoms: N_13  and  C_14
REMARK    6  A    between atoms: C_14  and  C_15
REMARK                            x       y       z     vdW  Elec       q    Type
REMARK                         _______ _______ _______ _____ _____    ______ ____
ROOT
ATOM      1  C   UNL     1      -5.505  -5.036  -0.591  0.00  0.00    +0.067 C 
ATOM      2  C   UNL     1      -4.018  -4.833  -0.455  0.00  0.00    +0.061 A 
ATOM      3  C   UNL     1      -3.106  -4.723  -1.510  0.00  0.00    +0.048 A 
ATOM      4  C   UNL     1      -1.873  -4.549  -0.981  0.00  0.00    +0.044 A 
ATOM      5  N   UNL     1      -2.003  -4.550   0.372  0.00  0.00    -0.217 N 
ATOM      6  N   UNL     1      -3.361  -4.725   0.671  0.00  0.00    -0.170 NA
ATOM      7  C   UNL     1      -0.968  -4.398   1.298  0.00  0.00    +0.180 A 
ATOM      8  C   UNL     1      -1.247  -4.298   2.661  0.00  0.00    +0.110 A 
ATOM      9  C   UNL     1      -0.174  -4.148   3.545  0.00  0.00    +0.153 A 
ATOM     10  N   UNL     1       1.062  -4.106   3.056  0.00  0.00    -0.218 NA
ATOM     11  C   UNL     1       1.280  -4.205   1.760  0.00  0.00    +0.225 A 
ATOM     12  N   UNL     1       0.298  -4.352   0.895  0.00  0.00    -0.215 NA
ATOM     13  C   UNL     1      -0.589  -4.386  -1.751  0.00  0.00    +0.066 C 
ENDROOT
BRANCH   9  14
ATOM     14  N   UNL     1      -0.396  -4.043   4.914  0.00  0.00    -0.264 N 
ATOM     15  C   UNL     1      -0.671  -2.803   5.481  0.00  0.00    +0.127 A 
ATOM     16  C   UNL     1      -0.717  -1.671   4.674  0.00  0.00    +0.044 A 
ATOM     17  C   UNL     1      -0.992  -0.444   5.251  0.00  0.00    +0.005 A 
ATOM     18  C   UNL     1      -1.212  -0.391   6.621  0.00  0.00    +0.020 A 
ATOM     19  C   UNL     1      -1.151  -1.554   7.361  0.00  0.00    +0.113 A 
ATOM     20  N   UNL     1      -0.892  -2.712   6.783  0.00  0.00    -0.240 NA
BRANCH  14  21
ATOM     21  C   UNL     1      -0.339  -5.239   5.758  0.00  0.00    +0.149 C 
BRANCH  21  22
ATOM     22  C   UNL     1       1.069  -5.436   6.257  0.00  0.00    -0.030 A 
ATOM     23  C   UNL     1       1.964  -6.189   5.521  0.00  0.00    +0.005 A 
ATOM     24  C   UNL     1       3.256  -6.370   5.978  0.00  0.00    +0.000 A 
ATOM     25  C   UNL     1       3.654  -5.796   7.171  0.00  0.00    +0.000 A 
ATOM     26  C   UNL     1       2.759  -5.042   7.907  0.00  0.00    +0.000 A 
ATOM     27  C   UNL     1       1.468  -4.858   7.447  0.00  0.00    +0.005 A 
ENDBRANCH  21  22
ENDBRANCH  14  21
ENDBRANCH   9  14
BRANCH   8  28
ATOM     28  N   UNL     1      -2.566  -4.346   3.131  0.00  0.00    -0.352 N 
ATOM     29  H   UNL     1      -3.293  -4.536   2.518  0.00  0.00    +0.143 HD
ATOM     30  H   UNL     1      -2.752  -4.191   4.071  0.00  0.00    +0.143 HD
ENDBRANCH   8  28
TORSDOF 4
