REMARK  Name = ZINC00934298
REMARK  6 active torsions:
REMARK  status: ('A' for Active; 'I' for Inactive)
REMARK    1  A    between atoms: C_5  and  O_7
REMARK    2  A    between atoms: O_7  and  C_8
REMARK    3  A    between atoms: C_14  and  O_29
REMARK    4  A    between atoms: C_15  and  C_23
REMARK    5  A    between atoms: C_18  and  C_19
REMARK    6  A    between atoms: C_23  and  N_24
REMARK                            x       y       z     vdW  Elec       q    Type
REMARK                         _______ _______ _______ _____ _____    ______ ____
ROOT
ATOM      1  C   UNL     1      -0.004  -2.609  -0.000  0.00  0.00    +0.222 A 
ATOM      2  C   UNL     1      -0.139  -4.026   0.033  0.00  0.00    +0.235 A 
ATOM      3  O   UNL     1       0.833  -4.755   0.139  0.00  0.00    -0.283 OA
ATOM      4  C   UNL     1      -1.502  -4.575  -0.066  0.00  0.00    +0.068 A 
ATOM      5  C   UNL     1      -1.736  -5.951  -0.042  0.00  0.00    +0.019 A 
ATOM      6  C   UNL     1      -3.014  -6.423  -0.135  0.00  0.00    +0.046 A 
ATOM      7  C   UNL     1      -4.085  -5.539  -0.254  0.00  0.00    +0.122 A 
ATOM      8  C   UNL     1      -3.869  -4.171  -0.280  0.00  0.00    +0.020 A 
ATOM      9  C   UNL     1      -2.576  -3.676  -0.185  0.00  0.00    +0.144 A 
ATOM     10  O   UNL     1      -2.339  -2.349  -0.207  0.00  0.00    -0.447 OA
ATOM     11  C   UNL     1      -1.104  -1.839  -0.113  0.00  0.00    +0.254 A 
ENDROOT
BRANCH  11  12
ATOM     12  C   UNL     1      -0.937  -0.341  -0.139  0.00  0.00    +0.454 C 
ATOM     13  F   UNL     1       0.424  -0.025  -0.211  0.00  0.00    -0.163 F 
ATOM     14  F   UNL     1      -1.597   0.182  -1.257  0.00  0.00    -0.163 F 
ATOM     15  F   UNL     1      -1.483   0.210   1.025  0.00  0.00    -0.163 F 
ENDBRANCH  11  12
BRANCH   7  16
ATOM     16  O   UNL     1      -5.350  -6.022  -0.346  0.00  0.00    -0.506 OA
ATOM     17  H   UNL     1      -5.791  -6.135   0.508  0.00  0.00    +0.292 HD
ENDBRANCH   7  16
BRANCH   1  18
ATOM     18  O   UNL     1       1.228  -2.036   0.087  0.00  0.00    -0.447 OA
BRANCH  18  23
ATOM     19  C   UNL     1       2.571  -3.104  -3.122  0.00  0.00    +0.004 A 
ATOM     20  C   UNL     1       3.870  -2.643  -3.023  0.00  0.00    +0.001 A 
ATOM     21  C   UNL     1       4.287  -1.978  -1.885  0.00  0.00    +0.019 A 
ATOM     22  C   UNL     1       3.404  -1.774  -0.841  0.00  0.00    +0.060 A 
ATOM     23  C   UNL     1       2.098  -2.236  -0.938  0.00  0.00    +0.143 A 
ATOM     24  C   UNL     1       1.684  -2.902  -2.082  0.00  0.00    +0.047 A 
ATOM     25 BR   UNL     1       3.974  -0.865   0.717  0.00  0.00    -0.046 Br
ENDBRANCH  18  23
ENDBRANCH   1  18
BRANCH   8  26
ATOM     26  C   UNL     1      -5.035  -3.224  -0.409  0.00  0.00    -0.036 C 
BRANCH  26  27
ATOM     27  N   UNL     1      -5.531  -2.872   0.928  0.00  0.00    +0.383 N 
ATOM     28  C   UNL     1      -4.532  -2.036   1.641  0.00  0.00    -0.078 C 
ATOM     29  C   UNL     1      -5.380  -1.308   2.714  0.00  0.00    -0.020 C 
ATOM     30  C   UNL     1      -6.705  -1.020   1.970  0.00  0.00    -0.020 C 
ATOM     31  C   UNL     1      -6.748  -2.040   0.817  0.00  0.00    -0.078 C 
ATOM     32  H   UNL     1      -5.728  -3.708   1.457  0.00  0.00    -0.081 HD
ENDBRANCH  26  27
ENDBRANCH   8  26
TORSDOF 6
