REMARK  Name = ZINC39690558
REMARK  9 active torsions:
REMARK  status: ('A' for Active; 'I' for Inactive)
REMARK    1  A    between atoms: C_1  and  C_2
REMARK    2  A    between atoms: C_4  and  C_30
REMARK    3  A    between atoms: C_8  and  C_12
REMARK    4  A    between atoms: C_12  and  S_13
REMARK    5  A    between atoms: S_13  and  C_14
REMARK    6  A    between atoms: N_19  and  C_20
REMARK    7  A    between atoms: C_23  and  C_26
REMARK    8  A    between atoms: C_26  and  C_27
REMARK    9  A    between atoms: C_26  and  C_28
REMARK                            x       y       z     vdW  Elec       q    Type
REMARK                         _______ _______ _______ _____ _____    ______ ____
ROOT
ATOM      1  S   UNL     1       5.468  -4.781   0.388  0.00  0.00    -0.089 S 
ENDROOT
BRANCH   1   2
ATOM      2  C   UNL     1       6.774  -5.310   1.445  0.00  0.00    +0.160 A 
ATOM      3  N   UNL     1       6.911  -5.153   2.748  0.00  0.00    -0.133 NA
ATOM      4  N   UNL     1       8.025  -5.652   3.384  0.00  0.00    -0.125 NA
ATOM      5  C   UNL     1       8.950  -6.284   2.688  0.00  0.00    +0.187 A 
ATOM      6  S   UNL     1       8.264  -6.208   1.040  0.00  0.00    -0.024 S 
ATOM      7  N   UNL     1      10.139  -6.859   3.122  0.00  0.00    -0.292 N 
ATOM      8  H   UNL     1      10.768  -7.218   2.477  0.00  0.00    +0.154 HD
BRANCH   7   9
ATOM      9  C   UNL     1      10.428  -6.921   4.488  0.00  0.00    +0.033 A 
ATOM     10  C   UNL     1      11.748  -6.964   4.919  0.00  0.00    +0.023 A 
ATOM     11  C   UNL     1      12.029  -7.024   6.270  0.00  0.00    +0.006 A 
ATOM     12  C   UNL     1      10.999  -7.042   7.192  0.00  0.00    -0.045 A 
ATOM     13  C   UNL     1       9.684  -7.000   6.766  0.00  0.00    +0.006 A 
ATOM     14  C   UNL     1       9.396  -6.934   5.418  0.00  0.00    +0.023 A 
BRANCH  12  15
ATOM     15  C   UNL     1      11.311  -7.109   8.665  0.00  0.00    +0.013 C 
ATOM     16  C   UNL     1      10.735  -5.876   9.365  0.00  0.00    +0.012 C 
ATOM     17  C   UNL     1      10.686  -8.372   9.262  0.00  0.00    +0.012 C 
ENDBRANCH  12  15
ENDBRANCH   7   9
ENDBRANCH   1   2
BRANCH   1  18
ATOM     18  C   UNL     1       4.314  -3.938   1.505  0.00  0.00    +0.150 C 
BRANCH  18  25
ATOM     19  C   UNL     1      -0.988   0.155  -0.065  0.00  0.00    +0.057 C 
ATOM     20  C   UNL     1      -0.821  -1.355   0.110  0.00  0.00    +0.210 C 
ATOM     21  C   UNL     1      -0.154  -1.948  -1.111  0.00  0.00    +0.098 C 
ATOM     22  C   UNL     1       1.001  -2.507  -0.681  0.00  0.00    +0.114 C 
ATOM     23  C   UNL     1       1.115  -2.303   0.778  0.00  0.00    +0.230 C 
ATOM     24  N   UNL     1       2.186  -2.784   1.383  0.00  0.00    -0.199 NA
ATOM     25  C   UNL     1       3.133  -3.429   0.718  0.00  0.00    +0.136 C 
ATOM     26  N   UNL     1       3.121  -3.659  -0.570  0.00  0.00    -0.160 NA
ATOM     27  C   UNL     1       2.106  -3.240  -1.349  0.00  0.00    +0.275 C 
ATOM     28  O   UNL     1       2.095  -3.454  -2.548  0.00  0.00    -0.268 OA
ATOM     29  O   UNL     1       0.039  -1.628   1.220  0.00  0.00    -0.468 OA
BRANCH  21  30
ATOM     30  C   UNL     1      -0.664  -1.921  -2.504  0.00  0.00    +0.387 C 
ATOM     31  O   UNL     1      -0.018  -2.442  -3.401  0.00  0.00    -0.241 OA
ATOM     32  O   UNL     1      -1.729  -1.378  -2.754  0.00  0.00    -0.241 OA
ENDBRANCH  21  30
ENDBRANCH  18  25
ENDBRANCH   1  18
TORSDOF 6
