REMARK  Name = ZINC15046887
REMARK  9 active torsions:
REMARK  status: ('A' for Active; 'I' for Inactive)
REMARK    1  A    between atoms: C_1  and  C_2
REMARK    2  A    between atoms: C_2  and  C_4
REMARK    3  A    between atoms: C_2  and  N_14
REMARK    4  A    between atoms: N_6  and  C_7
REMARK    5  A    between atoms: C_10  and  O_13
REMARK    6  A    between atoms: C_18  and  C_19
REMARK    7  A    between atoms: C_22  and  O_27
REMARK    8  A    between atoms: C_23  and  O_25
REMARK    9  A    between atoms: O_25  and  C_26
REMARK                            x       y       z     vdW  Elec       q    Type
REMARK                         _______ _______ _______ _____ _____    ______ ____
ROOT
ATOM      1  N   UNL     1       3.773   1.626   0.585  0.00  0.00    -0.244 N 
ATOM      2  C   UNL     1       2.681   0.976   0.221  0.00  0.00    +0.259 C 
ATOM      3  O   UNL     1       2.674  -0.233   0.077  0.00  0.00    -0.269 OA
ATOM      4  C   UNL     1       1.469   1.790  -0.001  0.00  0.00    +0.077 C 
ATOM      5  C   UNL     1       0.223   1.403  -0.375  0.00  0.00    +0.028 C 
ATOM      6  S   UNL     1       2.096   3.427   0.351  0.00  0.00    -0.061 S 
ATOM      7  C   UNL     1       3.776   2.965   0.745  0.00  0.00    +0.121 C 
ATOM      8  S   UNL     1       5.077   3.978   1.206  0.00  0.00    -0.027 S 
ENDROOT
BRANCH   5   9
ATOM      9  C   UNL     1      -0.872   2.381  -0.402  0.00  0.00    -0.020 A 
ATOM     10  C   UNL     1      -2.106   2.038  -0.969  0.00  0.00    +0.012 A 
ATOM     11  C   UNL     1      -3.131   2.957  -0.993  0.00  0.00    +0.050 A 
ATOM     12  C   UNL     1      -2.946   4.224  -0.456  0.00  0.00    +0.158 A 
ATOM     13  C   UNL     1      -1.721   4.574   0.111  0.00  0.00    +0.162 A 
ATOM     14  C   UNL     1      -0.688   3.657   0.144  0.00  0.00    +0.057 A 
BRANCH  13  15
ATOM     15  O   UNL     1      -1.544   5.816   0.635  0.00  0.00    -0.491 OA
ATOM     16  C   UNL     1      -0.264   6.105   1.200  0.00  0.00    +0.277 C 
ENDBRANCH  13  15
BRANCH  12  17
ATOM     17  O   UNL     1      -3.961   5.127  -0.483  0.00  0.00    -0.503 OA
ATOM     18  H   UNL     1      -4.535   5.096   0.294  0.00  0.00    +0.292 HD
ENDBRANCH  12  17
ENDBRANCH   5   9
BRANCH   1  20
ATOM     19  C   UNL     1       5.466   1.084   2.265  0.00  0.00    +0.038 C 
ATOM     20  C   UNL     1       5.008   0.875   0.821  0.00  0.00    +0.166 C 
BRANCH  20  21
ATOM     21  C   UNL     1       6.080   1.362  -0.121  0.00  0.00    +0.238 C 
ATOM     22  O   UNL     1       5.835   2.249  -0.911  0.00  0.00    -0.273 OA
ATOM     23  N   UNL     1       7.309   0.811  -0.086  0.00  0.00    -0.284 N 
ATOM     24  H   UNL     1       7.491   0.069   0.512  0.00  0.00    +0.155 HD
BRANCH  23  25
ATOM     25  C   UNL     1       8.325   1.311  -0.911  0.00  0.00    +0.034 A 
ATOM     26  C   UNL     1       8.019   1.776  -2.184  0.00  0.00    +0.027 A 
ATOM     27  C   UNL     1       9.020   2.272  -2.996  0.00  0.00    +0.047 A 
ATOM     28  C   UNL     1      10.331   2.297  -2.545  0.00  0.00    +0.117 A 
ATOM     29  C   UNL     1      10.638   1.829  -1.275  0.00  0.00    +0.047 A 
ATOM     30  C   UNL     1       9.638   1.336  -0.460  0.00  0.00    +0.027 A 
BRANCH  28  31
ATOM     31  O   UNL     1      11.317   2.781  -3.347  0.00  0.00    -0.507 OA
ATOM     32  H   UNL     1      11.731   2.111  -3.909  0.00  0.00    +0.292 HD
ENDBRANCH  28  31
ENDBRANCH  23  25
ENDBRANCH  20  21
ENDBRANCH   1  20
TORSDOF 7
