REMARK  Name = ZINC48523817
REMARK  9 active torsions:
REMARK  status: ('A' for Active; 'I' for Inactive)
REMARK    1  A    between atoms: C_1  and  O_2
REMARK    2  A    between atoms: O_2  and  C_3
REMARK    3  A    between atoms: C_3  and  C_4
REMARK    4  A    between atoms: C_4  and  O_5
REMARK    5  A    between atoms: O_5  and  C_6
REMARK    6  A    between atoms: C_11  and  C_12
REMARK    7  A    between atoms: C_12  and  O_14
REMARK    8  A    between atoms: O_14  and  N_15
REMARK    9  A    between atoms: N_18  and  C_19
REMARK                            x       y       z     vdW  Elec       q    Type
REMARK                         _______ _______ _______ _____ _____    ______ ____
ROOT
ATOM      1  N   UNL     1       1.631  -2.928   5.649  0.00  0.00    -0.186 N 
ATOM      2  C   UNL     1       2.230  -3.277   6.830  0.00  0.00    +0.202 C 
ATOM      3  N   UNL     1       2.476  -4.532   7.090  0.00  0.00    -0.369 N 
ATOM      4  N   UNL     1       2.574  -2.305   7.741  0.00  0.00    -0.353 N 
ATOM      5  H   UNL     1       1.448  -1.995   5.455  0.00  0.00    +0.211 HD
ATOM      6  H   UNL     1       2.901  -4.780   7.927  0.00  0.00    +0.159 HD
ATOM      7  H   UNL     1       2.392  -1.372   7.547  0.00  0.00    +0.163 HD
ATOM      8  H   UNL     1       2.234  -5.218   6.448  0.00  0.00    +0.159 HD
ENDROOT
BRANCH   4   9
ATOM      9  C   UNL     1       3.215  -2.679   9.004  0.00  0.00    +0.082 C 
ATOM     10  C   UNL     1       2.143  -3.053  10.029  0.00  0.00    +0.024 C 
ATOM     11  C   UNL     1       2.791  -3.811  11.190  0.00  0.00    +0.002 C 
ATOM     12  C   UNL     1       3.778  -4.842  10.640  0.00  0.00    +0.000 C 
ATOM     13  C   UNL     1       5.203  -4.442  11.028  0.00  0.00    +0.000 C 
ATOM     14  C   UNL     1       5.667  -3.286  10.141  0.00  0.00    +0.000 C 
ATOM     15  C   UNL     1       5.004  -1.988  10.605  0.00  0.00    +0.002 C 
ATOM     16  C   UNL     1       4.033  -1.497   9.530  0.00  0.00    +0.024 C 
ENDBRANCH   4   9
BRANCH   1  17
ATOM     17  O   UNL     1       1.277  -3.928   4.711  0.00  0.00    -0.334 OA
BRANCH  17  18
ATOM     18  C   UNL     1       0.697  -3.452   3.596  0.00  0.00    +0.367 C 
ATOM     19  O   UNL     1       0.520  -2.256   3.466  0.00  0.00    -0.243 OA
BRANCH  18  25
ATOM     20  C   UNL     1      -0.331  -3.888   1.367  0.00  0.00    +0.135 A 
ATOM     21  C   UNL     1      -0.718  -4.769   0.368  0.00  0.00    +0.047 A 
ATOM     22  C   UNL     1      -0.513  -6.125   0.523  0.00  0.00    +0.019 A 
ATOM     23  C   UNL     1       0.080  -6.617   1.676  0.00  0.00    +0.019 A 
ATOM     24  C   UNL     1       0.472  -5.756   2.678  0.00  0.00    +0.034 A 
ATOM     25  C   UNL     1       0.275  -4.380   2.531  0.00  0.00    +0.104 A 
ATOM     26 BR   UNL     1       0.353  -8.478   1.874  0.00  0.00    -0.050 Br
BRANCH  20  27
ATOM     27  O   UNL     1      -0.531  -2.555   1.214  0.00  0.00    -0.489 OA
BRANCH  27  28
ATOM     28  C   UNL     1      -1.154  -2.126   0.002  0.00  0.00    +0.257 C 
BRANCH  28  29
ATOM     29  C   UNL     1      -1.295  -0.603   0.011  0.00  0.00    +0.200 C 
BRANCH  29  31
ATOM     30  C   UNL     1      -0.017   1.425   0.010  0.00  0.00    +0.194 C 
ATOM     31  O   UNL     1       0.002  -0.004   0.002  0.00  0.00    -0.380 OA
ENDBRANCH  29  31
ENDBRANCH  28  29
ENDBRANCH  27  28
ENDBRANCH  20  27
ENDBRANCH  18  25
ENDBRANCH  17  18
ENDBRANCH   1  17
TORSDOF 8
