REMARK  Name = ZINC02215493
REMARK  7 active torsions:
REMARK  status: ('A' for Active; 'I' for Inactive)
REMARK    1  A    between atoms: C_1  and  C_2
REMARK    2  A    between atoms: C_2  and  C_3
REMARK    3  A    between atoms: C_3  and  C_4
REMARK    4  A    between atoms: C_12  and  N_25
REMARK    5  A    between atoms: C_14  and  S_16
REMARK    6  A    between atoms: S_16  and  C_17
REMARK    7  A    between atoms: C_17  and  C_18
REMARK                            x       y       z     vdW  Elec       q    Type
REMARK                         _______ _______ _______ _____ _____    ______ ____
ROOT
ATOM      1  C   UNL     1       2.177 -10.825   0.069  0.00  0.00    +0.123 C 
ATOM      2  C   UNL     1       1.592  -9.442   0.368  0.00  0.00    +0.068 C 
ATOM      3  C   UNL     1       1.538  -8.657  -0.940  0.00  0.00    -0.020 A 
ATOM      4  C   UNL     1       1.627  -9.316  -2.115  0.00  0.00    +0.021 A 
ATOM      5  S   UNL     1       1.527  -8.058  -3.358  0.00  0.00    -0.071 S 
ATOM      6  C   UNL     1       1.366  -6.646  -2.295  0.00  0.00    +0.115 A 
ATOM      7  C   UNL     1       1.396  -7.204  -1.000  0.00  0.00    +0.051 A 
ATOM      8  C   UNL     1       1.282  -6.272   0.070  0.00  0.00    +0.129 A 
ATOM      9  N   UNL     1       1.159  -4.984  -0.203  0.00  0.00    -0.207 NA
ATOM     10  C   UNL     1       1.138  -4.526  -1.450  0.00  0.00    +0.191 A 
ATOM     11  N   UNL     1       1.235  -5.348  -2.486  0.00  0.00    -0.215 NA
ATOM     12  C   UNL     1       1.775 -10.795  -2.293  0.00  0.00    +0.203 C 
ATOM     13  O   UNL     1       1.490 -11.423  -1.034  0.00  0.00    -0.371 OA
ENDROOT
BRANCH   8  14
ATOM     14  N   UNL     1       1.301  -6.710   1.382  0.00  0.00    -0.343 N 
ATOM     15  H   UNL     1       1.373  -6.068   2.106  0.00  0.00    +0.144 HD
ATOM     16  H   UNL     1       1.242  -7.658   1.578  0.00  0.00    +0.144 HD
ENDBRANCH   8  14
BRANCH   1  17
ATOM     17  C   UNL     1       2.025 -11.716   1.304  0.00  0.00    +0.031 C 
BRANCH  17  19
ATOM     18  C   UNL     1       2.578 -13.941   2.296  0.00  0.00    +0.004 C 
ATOM     19  C   UNL     1       2.731 -13.051   1.061  0.00  0.00    -0.001 C 
ENDBRANCH  17  19
ENDBRANCH   1  17
BRANCH  10  20
ATOM     20  S   UNL     1       0.971  -2.795  -1.731  0.00  0.00    -0.081 S 
BRANCH  20  21
ATOM     21  C   UNL     1       0.879  -2.206  -0.022  0.00  0.00    +0.112 C 
BRANCH  21  22
ATOM     22  C   UNL     1       0.729  -0.706  -0.015  0.00  0.00    -0.037 A 
ATOM     23  C   UNL     1      -0.531  -0.138  -0.035  0.00  0.00    +0.006 A 
ATOM     24  C   UNL     1      -0.669   1.238  -0.028  0.00  0.00    +0.020 A 
ATOM     25  C   UNL     1       0.454   2.045  -0.001  0.00  0.00    +0.041 A 
ATOM     26  C   UNL     1       1.715   1.476   0.019  0.00  0.00    +0.020 A 
ATOM     27  C   UNL     1       1.851   0.100   0.012  0.00  0.00    +0.006 A 
ATOM     28 CL   UNL     1       0.281   3.773   0.007  0.00  0.00    -0.084 Cl
ENDBRANCH  21  22
ENDBRANCH  20  21
ENDBRANCH  10  20
TORSDOF 6
