REMARK  Name = ZINC62930790
REMARK  9 active torsions:
REMARK  status: ('A' for Active; 'I' for Inactive)
REMARK    1  A    between atoms: C_1  and  C_2
REMARK    2  A    between atoms: C_2  and  C_3
REMARK    3  A    between atoms: C_2  and  N_4
REMARK    4  A    between atoms: N_7  and  N_8
REMARK    5  A    between atoms: N_8  and  S_9
REMARK    6  A    between atoms: S_9  and  C_12
REMARK    7  A    between atoms: C_16  and  C_18
REMARK    8  A    between atoms: N_20  and  C_21
REMARK    9  A    between atoms: C_21  and  C_22
REMARK                            x       y       z     vdW  Elec       q    Type
REMARK                         _______ _______ _______ _____ _____    ______ ____
ROOT
ATOM      1  C   UNL     1       2.651  -1.121   6.045  0.00  0.00    +0.108 A 
ATOM      2  C   UNL     1       1.758  -0.321   6.736  0.00  0.00    +0.028 A 
ATOM      3  C   UNL     1       1.369  -0.658   8.020  0.00  0.00    +0.003 A 
ATOM      4  C   UNL     1       1.869  -1.795   8.620  0.00  0.00    +0.013 A 
ATOM      5  C   UNL     1       2.770  -2.606   7.928  0.00  0.00    +0.039 A 
ATOM      6  C   UNL     1       3.155  -2.263   6.631  0.00  0.00    +0.041 A 
ENDROOT
BRANCH   5   7
ATOM      7  C   UNL     1       3.310  -3.826   8.565  0.00  0.00    +0.244 C 
ATOM      8  O   UNL     1       4.095  -4.531   7.960  0.00  0.00    -0.270 OA
ATOM      9  N   UNL     1       2.933  -4.157   9.816  0.00  0.00    -0.303 N 
ATOM     10  H   UNL     1       2.307  -3.595  10.298  0.00  0.00    +0.149 HD
BRANCH   9  11
ATOM     11  C   UNL     1       3.469  -5.366  10.447  0.00  0.00    +0.217 C 
BRANCH  11  12
ATOM     12  C   UNL     1       2.885  -5.508  11.854  0.00  0.00    +0.405 C 
ATOM     13  F   UNL     1       1.492  -5.603  11.773  0.00  0.00    -0.169 F 
ATOM     14  F   UNL     1       3.397  -6.662  12.456  0.00  0.00    -0.169 F 
ATOM     15  F   UNL     1       3.233  -4.390  12.618  0.00  0.00    -0.169 F 
ENDBRANCH  11  12
ENDBRANCH   9  11
ENDBRANCH   5   7
BRANCH   1  16
ATOM     16  S   UNL     1       3.140  -0.682   4.410  0.00  0.00    +0.074 S 
ATOM     17  O   UNL     1       4.398  -1.304   4.182  0.00  0.00    -0.152 OA
ATOM     18  O   UNL     1       2.951   0.721   4.292  0.00  0.00    -0.152 OA
BRANCH  16  19
ATOM     19  N   UNL     1       2.066  -1.394   3.370  0.00  0.00    -0.107 NA
ATOM     20  H   UNL     1       2.381  -2.029   2.707  0.00  0.00    +0.172 HD
BRANCH  19  24
ATOM     21  N   UNL     1       0.711  -0.489   1.189  0.00  0.00    -0.296 N 
ATOM     22  C   UNL     1       0.051  -0.633   2.355  0.00  0.00    +0.315 C 
ATOM     23  O   UNL     1      -1.132  -0.361   2.423  0.00  0.00    -0.251 OA
ATOM     24  N   UNL     1       0.703  -1.080   3.447  0.00  0.00    -0.216 N 
ATOM     25  H   UNL     1       1.654  -0.707   1.135  0.00  0.00    +0.151 HD
ATOM     26  H   UNL     1       0.229  -1.184   4.287  0.00  0.00    +0.172 HD
BRANCH  21  28
ATOM     27  C   UNL     1      -0.019   1.526   0.010  0.00  0.00    +0.027 C 
ATOM     28  C   UNL     1       0.002  -0.004   0.002  0.00  0.00    +0.068 C 
ATOM     29  C   UNL     1       0.718  -0.497  -1.257  0.00  0.00    +0.027 C 
ENDBRANCH  21  28
ENDBRANCH  19  24
ENDBRANCH  16  19
ENDBRANCH   1  16
TORSDOF 7
