REMARK  Name = ZINC11592037
REMARK  10 active torsions:
REMARK  status: ('A' for Active; 'I' for Inactive)
REMARK    1  A    between atoms: C_1  and  C_2
REMARK    2  A    between atoms: C_2  and  C_4
REMARK    3  A    between atoms: C_2  and  S_16
REMARK    4  A    between atoms: N_6  and  C_7
REMARK    5  A    between atoms: C_10  and  N_13
REMARK    6  A    between atoms: N_13  and  C_14
REMARK    7  A    between atoms: N_13  and  C_15
REMARK    8  A    between atoms: S_16  and  C_17
REMARK    9  A    between atoms: C_20  and  C_23
REMARK   10  A    between atoms: N_21  and  N_22
REMARK                            x       y       z     vdW  Elec       q    Type
REMARK                         _______ _______ _______ _____ _____    ______ ____
ROOT
ATOM      1  C   UNL     1       2.295   9.618   1.420  0.00  0.00    +0.029 C 
ATOM      2  C   UNL     1       2.727   9.583  -0.047  0.00  0.00    +0.137 C 
ENDROOT
BRANCH   2   3
ATOM      3  C   UNL     1       3.693  10.709  -0.313  0.00  0.00    +0.230 C 
ATOM      4  O   UNL     1       4.885  10.490  -0.347  0.00  0.00    -0.274 OA
ATOM      5  N   UNL     1       3.231  11.959  -0.514  0.00  0.00    -0.285 N 
ATOM      6  H   UNL     1       2.276  12.123  -0.553  0.00  0.00    +0.155 HD
BRANCH   5   7
ATOM      7  C   UNL     1       4.132  13.023  -0.665  0.00  0.00    +0.034 A 
ATOM      8  C   UNL     1       3.811  14.280  -0.170  0.00  0.00    +0.025 A 
ATOM      9  C   UNL     1       4.700  15.326  -0.314  0.00  0.00    +0.025 A 
ATOM     10  C   UNL     1       5.911  15.124  -0.964  0.00  0.00    +0.029 A 
ATOM     11  C   UNL     1       6.229  13.868  -1.464  0.00  0.00    +0.025 A 
ATOM     12  C   UNL     1       5.342  12.820  -1.315  0.00  0.00    +0.025 A 
BRANCH  10  13
ATOM     13  N   UNL     1       6.809  16.185  -1.115  0.00  0.00    -0.336 N 
ATOM     14  C   UNL     1       8.036  16.001  -1.895  0.00  0.00    +0.129 C 
ATOM     15  C   UNL     1       6.525  17.480  -0.492  0.00  0.00    +0.129 C 
ENDBRANCH  10  13
ENDBRANCH   5   7
ENDBRANCH   2   3
BRANCH   2  16
ATOM     16  S   UNL     1       3.532   8.001  -0.402  0.00  0.00    -0.072 S 
BRANCH  16  17
ATOM     17  C   UNL     1       2.173   6.906  -0.161  0.00  0.00    +0.209 A 
ATOM     18  N   UNL     1       0.951   7.244   0.182  0.00  0.00    -0.121 NA
ATOM     19  N   UNL     1       0.210   6.198   0.271  0.00  0.00    -0.126 NA
ATOM     20  C   UNL     1       0.915   5.124  -0.010  0.00  0.00    +0.188 A 
ATOM     21  N   UNL     1       2.196   5.545  -0.290  0.00  0.00    -0.223 N 
BRANCH  20  22
ATOM     22  C   UNL     1       0.429   3.735  -0.018  0.00  0.00    +0.058 A 
ATOM     23  C   UNL     1      -0.863   3.271  -0.019  0.00  0.00    +0.019 A 
ATOM     24  C   UNL     1      -1.076   1.911  -0.032  0.00  0.00    +0.008 A 
ATOM     25  C   UNL     1      -0.007   1.073  -0.033  0.00  0.00    +0.046 A 
ATOM     26  S   UNL     1       1.365   2.215  -0.028  0.00  0.00    -0.093 S 
ENDBRANCH  20  22
BRANCH  21  27
ATOM     27  N   UNL     1       3.266   4.765  -0.628  0.00  0.00    -0.295 N 
ATOM     28  H   UNL     1       3.322   4.643  -1.628  0.00  0.00    +0.163 HD
ATOM     29  H   UNL     1       4.124   5.150  -0.262  0.00  0.00    +0.163 HD
ENDBRANCH  21  27
ENDBRANCH  16  17
ENDBRANCH   2  16
TORSDOF 7
