REMARK  Name = ZINC13133020
REMARK  14 active torsions:
REMARK  status: ('A' for Active; 'I' for Inactive)
REMARK    1  A    between atoms: C_1  and  C_2
REMARK    2  A    between atoms: C_7  and  O_8
REMARK    3  A    between atoms: O_8  and  C_9
REMARK    4  A    between atoms: C_9  and  C_10
REMARK    5  A    between atoms: N_12  and  N_13
REMARK    6  A    between atoms: C_14  and  C_15
REMARK    7  A    between atoms: C_15  and  C_17
REMARK    8  A    between atoms: C_15  and  O_27
REMARK    9  A    between atoms: C_17  and  C_19
REMARK   10  A    between atoms: C_17  and  O_26
REMARK   11  A    between atoms: C_19  and  C_21
REMARK   12  A    between atoms: C_19  and  O_25
REMARK   13  A    between atoms: C_21  and  C_23
REMARK   14  A    between atoms: C_21  and  O_24
REMARK                            x       y       z     vdW  Elec       q    Type
REMARK                         _______ _______ _______ _____ _____    ______ ____
ROOT
ATOM      1  N   UNL     1       4.709   2.247   3.350  0.00  0.00    -0.190 NA
ATOM      2  C   UNL     1       4.251   1.346   2.564  0.00  0.00    +0.137 C 
ENDROOT
BRANCH   1   5
ATOM      3  C   UNL     1       5.834   2.827   5.366  0.00  0.00    +0.270 C 
ATOM      4  O   UNL     1       5.712   4.000   5.081  0.00  0.00    -0.270 OA
ATOM      5  N   UNL     1       5.352   1.879   4.539  0.00  0.00    -0.204 N 
ATOM      6  H   UNL     1       5.450   0.941   4.767  0.00  0.00    +0.177 HD
BRANCH   3   7
ATOM      7  C   UNL     1       6.526   2.431   6.645  0.00  0.00    +0.326 C 
BRANCH   7   8
ATOM      8  O   UNL     1       6.944   3.605   7.344  0.00  0.00    -0.482 OA
BRANCH   8  15
ATOM      9  C   UNL     1       7.790   5.912   8.735  0.00  0.00    +0.047 C 
ATOM     10  C   UNL     1       8.027   4.518   9.255  0.00  0.00    -0.007 A 
ATOM     11  C   UNL     1       8.678   4.330  10.459  0.00  0.00    +0.027 A 
ATOM     12  C   UNL     1       8.902   3.050  10.934  0.00  0.00    +0.041 A 
ATOM     13  C   UNL     1       8.469   1.955  10.206  0.00  0.00    +0.023 A 
ATOM     14  C   UNL     1       7.814   2.139   9.004  0.00  0.00    +0.047 A 
ATOM     15  C   UNL     1       7.589   3.422   8.527  0.00  0.00    +0.124 A 
ATOM     16 CL   UNL     1       9.726   2.817  12.444  0.00  0.00    -0.084 Cl
ENDBRANCH   8  15
ENDBRANCH   7   8
ENDBRANCH   3   7
ENDBRANCH   1   5
BRANCH   2  17
ATOM     17  C   UNL     1       3.560   1.743   1.285  0.00  0.00    +0.188 C 
BRANCH  17  18
ATOM     18  O   UNL     1       3.541   3.167   1.175  0.00  0.00    -0.384 OA
ATOM     19  H   UNL     1       3.079   3.611   1.899  0.00  0.00    +0.210 HD
ENDBRANCH  17  18
BRANCH  17  20
ATOM     20  C   UNL     1       2.125   1.213   1.296  0.00  0.00    +0.179 C 
BRANCH  20  21
ATOM     21  O   UNL     1       2.143  -0.212   1.405  0.00  0.00    -0.386 OA
ATOM     22  H   UNL     1       2.606  -0.656   0.681  0.00  0.00    +0.210 HD
ENDBRANCH  20  21
BRANCH  20  23
ATOM     23  C   UNL     1       1.423   1.615  -0.003  0.00  0.00    +0.174 C 
BRANCH  23  24
ATOM     24  C   UNL     1      -0.013   1.086   0.008  0.00  0.00    +0.142 C 
ATOM     25  C   UNL     1      -0.753   1.593  -1.232  0.00  0.00    +0.040 C 
BRANCH  24  26
ATOM     26  O   UNL     1      -0.682   1.547   1.184  0.00  0.00    -0.389 OA
ATOM     27  H   UNL     1      -1.599   1.248   1.257  0.00  0.00    +0.210 HD
ENDBRANCH  24  26
ENDBRANCH  23  24
BRANCH  23  28
ATOM     28  O   UNL     1       1.404   3.040  -0.112  0.00  0.00    -0.387 OA
ATOM     29  H   UNL     1       0.941   3.484   0.611  0.00  0.00    +0.210 HD
ENDBRANCH  23  28
ENDBRANCH  20  23
ENDBRANCH  17  20
ENDBRANCH   2  17
TORSDOF 12
