REMARK  Name = ZINC15812536
REMARK  5 active torsions:
REMARK  status: ('A' for Active; 'I' for Inactive)
REMARK    1  A    between atoms: C_1  and  C_2
REMARK    2  A    between atoms: C_7  and  C_8
REMARK    3  A    between atoms: N_10  and  N_11
REMARK    4  A    between atoms: C_12  and  C_14
REMARK    5  A    between atoms: C_14  and  N_15
REMARK                            x       y       z     vdW  Elec       q    Type
REMARK                         _______ _______ _______ _____ _____    ______ ____
ROOT
ATOM      1  N   UNL     1      -3.449  -0.919  -1.657  0.00  0.00    -0.233 N 
ATOM      2  C   UNL     1      -2.430  -0.073  -1.409  0.00  0.00    +0.249 C 
ATOM      3  O   UNL     1      -1.737   0.326  -2.321  0.00  0.00    -0.272 OA
ATOM      4  H   UNL     1      -4.003  -1.239  -0.928  0.00  0.00    +0.173 HD
ENDROOT
BRANCH   1   7
ATOM      5  C   UNL     1      -4.727  -2.184  -3.217  0.00  0.00    +0.260 C 
ATOM      6  O   UNL     1      -5.422  -2.584  -2.304  0.00  0.00    -0.269 OA
ATOM      7  N   UNL     1      -3.708  -1.338  -2.969  0.00  0.00    -0.230 N 
ATOM      8  H   UNL     1      -3.154  -1.019  -3.698  0.00  0.00    +0.173 HD
BRANCH   5  15
ATOM      9  C   UNL     1      -6.747  -4.198  -3.704  0.00  0.00    +0.044 C 
ATOM     10  C   UNL     1      -5.972  -3.597  -4.849  0.00  0.00    -0.038 A 
ATOM     11  C   UNL     1      -6.222  -4.005  -6.143  0.00  0.00    +0.004 A 
ATOM     12  C   UNL     1      -5.512  -3.453  -7.194  0.00  0.00    +0.000 A 
ATOM     13  C   UNL     1      -4.548  -2.490  -6.957  0.00  0.00    +0.001 A 
ATOM     14  C   UNL     1      -4.292  -2.070  -5.668  0.00  0.00    +0.013 A 
ATOM     15  C   UNL     1      -5.001  -2.626  -4.602  0.00  0.00    +0.041 A 
ENDBRANCH   5  15
ENDBRANCH   1   7
BRANCH   2  16
ATOM     16  C   UNL     1      -2.151   0.377   0.002  0.00  0.00    +0.223 C 
BRANCH  16  17
ATOM     17  N   UNL     1      -1.003   1.286   0.007  0.00  0.00    -0.287 N 
ATOM     18  C   UNL     1       0.249   0.787   0.159  0.00  0.00    +0.203 A 
ATOM     19  N   UNL     1       1.300   1.559   0.169  0.00  0.00    -0.233 NA
ATOM     20  C   UNL     1       1.185   2.890   0.028  0.00  0.00    +0.124 A 
ATOM     21  C   UNL     1       2.143   4.005  -0.003  0.00  0.00    +0.046 A 
ATOM     22  C   UNL     1       3.529   4.097   0.102  0.00  0.00    +0.014 A 
ATOM     23  C   UNL     1       4.140   5.330   0.031  0.00  0.00    +0.001 A 
ATOM     24  C   UNL     1       3.378   6.476  -0.145  0.00  0.00    +0.004 A 
ATOM     25  C   UNL     1       2.007   6.400  -0.250  0.00  0.00    +0.047 A 
ATOM     26  C   UNL     1       1.371   5.165  -0.181  0.00  0.00    +0.138 A 
ATOM     27  O   UNL     1       0.073   4.802  -0.252  0.00  0.00    -0.448 OA
ATOM     28  C   UNL     1      -0.071   3.466  -0.131  0.00  0.00    +0.219 A 
ATOM     29  C   UNL     1      -1.198   2.614  -0.140  0.00  0.00    +0.297 A 
ATOM     30  O   UNL     1      -2.322   3.067  -0.281  0.00  0.00    -0.264 OA
ENDBRANCH  16  17
ENDBRANCH   2  16
TORSDOF 4
