REMARK  Name = ZINC14971479
REMARK  8 active torsions:
REMARK  status: ('A' for Active; 'I' for Inactive)
REMARK    1  A    between atoms: C_1  and  C_2
REMARK    2  A    between atoms: C_3  and  C_12
REMARK    3  A    between atoms: C_5  and  C_7
REMARK    4  A    between atoms: C_12  and  N_13
REMARK    5  A    between atoms: C_14  and  C_16
REMARK    6  A    between atoms: C_16  and  C_17
REMARK    7  A    between atoms: C_24  and  C_25
REMARK    8  A    between atoms: C_24  and  N_54
REMARK                            x       y       z     vdW  Elec       q    Type
REMARK                         _______ _______ _______ _____ _____    ______ ____
ROOT
ATOM      1  C   UNL     1       0.310  -4.809  -1.019  0.00  0.00    +0.089 C 
ENDROOT
BRANCH   1   2
ATOM      2  C   UNL     1       1.368  -3.896  -1.642  0.00  0.00    +0.028 C 
ATOM      3  C   UNL     1       0.851  -2.486  -1.680  0.00  0.00    +0.200 C 
ATOM      4  O   UNL     1      -0.299  -2.298  -2.018  0.00  0.00    -0.278 OA
ATOM      5  N   UNL     1       1.605  -1.430  -1.359  0.00  0.00    -0.318 N 
ATOM      6  C   UNL     1       2.988  -1.550  -0.906  0.00  0.00    +0.085 C 
ATOM      7  C   UNL     1       3.546  -2.923  -1.284  0.00  0.00    -0.058 C 
ATOM      8  H   UNL     1       1.216  -0.544  -1.429  0.00  0.00    +0.149 HD
ATOM      9  N   UNL     1       2.591  -3.949  -0.819  0.00  0.00    +0.391 N 
ATOM     10  H   UNL     1       2.346  -3.760   0.160  0.00  0.00    -0.080 HD
BRANCH   9  11
ATOM     11  C   UNL     1       3.206  -5.293  -0.910  0.00  0.00    -0.042 C 
BRANCH  11  12
ATOM     12  C   UNL     1       4.511  -5.291  -0.158  0.00  0.00    -0.064 A 
ATOM     13  C   UNL     1       4.534  -5.605   1.188  0.00  0.00    +0.002 A 
ATOM     14  C   UNL     1       5.731  -5.604   1.879  0.00  0.00    +0.000 A 
ATOM     15  C   UNL     1       6.907  -5.289   1.223  0.00  0.00    +0.000 A 
ATOM     16  C   UNL     1       6.884  -4.974  -0.123  0.00  0.00    +0.000 A 
ATOM     17  C   UNL     1       5.687  -4.976  -0.813  0.00  0.00    +0.002 A 
ENDBRANCH  11  12
ENDBRANCH   9  11
ENDBRANCH   1   2
BRANCH   1  19
ATOM     18  N   UNL     1      -0.911  -4.985   1.125  0.00  0.00    -0.310 N 
ATOM     19  C   UNL     1       0.065  -4.393   0.408  0.00  0.00    +0.212 C 
ATOM     20  O   UNL     1       0.745  -3.525   0.912  0.00  0.00    -0.276 OA
ATOM     21  H   UNL     1      -1.455  -5.679   0.722  0.00  0.00    +0.149 HD
BRANCH  18  22
ATOM     22  C   UNL     1      -1.150  -4.580   2.512  0.00  0.00    +0.163 C 
BRANCH  22  25
ATOM     23  C   UNL     1      -4.178  -3.818   2.430  0.00  0.00    +0.088 C 
ATOM     24  C   UNL     1      -3.589  -5.059   3.047  0.00  0.00    +0.127 A 
ATOM     25  C   UNL     1      -2.286  -5.389   3.083  0.00  0.00    +0.100 A 
ATOM     26  N   UNL     1      -2.175  -6.564   3.724  0.00  0.00    -0.212 NA
ATOM     27  C   UNL     1      -3.377  -6.965   4.076  0.00  0.00    +0.234 A 
ATOM     28  O   UNL     1      -4.271  -6.047   3.663  0.00  0.00    -0.440 OA
BRANCH  27  29
ATOM     29  C   UNL     1      -3.692  -8.206   4.799  0.00  0.00    +0.074 A 
ATOM     30  C   UNL     1      -4.921  -8.689   5.206  0.00  0.00    +0.021 A 
ATOM     31  C   UNL     1      -4.964  -9.892   5.872  0.00  0.00    +0.008 A 
ATOM     32  C   UNL     1      -3.804 -10.557   6.117  0.00  0.00    +0.046 A 
ATOM     33  S   UNL     1      -2.585  -9.477   5.386  0.00  0.00    -0.092 S 
ENDBRANCH  27  29
ENDBRANCH  22  25
ENDBRANCH  18  22
ENDBRANCH   1  19
TORSDOF 7
