REMARK  Name = ZINC22457093
REMARK  4 active torsions:
REMARK  status: ('A' for Active; 'I' for Inactive)
REMARK    1  A    between atoms: C_1  and  O_2
REMARK    2  A    between atoms: O_2  and  C_3
REMARK    3  A    between atoms: C_7  and  N_9
REMARK    4  A    between atoms: C_26  and  C_31
REMARK                            x       y       z     vdW  Elec       q    Type
REMARK                         _______ _______ _______ _____ _____    ______ ____
ROOT
ATOM      1  N   UNL     1       1.558   4.781   0.022  0.00  0.00    -0.297 N 
ATOM      2  C   UNL     1       0.725   3.664   0.025  0.00  0.00    +0.156 A 
ATOM      3  C   UNL     1       1.140   2.275  -0.002  0.00  0.00    +0.080 A 
ATOM      4  C   UNL     1      -0.019   1.503   0.015  0.00  0.00    +0.061 A 
ATOM      5  N   UNL     1      -1.056   2.343   0.052  0.00  0.00    -0.201 N 
ATOM      6  N   UNL     1      -0.590   3.665   0.054  0.00  0.00    -0.148 NA
ATOM      7  C   UNL     1      -2.392   1.965   0.081  0.00  0.00    +0.230 A 
ATOM      8  N   UNL     1      -3.450   2.827   0.118  0.00  0.00    -0.322 N 
ATOM      9  H   UNL     1      -3.274   3.913   0.127  0.00  0.00    +0.169 HD
ATOM     10  C   UNL     1      -4.602   2.062   0.137  0.00  0.00    +0.068 A 
ATOM     11  C   UNL     1      -5.956   2.362   0.173  0.00  0.00    +0.028 A 
ATOM     12  C   UNL     1      -6.885   1.343   0.183  0.00  0.00    +0.002 A 
ATOM     13  C   UNL     1      -6.474   0.018   0.156  0.00  0.00    +0.002 A 
ATOM     14  C   UNL     1      -5.135  -0.299   0.119  0.00  0.00    +0.030 A 
ATOM     15  C   UNL     1      -4.181   0.722   0.109  0.00  0.00    +0.091 A 
ATOM     16  N   UNL     1      -2.824   0.731   0.071  0.00  0.00    -0.211 NA
ATOM     17  C   UNL     1       0.001  -0.004   0.001  0.00  0.00    +0.068 C 
ATOM     18  C   UNL     1       1.373  -0.494   0.470  0.00  0.00    +0.068 C 
ATOM     19  C   UNL     1       2.492   0.172  -0.336  0.00  0.00    +0.091 C 
ATOM     20  C   UNL     1       2.474   1.666  -0.043  0.00  0.00    +0.169 C 
ATOM     21  O   UNL     1       3.488   2.305   0.145  0.00  0.00    -0.292 OA
ATOM     22  H   UNL     1       2.649   4.654   0.090  0.00  0.00    +0.154 HD
ENDROOT
BRANCH   1  27
ATOM     23  C   UNL     1      -0.775   7.519  -0.747  0.00  0.00    +0.122 A 
ATOM     24  C   UNL     1      -0.076   8.606  -0.240  0.00  0.00    +0.046 A 
ATOM     25  C   UNL     1       1.159   8.421   0.350  0.00  0.00    +0.005 A 
ATOM     26  C   UNL     1       1.703   7.154   0.439  0.00  0.00    +0.023 A 
ATOM     27  C   UNL     1       1.008   6.062  -0.067  0.00  0.00    +0.036 A 
ATOM     28  C   UNL     1      -0.231   6.247  -0.665  0.00  0.00    +0.069 A 
BRANCH  23  30
ATOM     29  C   UNL     1      -2.487   9.041  -1.382  0.00  0.00    +0.277 C 
ATOM     30  O   UNL     1      -1.990   7.702  -1.327  0.00  0.00    -0.495 OA
ENDBRANCH  23  30
ENDBRANCH   1  27
BRANCH  18  31
ATOM     31  C   UNL     1       1.455  -1.988   0.291  0.00  0.00    +0.109 A 
ATOM     32  C   UNL     1       1.662  -2.888   1.269  0.00  0.00    +0.045 A 
ATOM     33  C   UNL     1       1.665  -4.163   0.659  0.00  0.00    +0.041 A 
ATOM     34  C   UNL     1       1.459  -3.966  -0.656  0.00  0.00    +0.195 A 
ATOM     35  O   UNL     1       1.326  -2.648  -0.872  0.00  0.00    -0.468 OA
ENDBRANCH  18  31
TORSDOF 3
