REMARK  Name = ZINC51318431
REMARK  9 active torsions:
REMARK  status: ('A' for Active; 'I' for Inactive)
REMARK    1  A    between atoms: C_1  and  C_2
REMARK    2  A    between atoms: C_5  and  C_8
REMARK    3  A    between atoms: C_10  and  C_26
REMARK    4  A    between atoms: C_11  and  C_16
REMARK    5  A    between atoms: C_16  and  N_17
REMARK    6  A    between atoms: N_20  and  C_23
REMARK    7  A    between atoms: C_23  and  C_24
REMARK    8  A    between atoms: C_26  and  O_28
REMARK    9  A    between atoms: O_28  and  C_29
REMARK                            x       y       z     vdW  Elec       q    Type
REMARK                         _______ _______ _______ _____ _____    ______ ____
ROOT
ATOM      1  C   UNL     1      -0.025  -4.456  -0.197  0.00  0.00    +0.144 C 
ATOM      2  C   UNL     1      -1.408  -5.006   0.087  0.00  0.00    +0.079 C 
ATOM      3  C   UNL     1      -1.611  -5.614   1.276  0.00  0.00    +0.038 C 
ATOM      4  N   UNL     1      -0.603  -5.728   2.190  0.00  0.00    -0.271 N 
ATOM      5  C   UNL     1       0.636  -5.261   1.992  0.00  0.00    +0.304 C 
ATOM      6  O   UNL     1       1.468  -5.411   2.865  0.00  0.00    -0.252 OA
ATOM      7  N   UNL     1       0.991  -4.631   0.855  0.00  0.00    -0.288 N 
ATOM      8  H   UNL     1      -0.795  -6.172   3.031  0.00  0.00    +0.156 HD
ATOM      9  H   UNL     1       1.895  -4.301   0.732  0.00  0.00    +0.151 HD
ENDROOT
BRANCH   1  14
ATOM     10  C   UNL     1      -0.543   1.201  -1.254  0.00  0.00    +0.044 C 
ATOM     11  C   UNL     1      -0.407  -0.274  -0.979  0.00  0.00    -0.050 A 
ATOM     12  C   UNL     1      -0.360  -1.172  -2.029  0.00  0.00    +0.004 A 
ATOM     13  C   UNL     1      -0.236  -2.525  -1.776  0.00  0.00    +0.006 A 
ATOM     14  C   UNL     1      -0.159  -2.981  -0.473  0.00  0.00    -0.022 A 
ATOM     15  C   UNL     1      -0.206  -2.083   0.577  0.00  0.00    +0.006 A 
ATOM     16  C   UNL     1      -0.326  -0.729   0.324  0.00  0.00    +0.004 A 
ENDBRANCH   1  14
BRANCH   2  17
ATOM     17  C   UNL     1      -2.451  -4.887  -0.861  0.00  0.00    +0.339 C 
ATOM     18  O   UNL     1      -3.519  -5.436  -0.663  0.00  0.00    -0.245 OA
BRANCH  17  19
ATOM     19  O   UNL     1      -2.262  -4.164  -1.984  0.00  0.00    -0.465 OA
ATOM     20  C   UNL     1      -3.359  -4.086  -2.898  0.00  0.00    +0.280 C 
ENDBRANCH  17  19
ENDBRANCH   2  17
BRANCH   3  21
ATOM     21  C   UNL     1      -2.972  -6.174   1.599  0.00  0.00    +0.135 C 
BRANCH  21  22
ATOM     22  N   UNL     1      -3.089  -7.528   1.041  0.00  0.00    -0.300 NA
ATOM     23  C   UNL     1      -2.265  -8.482   1.796  0.00  0.00    +0.066 C 
ATOM     24  C   UNL     1      -2.368  -9.865   1.148  0.00  0.00    -0.063 C 
ATOM     25  N   UNL     1      -3.771 -10.300   1.143  0.00  0.00    +0.384 N 
ATOM     26  C   UNL     1      -4.577  -9.351   0.365  0.00  0.00    -0.063 C 
ATOM     27  C   UNL     1      -4.492  -7.964   1.006  0.00  0.00    +0.066 C 
ATOM     28  H   UNL     1      -4.115 -10.336   2.091  0.00  0.00    -0.081 HD
BRANCH  25  29
ATOM     29  C   UNL     1      -3.866 -11.635   0.538  0.00  0.00    -0.052 C 
BRANCH  29  30
ATOM     30  C   UNL     1      -5.285 -12.134   0.643  0.00  0.00    -0.053 C 
ATOM     31  C   UNL     1      -5.927 -12.515  -0.433  0.00  0.00    +0.002 C 
ENDBRANCH  29  30
ENDBRANCH  25  29
ENDBRANCH  21  22
ENDBRANCH   3  21
TORSDOF 7
