REMARK  Name = ZINC60461964
REMARK  4 active torsions:
REMARK  status: ('A' for Active; 'I' for Inactive)
REMARK    1  A    between atoms: C_1  and  N_2
REMARK    2  A    between atoms: N_2  and  C_3
REMARK    3  A    between atoms: N_2  and  C_13
REMARK    4  A    between atoms: C_3  and  N_4
REMARK                            x       y       z     vdW  Elec       q    Type
REMARK                         _______ _______ _______ _____ _____    ______ ____
ROOT
ATOM      1  C   UNL     1      -1.376  -0.512   0.012  0.00  0.00    +0.073 C 
ENDROOT
BRANCH   1   2
ATOM      2  N   UNL     1      -2.024  -0.141   1.272  0.00  0.00    -0.245 N 
ATOM      3  C   UNL     1      -2.204  -1.081   2.220  0.00  0.00    +0.285 A 
ATOM      4  O   UNL     1      -1.831  -2.227   2.030  0.00  0.00    -0.265 OA
ATOM      5  C   UNL     1      -2.828  -0.726   3.436  0.00  0.00    +0.126 A 
ATOM      6  C   UNL     1      -3.225   0.574   3.593  0.00  0.00    +0.084 A 
ATOM      7  C   UNL     1      -2.989   1.475   2.540  0.00  0.00    +0.154 A 
ATOM      8  N   UNL     1      -2.402   1.074   1.447  0.00  0.00    -0.177 NA
ATOM      9 CL   UNL     1      -4.000   1.098   5.056  0.00  0.00    -0.080 Cl
ATOM     10 CL   UNL     1      -3.083  -1.900   4.689  0.00  0.00    -0.076 Cl
ENDBRANCH   1   2
BRANCH   1  12
ATOM     11  C   UNL     1      -0.018   1.465   0.010  0.00  0.00    -0.093 C 
ATOM     12  N   UNL     1       0.002  -0.004   0.002  0.00  0.00    +0.393 N 
ATOM     13  H   UNL     1       0.490  -0.338   0.820  0.00  0.00    -0.079 HD
BRANCH  12  14
ATOM     14  C   UNL     1       0.690  -0.478  -1.207  0.00  0.00    -0.066 C 
ATOM     15  C   UNL     1       0.710  -2.008  -1.215  0.00  0.00    -0.015 C 
ATOM     16  C   UNL     1       1.427  -2.501  -2.474  0.00  0.00    -0.002 C 
ATOM     17  C   UNL     1       2.862  -1.972  -2.485  0.00  0.00    -0.000 C 
ATOM     18  C   UNL     1       2.841  -0.442  -2.476  0.00  0.00    -0.002 C 
ATOM     19  C   UNL     1       2.125   0.052  -1.218  0.00  0.00    -0.015 C 
ENDBRANCH  12  14
ENDBRANCH   1  12
TORSDOF 3
