REMARK  Name = ZINC41628334
REMARK  7 active torsions:
REMARK  status: ('A' for Active; 'I' for Inactive)
REMARK    1  A    between atoms: C_1  and  C_2
REMARK    2  A    between atoms: C_2  and  C_3
REMARK    3  A    between atoms: C_3  and  C_5
REMARK    4  A    between atoms: C_3  and  S_15
REMARK    5  A    between atoms: N_7  and  C_8
REMARK    6  A    between atoms: C_11  and  O_14
REMARK    7  A    between atoms: S_15  and  C_16
REMARK                            x       y       z     vdW  Elec       q    Type
REMARK                         _______ _______ _______ _____ _____    ______ ____
ROOT
ATOM      1  C   UNL     1      -1.376  -0.305   0.189  0.00  0.00    +0.140 C 
ENDROOT
BRANCH   1   2
ATOM      2  C   UNL     1      -1.304  -1.790   0.433  0.00  0.00    +0.231 C 
ATOM      3  O   UNL     1      -1.499  -2.565  -0.480  0.00  0.00    -0.274 OA
ATOM      4  N   UNL     1      -1.021  -2.258   1.665  0.00  0.00    -0.285 N 
ATOM      5  H   UNL     1      -0.796  -1.640   2.378  0.00  0.00    +0.155 HD
BRANCH   4   6
ATOM      6  C   UNL     1      -1.053  -3.636   1.915  0.00  0.00    +0.034 A 
ATOM      7  C   UNL     1      -0.644  -4.529   0.934  0.00  0.00    +0.027 A 
ATOM      8  C   UNL     1      -0.675  -5.888   1.182  0.00  0.00    +0.047 A 
ATOM      9  C   UNL     1      -1.115  -6.359   2.410  0.00  0.00    +0.117 A 
ATOM     10  C   UNL     1      -1.524  -5.467   3.390  0.00  0.00    +0.047 A 
ATOM     11  C   UNL     1      -1.488  -4.108   3.146  0.00  0.00    +0.027 A 
BRANCH   9  12
ATOM     12  O   UNL     1      -1.146  -7.697   2.653  0.00  0.00    -0.507 OA
ATOM     13  H   UNL     1      -0.328  -8.046   3.034  0.00  0.00    +0.292 HD
ENDBRANCH   9  12
ENDBRANCH   4   6
ENDBRANCH   1   2
BRANCH   1  15
ATOM     14  C   UNL     1      -0.024   1.761  -0.197  0.00  0.00    +0.005 C 
ATOM     15  C   UNL     1       0.029   0.236  -0.087  0.00  0.00    +0.020 C 
ENDBRANCH   1  15
BRANCH   1  16
ATOM     16  S   UNL     1      -2.442   0.022  -1.242  0.00  0.00    -0.075 S 
BRANCH  16  17
ATOM     17  C   UNL     1      -4.056  -0.398  -0.675  0.00  0.00    +0.170 A 
ATOM     18  N   UNL     1      -5.101  -0.373  -1.549  0.00  0.00    -0.302 N 
ATOM     19  H   UNL     1      -4.957  -0.132  -2.477  0.00  0.00    +0.171 HD
ATOM     20  C   UNL     1      -6.338  -0.687  -1.112  0.00  0.00    +0.255 A 
ATOM     21  O   UNL     1      -7.287  -0.665  -1.878  0.00  0.00    -0.267 OA
ATOM     22  C   UNL     1      -6.519  -1.041   0.241  0.00  0.00    +0.038 A 
ATOM     23  C   UNL     1      -5.440  -1.057   1.066  0.00  0.00    +0.052 A 
ATOM     24  N   UNL     1      -4.234  -0.736   0.584  0.00  0.00    -0.228 NA
ATOM     25  C   UNL     1      -5.535  -1.441   2.520  0.00  0.00    +0.056 C 
ATOM     26  C   UNL     1      -6.981  -1.358   3.005  0.00  0.00    +0.006 C 
ATOM     27  C   UNL     1      -7.864  -2.143   2.028  0.00  0.00    +0.005 C 
ATOM     28  C   UNL     1      -7.910  -1.381   0.704  0.00  0.00    +0.042 C 
ENDBRANCH  16  17
ENDBRANCH   1  16
TORSDOF 6
