REMARK  Name = ZINC08772978
REMARK  6 active torsions:
REMARK  status: ('A' for Active; 'I' for Inactive)
REMARK    1  A    between atoms: C_1  and  C_2
REMARK    2  A    between atoms: C_3  and  C_28
REMARK    3  A    between atoms: C_9  and  C_11
REMARK    4  A    between atoms: C_11  and  N_12
REMARK    5  A    between atoms: N_12  and  C_13
REMARK    6  A    between atoms: N_20  and  C_21
REMARK                            x       y       z     vdW  Elec       q    Type
REMARK                         _______ _______ _______ _____ _____    ______ ____
ROOT
ATOM      1  N   UNL     1      -0.016  -4.810   4.055  0.00  0.00    -0.275 N 
ATOM      2  C   UNL     1      -1.237  -5.334   3.827  0.00  0.00    +0.303 C 
ATOM      3  O   UNL     1      -2.233  -4.695   4.104  0.00  0.00    -0.253 OA
ATOM      4  N   UNL     1      -1.353  -6.566   3.293  0.00  0.00    -0.296 N 
ATOM      5  H   UNL     1      -0.560  -7.105   3.140  0.00  0.00    +0.151 HD
ENDROOT
BRANCH   4   6
ATOM      6  C   UNL     1      -2.675  -7.091   2.943  0.00  0.00    +0.074 C 
ATOM      7  C   UNL     1      -3.314  -7.727   4.179  0.00  0.00    +0.022 C 
ATOM      8  C   UNL     1      -4.695  -8.275   3.813  0.00  0.00    +0.002 C 
ATOM      9  C   UNL     1      -4.550  -9.330   2.714  0.00  0.00    +0.000 C 
ATOM     10  C   UNL     1      -3.910  -8.694   1.478  0.00  0.00    +0.002 C 
ATOM     11  C   UNL     1      -2.530  -8.146   1.844  0.00  0.00    +0.022 C 
ENDBRANCH   4   6
BRANCH   1  12
ATOM     12  C   UNL     1       1.183  -5.620   3.826  0.00  0.00    +0.078 C 
ATOM     13  C   UNL     1       1.947  -5.819   5.151  0.00  0.00    +0.022 C 
ATOM     14  C   UNL     1       3.440  -5.764   4.741  0.00  0.00    +0.002 C 
ATOM     15  C   UNL     1       3.454  -4.664   3.651  0.00  0.00    +0.002 C 
ATOM     16  C   UNL     1       2.141  -4.886   2.872  0.00  0.00    +0.022 C 
ENDBRANCH   1  12
BRANCH   1  17
ATOM     17  C   UNL     1       0.112  -3.431   4.531  0.00  0.00    +0.183 C 
BRANCH  17  26
ATOM     18  C   UNL     1       0.126   1.455  -0.060  0.00  0.00    +0.045 C 
ATOM     19  C   UNL     1      -0.077  -0.038  -0.037  0.00  0.00    -0.026 A 
ATOM     20  C   UNL     1      -0.327  -0.707  -1.175  0.00  0.00    -0.008 A 
ATOM     21  S   UNL     1      -0.484  -2.398  -0.633  0.00  0.00    -0.073 S 
ATOM     22  C   UNL     1      -0.209  -2.157   1.103  0.00  0.00    +0.116 A 
ATOM     23  C   UNL     1       0.002  -0.771   1.212  0.00  0.00    +0.075 A 
ATOM     24  C   UNL     1       0.258  -0.286   2.536  0.00  0.00    +0.260 A 
ATOM     25  N   UNL     1       0.284  -1.162   3.558  0.00  0.00    -0.309 N 
ATOM     26  C   UNL     1       0.073  -2.488   3.356  0.00  0.00    +0.129 A 
ATOM     27  N   UNL     1      -0.172  -2.960   2.163  0.00  0.00    -0.225 NA
ATOM     28  O   UNL     1       0.450   0.902   2.734  0.00  0.00    -0.267 OA
ATOM     29  C   UNL     1      -0.446  -0.159  -2.573  0.00  0.00    +0.052 C 
ATOM     30  H   UNL     1       0.458  -0.840   4.456  0.00  0.00    +0.170 HD
ENDBRANCH  17  26
ENDBRANCH   1  17
TORSDOF 4
