REMARK  Name = ZINC05314953
REMARK  8 active torsions:
REMARK  status: ('A' for Active; 'I' for Inactive)
REMARK    1  A    between atoms: C_1  and  C_2
REMARK    2  A    between atoms: C_5  and  C_8
REMARK    3  A    between atoms: C_8  and  C_28
REMARK    4  A    between atoms: N_11  and  C_15
REMARK    5  A    between atoms: C_15  and  C_16
REMARK    6  A    between atoms: N_18  and  C_19
REMARK    7  A    between atoms: C_22  and  C_25
REMARK    8  A    between atoms: C_25  and  C_26
REMARK                            x       y       z     vdW  Elec       q    Type
REMARK                         _______ _______ _______ _____ _____    ______ ____
ROOT
ATOM      1  C   UNL     1      -0.014   1.500   0.010  0.00  0.00    +0.135 C 
ATOM      2  C   UNL     1      -0.617   2.027  -1.277  0.00  0.00    +0.251 C 
ATOM      3  O   UNL     1      -1.738   1.831  -1.695  0.00  0.00    -0.272 OA
ATOM      4  N   UNL     1       0.352   2.759  -1.860  0.00  0.00    -0.215 N 
ATOM      5  C   UNL     1       1.472   2.767  -1.129  0.00  0.00    +0.310 C 
ATOM      6  O   UNL     1       2.485   3.359  -1.449  0.00  0.00    -0.252 OA
ATOM      7  N   UNL     1       1.353   2.047   0.001  0.00  0.00    -0.281 N 
ATOM      8  C   UNL     1      -0.792   2.014   1.223  0.00  0.00    +0.047 C 
ATOM      9  H   UNL     1       2.035   1.913   0.678  0.00  0.00    +0.152 HD
ENDROOT
BRANCH   1  14
ATOM     10  C   UNL     1       0.106  -4.277  -0.020  0.00  0.00    +0.044 C 
ATOM     11  C   UNL     1       0.074  -2.771  -0.012  0.00  0.00    -0.050 A 
ATOM     12  C   UNL     1       1.087  -2.062   0.607  0.00  0.00    +0.004 A 
ATOM     13  C   UNL     1       1.058  -0.680   0.615  0.00  0.00    +0.006 A 
ATOM     14  C   UNL     1       0.017  -0.007   0.002  0.00  0.00    -0.015 A 
ATOM     15  C   UNL     1      -0.998  -0.716  -0.613  0.00  0.00    +0.006 A 
ATOM     16  C   UNL     1      -0.967  -2.098  -0.624  0.00  0.00    +0.004 A 
ENDBRANCH   1  14
BRANCH   4  17
ATOM     17  C   UNL     1       0.199   3.459  -3.138  0.00  0.00    +0.214 C 
BRANCH  17  18
ATOM     18  C   UNL     1       0.605   2.543  -4.264  0.00  0.00    +0.235 C 
ATOM     19  O   UNL     1       0.984   1.416  -4.023  0.00  0.00    -0.274 OA
ATOM     20  N   UNL     1       0.546   2.975  -5.539  0.00  0.00    -0.284 N 
ATOM     21  H   UNL     1       0.179   3.851  -5.738  0.00  0.00    +0.155 HD
BRANCH  20  22
ATOM     22  C   UNL     1       1.013   2.161  -6.577  0.00  0.00    +0.033 A 
ATOM     23  C   UNL     1       1.630   2.729  -7.684  0.00  0.00    +0.023 A 
ATOM     24  C   UNL     1       2.094   1.921  -8.704  0.00  0.00    +0.006 A 
ATOM     25  C   UNL     1       1.935   0.550  -8.629  0.00  0.00    -0.034 A 
ATOM     26  C   UNL     1       1.317  -0.019  -7.530  0.00  0.00    +0.006 A 
ATOM     27  C   UNL     1       0.855   0.783  -6.504  0.00  0.00    +0.023 A 
BRANCH  25  28
ATOM     28  C   UNL     1       2.438  -0.328  -9.746  0.00  0.00    +0.153 C 
BRANCH  28  29
ATOM     29  C   UNL     1       1.373  -0.507 -10.746  0.00  0.00    +0.067 C 
ATOM     30  N   UNL     1       0.551  -0.645 -11.518  0.00  0.00    -0.196 NA
ENDBRANCH  28  29
ENDBRANCH  25  28
ENDBRANCH  20  22
ENDBRANCH  17  18
ENDBRANCH   4  17
TORSDOF 6
