REMARK  Name = ZINC18256896
REMARK  10 active torsions:
REMARK  status: ('A' for Active; 'I' for Inactive)
REMARK    1  A    between atoms: C_1  and  C_2
REMARK    2  A    between atoms: C_2  and  C_3
REMARK    3  A    between atoms: C_2  and  C_4
REMARK    4  A    between atoms: C_2  and  O_5
REMARK    5  A    between atoms: O_5  and  C_6
REMARK    6  A    between atoms: C_6  and  C_8
REMARK    7  A    between atoms: C_8  and  S_9
REMARK    8  A    between atoms: S_9  and  C_10
REMARK    9  A    between atoms: C_13  and  C_16
REMARK   10  A    between atoms: N_14  and  N_15
REMARK                            x       y       z     vdW  Elec       q    Type
REMARK                         _______ _______ _______ _____ _____    ______ ____
ROOT
ATOM      1  C   UNL     1       5.163  -0.467  -3.952  0.00  0.00    +0.209 A 
ATOM      2  N   UNL     1       4.600  -1.223  -4.867  0.00  0.00    -0.121 NA
ATOM      3  N   UNL     1       5.439  -1.479  -5.806  0.00  0.00    -0.127 NA
ATOM      4  C   UNL     1       6.589  -0.901  -5.549  0.00  0.00    +0.182 A 
ATOM      5  N   UNL     1       6.446  -0.231  -4.356  0.00  0.00    -0.224 N 
ENDROOT
BRANCH   4   6
ATOM      6  C   UNL     1       7.807  -0.957  -6.385  0.00  0.00    +0.021 A 
ATOM      7  C   UNL     1       9.040  -0.574  -5.854  0.00  0.00    +0.013 A 
ATOM      8  C   UNL     1      10.172  -0.628  -6.639  0.00  0.00    +0.021 A 
ATOM      9  C   UNL     1      10.088  -1.060  -7.952  0.00  0.00    +0.041 A 
ATOM     10  C   UNL     1       8.868  -1.440  -8.485  0.00  0.00    +0.021 A 
ATOM     11  C   UNL     1       7.729  -1.397  -7.708  0.00  0.00    +0.013 A 
ATOM     12 CL   UNL     1      11.518  -1.124  -8.935  0.00  0.00    -0.084 Cl
ENDBRANCH   4   6
BRANCH   5  13
ATOM     13  N   UNL     1       7.392   0.513  -3.708  0.00  0.00    -0.295 N 
ATOM     14  H   UNL     1       7.929  -0.058  -3.074  0.00  0.00    +0.163 HD
ATOM     15  H   UNL     1       7.993   0.985  -4.367  0.00  0.00    +0.163 HD
ENDBRANCH   5  13
BRANCH   1  16
ATOM     16  S   UNL     1       4.402   0.138  -2.482  0.00  0.00    -0.073 S 
BRANCH  16  17
ATOM     17  C   UNL     1       2.718  -0.533  -2.552  0.00  0.00    +0.198 C 
BRANCH  17  18
ATOM     18  C   UNL     1       1.948  -0.086  -1.336  0.00  0.00    +0.318 C 
ATOM     19  O   UNL     1       2.481   0.614  -0.508  0.00  0.00    -0.250 OA
BRANCH  18  20
ATOM     20  O   UNL     1       0.671  -0.465  -1.174  0.00  0.00    -0.458 OA
BRANCH  20  22
ATOM     21  C   UNL     1      -0.019   1.526   0.010  0.00  0.00    +0.055 C 
ATOM     22  C   UNL     1       0.002  -0.004   0.002  0.00  0.00    +0.105 C 
ATOM     23  C   UNL     1       0.742  -0.511   1.242  0.00  0.00    +0.055 C 
ATOM     24  C   UNL     1      -1.433  -0.534   0.013  0.00  0.00    +0.055 C 
ENDBRANCH  20  22
ENDBRANCH  18  20
ENDBRANCH  17  18
ENDBRANCH  16  17
ENDBRANCH   1  16
TORSDOF 7
