REMARK  Name = ZINC49705349
REMARK  4 active torsions:
REMARK  status: ('A' for Active; 'I' for Inactive)
REMARK    1  A    between atoms: C_1  and  C_2
REMARK    2  A    between atoms: C_5  and  C_7
REMARK    3  A    between atoms: N_12  and  S_15
REMARK    4  A    between atoms: S_15  and  C_18
REMARK                            x       y       z     vdW  Elec       q    Type
REMARK                         _______ _______ _______ _____ _____    ______ ____
ROOT
ATOM      1  C   UNL     1       0.052  -3.296   1.433  0.00  0.00    +0.303 C 
ATOM      2  O   UNL     1       0.187  -3.222   2.639  0.00  0.00    -0.265 OA
ATOM      3  N   UNL     1      -0.036  -4.502   0.838  0.00  0.00    -0.291 N 
ATOM      4  C   UNL     1      -0.035  -4.615  -0.628  0.00  0.00    +0.125 C 
ATOM      5  C   UNL     1       1.093  -5.566  -1.046  0.00  0.00    +0.128 C 
ATOM      6  N   UNL     1       0.996  -6.792  -0.241  0.00  0.00    -0.178 NA
ATOM      7  C   UNL     1       0.995  -6.679   1.224  0.00  0.00    +0.128 C 
ATOM      8  C   UNL     1      -0.128  -5.728   1.642  0.00  0.00    +0.125 C 
ENDROOT
BRANCH   1  13
ATOM      9  C   UNL     1       0.175   1.494  -0.015  0.00  0.00    +0.111 C 
ATOM     10  C   UNL     1       0.037  -0.006  -0.004  0.00  0.00    +0.215 A 
ATOM     11  N   UNL     1      -0.265  -0.761  -1.029  0.00  0.00    -0.112 NA
ATOM     12  N   UNL     1      -0.297  -1.994  -0.659  0.00  0.00    -0.102 NA
ATOM     13  C   UNL     1      -0.015  -2.067   0.621  0.00  0.00    +0.304 A 
ATOM     14  O   UNL     1       0.206  -0.808   1.055  0.00  0.00    -0.417 OA
ENDBRANCH   1  13
BRANCH   6  15
ATOM     15  S   UNL     1       0.888  -8.274  -0.972  0.00  0.00    +0.029 S 
ATOM     16  O   UNL     1       0.215  -9.096  -0.028  0.00  0.00    -0.158 OA
ATOM     17  O   UNL     1       0.311  -8.010  -2.244  0.00  0.00    -0.158 OA
ATOM     18  C   UNL     1       2.605  -8.823  -1.168  0.00  0.00    +0.215 C 
ENDBRANCH   6  15
TORSDOF 2
