REMARK  Name = ZINC28429829
REMARK  2 active torsions:
REMARK  status: ('A' for Active; 'I' for Inactive)
REMARK    1  A    between atoms: C_1  and  C_2
REMARK    2  A    between atoms: C_10  and  C_12
REMARK                            x       y       z     vdW  Elec       q    Type
REMARK                         _______ _______ _______ _____ _____    ______ ____
ROOT
ATOM      1  C   UNL     1      -0.013   1.086   0.008  0.00  0.00    +0.029 C 
ATOM      2  C   UNL     1      -0.729   1.579   1.267  0.00  0.00    +0.089 C 
ATOM      3  C   UNL     1      -0.011   1.087   2.480  0.00  0.00    +0.031 A 
ATOM      4  C   UNL     1      -0.551   0.531   3.575  0.00  0.00    +0.058 A 
ATOM      5  N   UNL     1       0.299   0.139   4.596  0.00  0.00    -0.210 N 
ATOM      6  C   UNL     1       1.634   0.339   4.436  0.00  0.00    +0.196 A 
ATOM      7  S   UNL     1       1.728   1.092   2.827  0.00  0.00    -0.051 S 
ATOM      8  N   UNL     1       2.276  -0.086   5.487  0.00  0.00    -0.200 NA
ATOM      9  C   UNL     1       1.398  -0.577   6.371  0.00  0.00    +0.183 A 
ATOM     10  N   UNL     1       0.186  -0.464   5.877  0.00  0.00    -0.144 NA
ATOM     11  C   UNL     1      -2.066   0.352   3.657  0.00  0.00    +0.071 C 
ATOM     12  C   UNL     1      -2.714   1.269   2.617  0.00  0.00    +0.087 C 
ATOM     13  N   UNL     1      -2.105   1.047   1.297  0.00  0.00    -0.309 NA
ATOM     14  H   UNL     1      -2.712   1.556   0.534  0.00  0.00    +0.123 HD
ENDROOT
BRANCH   9  15
ATOM     15  C   UNL     1       1.739  -1.156   7.694  0.00  0.00    +0.024 A 
ATOM     16  C   UNL     1       0.730  -1.632   8.530  0.00  0.00    +0.012 A 
ATOM     17  C   UNL     1       1.052  -2.174   9.758  0.00  0.00    +0.003 A 
ATOM     18  C   UNL     1       2.372  -2.237  10.165  0.00  0.00    +0.038 A 
ATOM     19  C   UNL     1       3.379  -1.761   9.341  0.00  0.00    +0.124 A 
ATOM     20  C   UNL     1       3.068  -1.221   8.107  0.00  0.00    +0.050 A 
ATOM     21  F   UNL     1       4.667  -1.824   9.744  0.00  0.00    -0.205 F 
ENDBRANCH   9  15
TORSDOF 1
