REMARK  Name = ZINC13299886
REMARK  8 active torsions:
REMARK  status: ('A' for Active; 'I' for Inactive)
REMARK    1  A    between atoms: C_1  and  C_2
REMARK    2  A    between atoms: C_4  and  N_25
REMARK    3  A    between atoms: C_6  and  S_9
REMARK    4  A    between atoms: C_7  and  C_8
REMARK    5  A    between atoms: S_9  and  N_12
REMARK    6  A    between atoms: N_12  and  C_13
REMARK    7  A    between atoms: C_15  and  C_21
REMARK    8  A    between atoms: C_18  and  C_19
REMARK                            x       y       z     vdW  Elec       q    Type
REMARK                         _______ _______ _______ _____ _____    ______ ____
ROOT
ATOM      1  N   UNL     1       0.072   2.845   4.834  0.00  0.00    -0.215 N 
ATOM      2  H   UNL     1      -0.248   2.605   5.718  0.00  0.00    +0.174 HD
ENDROOT
BRANCH   1   3
ATOM      3  C   UNL     1      -0.799   2.830   3.753  0.00  0.00    +0.063 A 
ATOM      4  C   UNL     1      -0.349   2.436   2.498  0.00  0.00    +0.037 A 
ATOM      5  C   UNL     1      -1.216   2.422   1.426  0.00  0.00    +0.057 A 
ATOM      6  C   UNL     1      -2.538   2.806   1.587  0.00  0.00    +0.013 A 
ATOM      7  C   UNL     1      -3.005   3.195   2.823  0.00  0.00    +0.017 A 
ATOM      8  C   UNL     1      -2.139   3.214   3.921  0.00  0.00    +0.085 A 
BRANCH   5   9
ATOM      9  C   UNL     1      -0.721   1.994   0.069  0.00  0.00    +0.417 C 
ATOM     10  F   UNL     1      -0.891   0.612  -0.075  0.00  0.00    -0.166 F 
ATOM     11  F   UNL     1       0.635   2.312  -0.055  0.00  0.00    -0.166 F 
ATOM     12  F   UNL     1      -1.449   2.658  -0.924  0.00  0.00    -0.166 F 
ENDBRANCH   5   9
BRANCH   8  13
ATOM     13  C   UNL     1      -2.629   3.634   5.245  0.00  0.00    +0.388 C 
ATOM     14  O   UNL     1      -1.873   3.648   6.196  0.00  0.00    -0.241 OA
ATOM     15  O   UNL     1      -3.916   4.002   5.401  0.00  0.00    -0.241 OA
ENDBRANCH   8  13
ENDBRANCH   1   3
BRANCH   1  16
ATOM     16  S   UNL     1       1.657   3.271   4.615  0.00  0.00    +0.073 S 
ATOM     17  O   UNL     1       2.247   3.320   5.906  0.00  0.00    -0.150 OA
ATOM     18  O   UNL     1       2.162   2.440   3.578  0.00  0.00    -0.150 OA
BRANCH  16  24
ATOM     19  C   UNL     1       0.722   8.386   5.145  0.00  0.00    +0.044 C 
ATOM     20  C   UNL     1       1.223   7.252   4.288  0.00  0.00    -0.044 A 
ATOM     21  C   UNL     1       1.695   7.505   3.014  0.00  0.00    +0.036 A 
ATOM     22  C   UNL     1       2.155   6.465   2.228  0.00  0.00    +0.128 A 
ATOM     23  C   UNL     1       2.144   5.172   2.717  0.00  0.00    +0.061 A 
ATOM     24  C   UNL     1       1.672   4.919   3.991  0.00  0.00    +0.114 A 
ATOM     25  C   UNL     1       1.207   5.959   4.775  0.00  0.00    -0.021 A 
ATOM     26  C   UNL     1       0.687   5.682   6.162  0.00  0.00    +0.046 C 
BRANCH  22  27
ATOM     27  N   UNL     1       2.660   6.736   0.863  0.00  0.00    +0.056 N 
ATOM     28  O   UNL     1       3.066   5.819   0.171  0.00  0.00    -0.126 OA
ATOM     29  O   UNL     1       2.670   7.875   0.432  0.00  0.00    -0.126 OA
ENDBRANCH  22  27
ENDBRANCH  16  24
ENDBRANCH   1  16
TORSDOF 6
