REMARK  Name = ZINC62447541
REMARK  5 active torsions:
REMARK  status: ('A' for Active; 'I' for Inactive)
REMARK    1  A    between atoms: C_1  and  C_2
REMARK    2  A    between atoms: C_2  and  C_3
REMARK    3  A    between atoms: C_8  and  C_29
REMARK    4  A    between atoms: N_13  and  S_14
REMARK    5  A    between atoms: S_14  and  C_17
REMARK                            x       y       z     vdW  Elec       q    Type
REMARK                         _______ _______ _______ _____ _____    ______ ____
ROOT
ATOM      1  S   UNL     1       0.422   1.144  -3.411  0.00  0.00    +0.061 S 
ATOM      2  O   UNL     1      -0.744   1.610  -4.075  0.00  0.00    -0.153 OA
ATOM      3  O   UNL     1       1.232   1.992  -2.607  0.00  0.00    -0.153 OA
ENDROOT
BRANCH   1   4
ATOM      4  C   UNL     1       1.475   0.471  -4.653  0.00  0.00    +0.108 A 
ATOM      5  C   UNL     1       2.839   0.387  -4.429  0.00  0.00    +0.030 A 
ATOM      6  C   UNL     1       3.672  -0.139  -5.396  0.00  0.00    +0.030 A 
ATOM      7  C   UNL     1       3.141  -0.584  -6.598  0.00  0.00    +0.067 A 
ATOM      8  C   UNL     1       1.766  -0.499  -6.823  0.00  0.00    +0.069 A 
ATOM      9  C   UNL     1       0.936   0.025  -5.844  0.00  0.00    +0.056 A 
ATOM     10  N   UNL     1       1.534  -1.015  -8.096  0.00  0.00    -0.306 N 
ATOM     11  H   UNL     1       0.670  -1.087  -8.531  0.00  0.00    +0.170 HD
ATOM     12  C   UNL     1       2.714  -1.397  -8.620  0.00  0.00    +0.325 A 
ATOM     13  O   UNL     1       2.865  -1.890  -9.722  0.00  0.00    -0.247 OA
ATOM     14  N   UNL     1       3.702  -1.150  -7.740  0.00  0.00    -0.306 N 
ATOM     15  H   UNL     1       4.645  -1.334  -7.878  0.00  0.00    +0.170 HD
ENDBRANCH   1   4
BRANCH   1  25
ATOM     16  C   UNL     1       0.718  -0.497  -1.257  0.00  0.00    +0.110 C 
ATOM     17  C   UNL     1       0.849  -1.999  -1.204  0.00  0.00    -0.025 A 
ATOM     18  C   UNL     1       1.748  -2.539  -0.294  0.00  0.00    +0.006 A 
ATOM     19  C   UNL     1       1.904  -3.906  -0.192  0.00  0.00    +0.004 A 
ATOM     20  C   UNL     1       1.159  -4.744  -1.001  0.00  0.00    -0.050 A 
ATOM     21  C   UNL     1       0.269  -4.208  -1.908  0.00  0.00    +0.007 A 
ATOM     22  C   UNL     1       0.113  -2.831  -2.017  0.00  0.00    -0.041 A 
ATOM     23  C   UNL     1      -0.857  -2.318  -3.048  0.00  0.00    +0.052 C 
ATOM     24  C   UNL     1      -1.274  -0.882  -2.735  0.00  0.00    +0.115 C 
ATOM     25  N   UNL     1      -0.056  -0.111  -2.442  0.00  0.00    -0.169 NA
ATOM     26  C   UNL     1       1.320  -6.238  -0.893  0.00  0.00    +0.044 C 
BRANCH  16  28
ATOM     27  C   UNL     1      -0.019   1.526   0.010  0.00  0.00    +0.006 C 
ATOM     28  C   UNL     1       0.002  -0.004   0.002  0.00  0.00    +0.022 C 
ENDBRANCH  16  28
ENDBRANCH   1  25
TORSDOF 3
