REMARK  Name = ZINC00691489
REMARK  5 active torsions:
REMARK  status: ('A' for Active; 'I' for Inactive)
REMARK    1  A    between atoms: C_4  and  C_7
REMARK    2  A    between atoms: C_12  and  C_26
REMARK    3  A    between atoms: C_14  and  C_24
REMARK    4  A    between atoms: C_15  and  N_23
REMARK    5  A    between atoms: N_16  and  N_17
REMARK                            x       y       z     vdW  Elec       q    Type
REMARK                         _______ _______ _______ _____ _____    ______ ____
ROOT
ATOM      1  C   UNL     1      -0.705   0.545   4.061  0.00  0.00    +0.032 C 
ATOM      2  C   UNL     1      -0.194   1.949   3.728  0.00  0.00    +0.061 C 
ATOM      3  C   UNL     1       0.078   2.051   2.248  0.00  0.00    +0.037 C 
ATOM      4  C   UNL     1      -0.646   1.339   1.357  0.00  0.00    +0.026 C 
ATOM      5  C   UNL     1      -0.388   1.460  -0.123  0.00  0.00    +0.097 C 
ATOM      6  C   UNL     1       0.962   2.058  -0.390  0.00  0.00    +0.078 C 
ATOM      7  C   UNL     1       1.630   2.740   0.577  0.00  0.00    +0.117 C 
ATOM      8  N   UNL     1       1.076   2.887   1.826  0.00  0.00    -0.223 N 
ATOM      9  C   UNL     1      -1.662   0.466   1.783  0.00  0.00    +0.162 C 
ATOM     10  O   UNL     1      -2.300  -0.154   0.955  0.00  0.00    -0.292 OA
ATOM     11  C   UNL     1      -1.974   0.284   3.243  0.00  0.00    +0.088 C 
ENDROOT
BRANCH   5  12
ATOM     12  C   UNL     1      -1.447   2.336  -0.739  0.00  0.00    -0.033 A 
ATOM     13  C   UNL     1      -2.281   1.829  -1.718  0.00  0.00    +0.004 A 
ATOM     14  C   UNL     1      -3.253   2.632  -2.284  0.00  0.00    +0.002 A 
ATOM     15  C   UNL     1      -3.392   3.944  -1.871  0.00  0.00    +0.020 A 
ATOM     16  C   UNL     1      -2.558   4.453  -0.892  0.00  0.00    +0.041 A 
ATOM     17  C   UNL     1      -1.589   3.646  -0.322  0.00  0.00    +0.024 A 
ATOM     18 CL   UNL     1      -2.732   6.100  -0.373  0.00  0.00    -0.084 Cl
ENDBRANCH   5  12
BRANCH   1  22
ATOM     19  C   UNL     1      -1.607   0.296   8.229  0.00  0.00    +0.000 A 
ATOM     20  C   UNL     1      -0.658  -0.542   7.676  0.00  0.00    +0.000 A 
ATOM     21  C   UNL     1      -0.366  -0.462   6.327  0.00  0.00    +0.004 A 
ATOM     22  C   UNL     1      -1.024   0.457   5.531  0.00  0.00    -0.044 A 
ATOM     23  C   UNL     1      -1.970   1.299   6.085  0.00  0.00    +0.004 A 
ATOM     24  C   UNL     1      -2.264   1.216   7.433  0.00  0.00    +0.000 A 
ENDBRANCH   1  22
BRANCH   8  25
ATOM     25  N   UNL     1       1.526   3.876   2.654  0.00  0.00    -0.217 NA
ATOM     26  C   UNL     1       1.407   5.194   2.013  0.00  0.00    +0.134 C 
ATOM     27  C   UNL     1       1.864   6.276   2.995  0.00  0.00    +0.177 C 
ATOM     28  O   UNL     1       3.203   5.996   3.415  0.00  0.00    -0.377 OA
ATOM     29  C   UNL     1       3.354   4.721   4.044  0.00  0.00    +0.177 C 
ATOM     30  C   UNL     1       2.912   3.623   3.072  0.00  0.00    +0.134 C 
ENDBRANCH   8  25
BRANCH   7  31
ATOM     31  N   UNL     1       2.862   3.284   0.305  0.00  0.00    -0.344 N 
ATOM     32  H   UNL     1       3.440   2.871  -0.356  0.00  0.00    +0.144 HD
ATOM     33  H   UNL     1       3.155   4.081   0.774  0.00  0.00    +0.144 HD
ENDBRANCH   7  31
BRANCH   6  34
ATOM     34  C   UNL     1       1.556   1.907  -1.684  0.00  0.00    +0.099 C 
ATOM     35  N   UNL     1       2.028   1.788  -2.711  0.00  0.00    -0.191 NA
ENDBRANCH   6  34
TORSDOF 5
