REMARK  Name = ZINC40825983
REMARK  9 active torsions:
REMARK  status: ('A' for Active; 'I' for Inactive)
REMARK    1  A    between atoms: C_1  and  C_2
REMARK    2  A    between atoms: C_2  and  C_3
REMARK    3  A    between atoms: C_3  and  C_5
REMARK    4  A    between atoms: C_3  and  N_6
REMARK    5  A    between atoms: C_7  and  C_9
REMARK    6  A    between atoms: C_10  and  C_30
REMARK    7  A    between atoms: N_18  and  N_19
REMARK    8  A    between atoms: N_19  and  S_20
REMARK    9  A    between atoms: S_20  and  C_23
REMARK                            x       y       z     vdW  Elec       q    Type
REMARK                         _______ _______ _______ _____ _____    ______ ____
ROOT
ATOM      1  C   UNL     1      -0.213   0.412  -4.816  0.00  0.00    +0.193 A 
ATOM      2  C   UNL     1       0.288   0.583  -6.077  0.00  0.00    +0.009 A 
ATOM      3  C   UNL     1      -0.797   0.945  -6.884  0.00  0.00    +0.042 A 
ATOM      4  C   UNL     1      -1.913   0.982  -6.084  0.00  0.00    +0.115 A 
ATOM      5  O   UNL     1      -1.544   0.651  -4.848  0.00  0.00    -0.454 OA
ATOM      6  C   UNL     1      -3.283   1.341  -6.601  0.00  0.00    +0.075 C 
ATOM      7  C   UNL     1      -3.143   2.119  -7.913  0.00  0.00    +0.014 C 
ATOM      8  C   UNL     1      -2.268   1.349  -8.908  0.00  0.00    +0.058 C 
ATOM      9  C   UNL     1      -0.863   1.253  -8.331  0.00  0.00    +0.071 C 
ATOM     10  N   UNL     1       0.199   1.429  -9.055  0.00  0.00    -0.170 NA
ATOM     11  C   UNL     1       1.722   0.416  -6.510  0.00  0.00    +0.048 C 
ENDROOT
BRANCH   1  13
ATOM     12  N   UNL     1      -0.055  -0.114  -2.441  0.00  0.00    -0.306 N 
ATOM     13  C   UNL     1       0.561   0.028  -3.631  0.00  0.00    +0.280 C 
ATOM     14  O   UNL     1       1.759  -0.163  -3.722  0.00  0.00    -0.267 OA
ATOM     15  H   UNL     1      -1.010   0.038  -2.368  0.00  0.00    +0.149 HD
BRANCH  12  16
ATOM     16  C   UNL     1       0.718  -0.497  -1.257  0.00  0.00    +0.070 C 
ATOM     17  C   UNL     1       0.849  -2.021  -1.205  0.00  0.00    +0.028 C 
BRANCH  16  19
ATOM     18  C   UNL     1      -0.019   1.526   0.010  0.00  0.00    +0.005 C 
ATOM     19  C   UNL     1       0.002  -0.004   0.002  0.00  0.00    +0.018 C 
ENDBRANCH  16  19
ENDBRANCH  12  16
ENDBRANCH   1  13
BRANCH  10  20
ATOM     20  N   UNL     1       0.077   1.718 -10.420  0.00  0.00    -0.136 N 
ATOM     21  H   UNL     1      -0.802   1.787 -10.824  0.00  0.00    +0.197 HD
BRANCH  20  22
ATOM     22  S   UNL     1       1.433   1.942 -11.343  0.00  0.00    +0.086 S 
ATOM     23  O   UNL     1       0.992   2.072 -12.688  0.00  0.00    -0.149 OA
ATOM     24  O   UNL     1       2.205   2.944 -10.695  0.00  0.00    -0.149 OA
BRANCH  22  25
ATOM     25  C   UNL     1       2.370   0.453 -11.262  0.00  0.00    +0.110 A 
ATOM     26  C   UNL     1       3.317   0.285 -10.269  0.00  0.00    +0.031 A 
ATOM     27  C   UNL     1       4.053  -0.883 -10.204  0.00  0.00    +0.040 A 
ATOM     28  C   UNL     1       3.841  -1.886 -11.135  0.00  0.00    +0.124 A 
ATOM     29  C   UNL     1       2.893  -1.717 -12.130  0.00  0.00    +0.040 A 
ATOM     30  C   UNL     1       2.155  -0.550 -12.189  0.00  0.00    +0.031 A 
ATOM     31  F   UNL     1       4.560  -3.028 -11.073  0.00  0.00    -0.205 F 
ENDBRANCH  22  25
ENDBRANCH  20  22
ENDBRANCH  10  20
TORSDOF 6
