REMARK  Name = ZINC32640971
REMARK  5 active torsions:
REMARK  status: ('A' for Active; 'I' for Inactive)
REMARK    1  A    between atoms: C_4  and  C_7
REMARK    2  A    between atoms: C_7  and  C_8
REMARK    3  A    between atoms: C_14  and  C_15
REMARK    4  A    between atoms: C_18  and  C_20
REMARK    5  A    between atoms: C_25  and  N_26
REMARK                            x       y       z     vdW  Elec       q    Type
REMARK                         _______ _______ _______ _____ _____    ______ ____
ROOT
ATOM      1  C   UNL     1       0.925  10.144   1.343  0.00  0.00    +0.104 C 
ATOM      2  N   UNL     1       1.590   9.142   0.844  0.00  0.00    -0.169 NA
ATOM      3  N   UNL     1       0.950   7.993   0.432  0.00  0.00    -0.152 N 
ATOM      4  C   UNL     1       1.563   6.887  -0.188  0.00  0.00    +0.153 C 
ATOM      5  N   UNL     1       2.716   6.961  -0.802  0.00  0.00    -0.283 NA
ATOM      6  C   UNL     1       0.776   5.630  -0.079  0.00  0.00    +0.084 C 
ATOM      7  C   UNL     1       1.389   4.390   0.013  0.00  0.00    +0.063 C 
ATOM      8  C   UNL     1      -0.698   5.773  -0.069  0.00  0.00    +0.273 C 
ATOM      9  O   UNL     1      -1.421   4.862  -0.440  0.00  0.00    -0.268 OA
ATOM     10  N   UNL     1      -1.218   6.941   0.361  0.00  0.00    -0.152 NA
ATOM     11  C   UNL     1      -0.415   7.941   0.621  0.00  0.00    +0.181 C 
ATOM     12  S   UNL     1      -0.757   9.541   1.302  0.00  0.00    -0.038 S 
ATOM     13  H   UNL     1       3.252   7.920  -0.852  0.00  0.00    +0.188 HD
ENDROOT
BRANCH   7  14
ATOM     14  C   UNL     1       0.689   3.298   0.551  0.00  0.00    +0.129 A 
ATOM     15  C   UNL     1       1.126   1.981   0.575  0.00  0.00    +0.050 A 
ATOM     16  C   UNL     1       0.126   1.236   1.198  0.00  0.00    +0.050 A 
ATOM     17  C   UNL     1      -0.885   2.112   1.528  0.00  0.00    +0.138 A 
ATOM     18  O   UNL     1      -0.527   3.348   1.137  0.00  0.00    -0.455 OA
BRANCH  17  19
ATOM     19  C   UNL     1      -2.149   1.755   2.201  0.00  0.00    +0.047 A 
ATOM     20  C   UNL     1      -2.923   0.694   1.724  0.00  0.00    +0.014 A 
ATOM     21  C   UNL     1      -4.102   0.365   2.358  0.00  0.00    +0.001 A 
ATOM     22  C   UNL     1      -4.520   1.084   3.465  0.00  0.00    +0.002 A 
ATOM     23  C   UNL     1      -3.759   2.136   3.943  0.00  0.00    +0.033 A 
ATOM     24  C   UNL     1      -2.574   2.473   3.322  0.00  0.00    +0.137 A 
BRANCH  24  25
ATOM     25  N   UNL     1      -1.758   3.595   3.838  0.00  0.00    +0.057 N 
ATOM     26  O   UNL     1      -2.130   4.219   4.815  0.00  0.00    -0.126 OA
ATOM     27  O   UNL     1      -0.715   3.893   3.286  0.00  0.00    -0.126 OA
ENDBRANCH  24  25
ENDBRANCH  17  19
ENDBRANCH   7  14
BRANCH   1  28
ATOM     28  C   UNL     1       1.442  11.473   1.832  0.00  0.00    +0.099 C 
BRANCH  28  32
ATOM     29  C   UNL     1       5.686  11.610   1.360  0.00  0.00    +0.000 A 
ATOM     30  C   UNL     1       4.862  12.044   0.338  0.00  0.00    +0.000 A 
ATOM     31  C   UNL     1       3.489  12.000   0.491  0.00  0.00    +0.004 A 
ATOM     32  C   UNL     1       2.939  11.521   1.665  0.00  0.00    -0.041 A 
ATOM     33  C   UNL     1       3.763  11.091   2.689  0.00  0.00    +0.004 A 
ATOM     34  C   UNL     1       5.136  11.131   2.534  0.00  0.00    +0.000 A 
ENDBRANCH  28  32
ENDBRANCH   1  28
TORSDOF 5
