REMARK  1 active torsions:
REMARK  status: ('A' for Active; 'I' for Inactive)
REMARK    1  A    between atoms: C12_13  and  N14_16 
ROOT
HETATM    1  C7  CQW A 999       3.505   3.664  15.779  1.00 30.36     0.121 A 
HETATM    2  C9  CQW A 999       4.660   5.653  16.133  1.00 29.78     0.183 A 
HETATM    3  C13 CQW A 999       4.655   2.897  16.070  1.00 31.25     0.075 A 
HETATM    4  N5  CQW A 999       2.462   2.791  15.504  1.00 31.64    -0.350 N 
ATOM      5  H5  CQW A 999       1.504   3.063  15.284  1.00  0.00     0.166 HD
HETATM    6 CL1  CQW A 999       5.189   0.034  16.018  1.00 40.44    -0.082 Cl
HETATM    7  C2  CQW A 999       4.238   1.487  15.880  1.00 33.47     0.067 A 
HETATM    8  C3  CQW A 999       2.929   1.505  15.576  1.00 32.66     0.114 A 
HETATM    9  N8  CQW A 999       3.536   4.998  15.813  1.00 31.03    -0.338 N 
ATOM     10  H8  CQW A 999       2.692   5.526  15.592  1.00  0.00     0.168 HD
HETATM   11  C12 CQW A 999       5.810   3.628  16.424  1.00 29.47     0.120 A 
HETATM   12  N11 CQW A 999       5.769   4.966  16.399  1.00 28.43    -0.338 N 
ATOM     13  H11 CQW A 999       6.627   5.483  16.593  1.00  0.00     0.168 HD
ENDROOT
BRANCH  11  14
HETATM   14  N14 CQW A 999       7.058   3.039  16.720  1.00 28.80    -0.360 N 
HETATM   15  C28 CQW A 999       7.164   1.879  17.636  1.00 29.98     0.183 C 
HETATM   16  C27 CQW A 999       7.598   2.215  19.042  1.00 28.92     0.051 A 
HETATM   17  C21 CQW A 999       8.154   3.392  19.370  1.00 27.44     0.036 A 
HETATM   18  N26 CQW A 999       7.621   1.413  20.162  1.00 31.36    -0.353 N 
HETATM   19  C18 CQW A 999       8.448   4.416  18.316  1.00 26.21     0.079 C 
HETATM   20  N22 CQW A 999       8.556   3.312  20.686  1.00 30.84    -0.354 N 
HETATM   21  C15 CQW A 999       8.269   3.879  16.878  1.00 29.40     0.131 C 
HETATM   22  C24 CQW A 999       8.194   2.098  21.147  1.00 32.08     0.181 A 
ATOM     23  H22 CQW A 999       9.039   4.039  21.214  1.00  0.00     0.166 HD
ATOM     24  H26 CQW A 999       7.261   0.461  20.225  1.00  0.00     0.166 HD
ENDBRANCH  11  14
TORSDOF 1
