REMARK  Name = ZINC48392862
REMARK  7 active torsions:
REMARK  status: ('A' for Active; 'I' for Inactive)
REMARK    1  A    between atoms: C_1  and  C_2
REMARK    2  A    between atoms: C_7  and  C_8
REMARK    3  A    between atoms: C_8  and  S_9
REMARK    4  A    between atoms: S_9  and  C_10
REMARK    5  A    between atoms: C_11  and  C_18
REMARK    6  A    between atoms: C_12  and  N_17
REMARK    7  A    between atoms: C_14  and  N_16
REMARK                            x       y       z     vdW  Elec       q    Type
REMARK                         _______ _______ _______ _____ _____    ______ ____
ROOT
ATOM      1  C   UNL     1      -1.513   1.192   4.568  0.00  0.00    +0.118 A 
ATOM      2  C   UNL     1      -2.660   1.573   5.286  0.00  0.00    +0.104 A 
ATOM      3  C   UNL     1      -2.500   2.270   6.503  0.00  0.00    +0.048 A 
ATOM      4  C   UNL     1      -1.209   2.549   6.936  0.00  0.00    +0.067 A 
ATOM      5  C   UNL     1      -0.128   2.137   6.168  0.00  0.00    +0.119 A 
ATOM      6  N   UNL     1      -0.306   1.478   5.030  0.00  0.00    -0.225 NA
ENDROOT
BRANCH   5   7
ATOM      7  N   UNL     1       1.159   2.415   6.600  0.00  0.00    -0.343 N 
ATOM      8  H   UNL     1       1.299   2.893   7.432  0.00  0.00    +0.144 HD
ATOM      9  H   UNL     1       1.921   2.132   6.069  0.00  0.00    +0.144 HD
ENDBRANCH   5   7
BRANCH   3  10
ATOM     10  N   UNL     1      -3.601   2.667   7.246  0.00  0.00    -0.357 N 
ATOM     11  H   UNL     1      -4.497   2.466   6.931  0.00  0.00    +0.142 HD
ATOM     12  H   UNL     1      -3.477   3.145   8.080  0.00  0.00    +0.142 HD
ENDBRANCH   3  10
BRANCH   2  13
ATOM     13  C   UNL     1      -3.967   1.261   4.792  0.00  0.00    +0.104 C 
ATOM     14  N   UNL     1      -5.004   1.012   4.400  0.00  0.00    -0.191 NA
ENDBRANCH   2  13
BRANCH   1  15
ATOM     15  S   UNL     1      -1.684   0.321   3.046  0.00  0.00    -0.100 S 
BRANCH  15  16
ATOM     16  C   UNL     1       0.025   0.045   2.504  0.00  0.00    +0.111 C 
BRANCH  16  23
ATOM     17  C   UNL     1      -0.018   1.503   0.010  0.00  0.00    +0.044 C 
ATOM     18  C   UNL     1       0.002  -0.004   0.002  0.00  0.00    -0.046 A 
ATOM     19  C   UNL     1       0.006  -0.689  -1.199  0.00  0.00    +0.003 A 
ATOM     20  C   UNL     1       0.025  -2.071  -1.207  0.00  0.00    +0.000 A 
ATOM     21  C   UNL     1       0.040  -2.768  -0.013  0.00  0.00    +0.000 A 
ATOM     22  C   UNL     1       0.037  -2.084   1.188  0.00  0.00    +0.005 A 
ATOM     23  C   UNL     1       0.023  -0.702   1.195  0.00  0.00    -0.034 A 
ENDBRANCH  16  23
ENDBRANCH  15  16
ENDBRANCH   1  15
TORSDOF 6
