REMARK  Name = ZINC16480858
REMARK  6 active torsions:
REMARK  status: ('A' for Active; 'I' for Inactive)
REMARK    1  A    between atoms: C_4  and  C_7
REMARK    2  A    between atoms: C_7  and  S_8
REMARK    3  A    between atoms: S_8  and  C_9
REMARK    4  A    between atoms: C_9  and  C_10
REMARK    5  A    between atoms: C_13  and  C_16
REMARK    6  A    between atoms: N_18  and  N_19
REMARK                            x       y       z     vdW  Elec       q    Type
REMARK                         _______ _______ _______ _____ _____    ______ ____
ROOT
ATOM      1  C   UNL     1       8.002  -3.102   6.661  0.00  0.00    +0.263 C 
ATOM      2  O   UNL     1       8.742  -2.309   7.210  0.00  0.00    -0.268 OA
ATOM      3  N   UNL     1       7.691  -4.264   7.267  0.00  0.00    -0.202 N 
ATOM      4  H   UNL     1       7.101  -4.897   6.829  0.00  0.00    +0.178 HD
ENDROOT
BRANCH   3   5
ATOM      5  N   UNL     1       8.220  -4.559   8.530  0.00  0.00    -0.174 NA
ATOM      6  C   UNL     1       7.917  -5.690   9.120  0.00  0.00    +0.153 C 
ATOM      7  C   UNL     1       8.373  -6.166  10.447  0.00  0.00    +0.029 A 
ATOM      8  C   UNL     1       9.200  -5.620  11.422  0.00  0.00    +0.027 A 
ATOM      9  C   UNL     1       9.444  -6.322  12.586  0.00  0.00    +0.019 A 
ATOM     10  C   UNL     1       8.866  -7.566  12.780  0.00  0.00    +0.017 A 
ATOM     11  C   UNL     1       8.043  -8.116  11.818  0.00  0.00    +0.025 A 
ATOM     12  C   UNL     1       7.786  -7.423  10.640  0.00  0.00    +0.043 A 
ATOM     13  N   UNL     1       7.010  -7.743   9.530  0.00  0.00    -0.280 N 
ATOM     14  C   UNL     1       7.042  -6.764   8.610  0.00  0.00    +0.269 C 
ATOM     15  O   UNL     1       6.456  -6.765   7.543  0.00  0.00    -0.268 OA
ATOM     16 BR   UNL     1      10.569  -5.586  13.915  0.00  0.00    -0.050 Br
ATOM     17  H   UNL     1       6.506  -8.566   9.435  0.00  0.00    +0.155 HD
ENDBRANCH   3   5
BRANCH   1  21
ATOM     18  C   UNL     1       6.400  -2.208   2.831  0.00  0.00    -0.038 A 
ATOM     19  C   UNL     1       7.241  -1.303   3.453  0.00  0.00    +0.005 A 
ATOM     20  C   UNL     1       7.765  -1.587   4.697  0.00  0.00    +0.013 A 
ATOM     21  C   UNL     1       7.444  -2.791   5.329  0.00  0.00    +0.038 A 
ATOM     22  C   UNL     1       6.595  -3.700   4.694  0.00  0.00    +0.013 A 
ATOM     23  C   UNL     1       6.074  -3.401   3.453  0.00  0.00    +0.005 A 
BRANCH  18  24
ATOM     24  C   UNL     1       5.831  -1.891   1.472  0.00  0.00    +0.104 C 
BRANCH  24  25
ATOM     25  S   UNL     1       4.257  -1.011   1.666  0.00  0.00    -0.151 S 
BRANCH  25  26
ATOM     26  C   UNL     1       3.711  -0.707  -0.038  0.00  0.00    +0.104 C 
BRANCH  26  30
ATOM     27  C   UNL     1      -0.017   1.378   0.010  0.00  0.00    +0.000 A 
ATOM     28  C   UNL     1       1.171   2.086   0.002  0.00  0.00    +0.000 A 
ATOM     29  C   UNL     1       2.377   1.411  -0.013  0.00  0.00    +0.004 A 
ATOM     30  C   UNL     1       2.396   0.029  -0.020  0.00  0.00    -0.038 A 
ATOM     31  C   UNL     1       1.208  -0.679  -0.012  0.00  0.00    +0.004 A 
ATOM     32  C   UNL     1       0.002  -0.004   0.002  0.00  0.00    +0.000 A 
ENDBRANCH  26  30
ENDBRANCH  25  26
ENDBRANCH  24  25
ENDBRANCH  18  24
ENDBRANCH   1  21
TORSDOF 6
