REMARK  Name = ZINC33469774
REMARK  7 active torsions:
REMARK  status: ('A' for Active; 'I' for Inactive)
REMARK    1  A    between atoms: C_1  and  C_2
REMARK    2  A    between atoms: N_8  and  C_9
REMARK    3  A    between atoms: C_9  and  C_10
REMARK    4  A    between atoms: C_11  and  C_21
REMARK    5  A    between atoms: N_23  and  N_24
REMARK    6  A    between atoms: C_25  and  C_26
REMARK    7  A    between atoms: C_25  and  C_27
REMARK                            x       y       z     vdW  Elec       q    Type
REMARK                         _______ _______ _______ _____ _____    ______ ____
ROOT
ATOM      1  C   UNL     1      -7.083   2.689  -0.158  0.00  0.00    +0.063 A 
ATOM      2  C   UNL     1      -7.197   4.038   0.026  0.00  0.00    +0.170 A 
ATOM      3  N   UNL     1      -7.808   4.564  -1.050  0.00  0.00    -0.124 NA
ATOM      4  N   UNL     1      -8.082   3.629  -1.891  0.00  0.00    -0.058 NA
ATOM      5  N   UNL     1      -7.629   2.412  -1.362  0.00  0.00    -0.194 N 
ATOM      6  C   UNL     1      -7.727   1.153  -1.964  0.00  0.00    +0.240 A 
ATOM      7  C   UNL     1      -8.329   0.871  -3.270  0.00  0.00    +0.206 A 
ATOM      8  N   UNL     1      -8.233  -0.410  -3.498  0.00  0.00    -0.032 NA
ATOM      9  O   UNL     1      -7.594  -1.003  -2.382  0.00  0.00    -0.239 OA
ATOM     10  N   UNL     1      -7.303   0.030  -1.457  0.00  0.00    -0.027 NA
ATOM     11  N   UNL     1      -8.901   1.809  -4.123  0.00  0.00    -0.337 N 
ATOM     12  H   UNL     1      -9.327   1.490  -5.085  0.00  0.00    +0.144 HD
ATOM     13  H   UNL     1      -8.927   2.870  -3.834  0.00  0.00    +0.144 HD
ENDROOT
BRANCH   2  14
ATOM     14  C   UNL     1      -6.729   4.790   1.205  0.00  0.00    +0.285 C 
ATOM     15  O   UNL     1      -6.187   4.205   2.124  0.00  0.00    -0.267 OA
ATOM     16  N   UNL     1      -6.901   6.126   1.265  0.00  0.00    -0.201 N 
ATOM     17  H   UNL     1      -7.391   6.655   0.434  0.00  0.00    +0.178 HD
BRANCH  16  18
ATOM     18  N   UNL     1      -6.457   6.840   2.385  0.00  0.00    -0.184 NA
ATOM     19  C   UNL     1      -6.712   8.108   2.490  0.00  0.00    +0.063 C 
ATOM     20  C   UNL     1      -6.093   8.912   3.604  0.00  0.00    +0.068 C 
BRANCH  19  21
ATOM     21  C   UNL     1      -7.609   8.762   1.518  0.00  0.00    -0.001 A 
ATOM     22  C   UNL     1      -7.343  10.064   1.085  0.00  0.00    +0.011 A 
ATOM     23  C   UNL     1      -8.182  10.668   0.172  0.00  0.00    +0.022 A 
ATOM     24  C   UNL     1      -9.292   9.992  -0.307  0.00  0.00    +0.059 A 
ATOM     25  C   UNL     1      -9.564   8.703   0.122  0.00  0.00    +0.060 A 
ATOM     26  C   UNL     1      -8.729   8.085   1.031  0.00  0.00    +0.031 A 
ATOM     27 CL   UNL     1     -10.957   7.864  -0.485  0.00  0.00    -0.082 Cl
ATOM     28 CL   UNL     1     -10.346  10.763  -1.450  0.00  0.00    -0.082 Cl
ENDBRANCH  19  21
ENDBRANCH  16  18
ENDBRANCH   2  14
BRANCH   1  29
ATOM     29  C   UNL     1      -6.462   1.702   0.796  0.00  0.00    -0.019 C 
BRANCH  29  36
ATOM     30  C   UNL     1      -4.629   1.371   2.906  0.00  0.00    -0.013 C 
ATOM     31  C   UNL     1      -4.350   0.770   1.527  0.00  0.00    -0.071 C 
ATOM     32  C   UNL     1      -2.841   0.772   1.265  0.00  0.00    -0.016 C 
ATOM     33  C   UNL     1      -2.570   0.189  -0.124  0.00  0.00    -0.003 C 
ATOM     34  C   UNL     1      -3.327   1.009  -1.172  0.00  0.00    -0.019 C 
ATOM     35  C   UNL     1      -4.821   0.999  -0.839  0.00  0.00    -0.078 C 
ATOM     36  N   UNL     1      -5.029   1.568   0.499  0.00  0.00    +0.385 N 
ATOM     37  H   UNL     1      -4.585   2.574   0.508  0.00  0.00    -0.081 HD
ENDBRANCH  29  36
ENDBRANCH   1  29
TORSDOF 5
