REMARK  Name = ZINC32106018
REMARK  7 active torsions:
REMARK  status: ('A' for Active; 'I' for Inactive)
REMARK    1  A    between atoms: C_1  and  N_2
REMARK    2  A    between atoms: C_3  and  C_5
REMARK    3  A    between atoms: C_7  and  C_27
REMARK    4  A    between atoms: N_9  and  C_21
REMARK    5  A    between atoms: N_12  and  N_13
REMARK    6  A    between atoms: N_13  and  C_14
REMARK    7  A    between atoms: N_29  and  C_30
REMARK                            x       y       z     vdW  Elec       q    Type
REMARK                         _______ _______ _______ _____ _____    ______ ____
ROOT
ATOM      1  C   UNL     1      -2.622   1.360  -0.602  0.00  0.00    +0.114 C 
ATOM      2  C   UNL     1      -3.824   1.904   0.200  0.00  0.00    +0.038 C 
ATOM      3  N   UNL     1      -4.128   0.822   1.175  0.00  0.00    +0.393 N 
ATOM      4  C   UNL     1      -2.789   0.323   1.580  0.00  0.00    -0.023 C 
ATOM      5  C   UNL     1      -1.966   0.333   0.303  0.00  0.00    +0.031 C 
ATOM      6  N   UNL     1      -0.933  -0.379   0.044  0.00  0.00    -0.193 NA
ATOM      7  H   UNL     1      -4.772   0.034   0.758  0.00  0.00    -0.080 HD
ENDROOT
BRANCH   3   8
ATOM      8  C   UNL     1      -4.866   1.348   2.332  0.00  0.00    -0.067 C 
ATOM      9  C   UNL     1      -5.016   0.247   3.384  0.00  0.00    -0.015 C 
ATOM     10  C   UNL     1      -5.785   0.794   4.588  0.00  0.00    -0.002 C 
ATOM     11  C   UNL     1      -7.170   1.263   4.139  0.00  0.00    -0.000 C 
ATOM     12  C   UNL     1      -7.019   2.364   3.087  0.00  0.00    -0.002 C 
ATOM     13  C   UNL     1      -6.251   1.817   1.883  0.00  0.00    -0.015 C 
ENDBRANCH   3   8
BRANCH   1  16
ATOM     14  C   UNL     1      -0.832   4.246  -2.369  0.00  0.00    +0.128 C 
ATOM     15  N   UNL     1      -1.768   3.159  -2.069  0.00  0.00    -0.318 N 
ATOM     16  C   UNL     1      -1.656   2.474  -0.914  0.00  0.00    +0.220 C 
ATOM     17  O   UNL     1      -0.777   2.753  -0.126  0.00  0.00    -0.275 OA
ATOM     18  H   UNL     1      -2.562   2.903  -2.785  0.00  0.00    +0.148 HD
ENDBRANCH   1  16
BRANCH   2  19
ATOM     19  C   UNL     1      -3.447   3.173   0.920  0.00  0.00    +0.200 C 
ATOM     20  O   UNL     1      -2.814   3.118   1.953  0.00  0.00    -0.278 OA
ATOM     21  N   UNL     1      -3.814   4.368   0.417  0.00  0.00    -0.320 N 
ATOM     22  C   UNL     1      -3.534   5.596   1.166  0.00  0.00    +0.128 C 
ATOM     23  H   UNL     1      -4.324   4.422  -0.556  0.00  0.00    +0.148 HD
ENDBRANCH   2  19
BRANCH   6  24
ATOM     24  N   UNL     1      -0.452  -1.288   0.995  0.00  0.00    -0.238 N 
ATOM     25  H   UNL     1      -0.961  -1.390   1.964  0.00  0.00    +0.174 HD
BRANCH  24  26
ATOM     26  C   UNL     1       0.674  -2.063   0.712  0.00  0.00    +0.048 A 
ATOM     27  C   UNL     1       1.315  -1.939  -0.515  0.00  0.00    +0.026 A 
ATOM     28  C   UNL     1       2.432  -2.704  -0.790  0.00  0.00    +0.022 A 
ATOM     29  C   UNL     1       2.906  -3.601   0.151  0.00  0.00    +0.041 A 
ATOM     30  C   UNL     1       2.267  -3.731   1.371  0.00  0.00    +0.022 A 
ATOM     31  C   UNL     1       1.153  -2.965   1.654  0.00  0.00    +0.026 A 
ATOM     32 CL   UNL     1       4.307  -4.565  -0.201  0.00  0.00    -0.084 Cl
ENDBRANCH  24  26
ENDBRANCH   6  24
TORSDOF 5
