REMARK  Name = ZINC61535245
REMARK  0 active torsions:
REMARK  status: ('A' for Active; 'I' for Inactive)
REMARK                            x       y       z     vdW  Elec       q    Type
REMARK                         _______ _______ _______ _____ _____    ______ ____
ROOT
ATOM      1  C   UNL     1      -0.017   1.378   0.010  0.00  0.00    +0.000 A 
ATOM      2  C   UNL     1       1.174   2.082   0.002  0.00  0.00    +0.002 A 
ATOM      3  C   UNL     1       2.377   1.411  -0.013  0.00  0.00    +0.024 A 
ATOM      4  C   UNL     1       2.404   0.014  -0.021  0.00  0.00    +0.040 A 
ATOM      5  C   UNL     1       1.206  -0.682  -0.013  0.00  0.00    -0.024 A 
ATOM      6  C   UNL     1       0.002  -0.004   0.002  0.00  0.00    +0.005 A 
ATOM      7  C   UNL     1       1.510  -2.163  -0.024  0.00  0.00    +0.056 C 
ATOM      8  C   UNL     1       3.046  -2.242  -0.039  0.00  0.00    +0.118 C 
ATOM      9  N   UNL     1       3.502  -0.850  -0.036  0.00  0.00    -0.269 N 
ATOM     10  C   UNL     1       4.824  -0.450  -0.048  0.00  0.00    +0.228 A 
ATOM     11  N   UNL     1       5.129   0.844  -0.038  0.00  0.00    -0.177 NA
ATOM     12  C   UNL     1       6.399   1.224  -0.049  0.00  0.00    +0.258 A 
ATOM     13  N   UNL     1       7.365   0.311  -0.069  0.00  0.00    -0.180 NA
ATOM     14  C   UNL     1       7.061  -0.977  -0.078  0.00  0.00    +0.229 A 
ATOM     15  N   UNL     1       5.795  -1.360  -0.062  0.00  0.00    -0.184 NA
ATOM     16 CL   UNL     1       8.326  -2.165  -0.103  0.00  0.00    -0.041 Cl
ATOM     17  N   UNL     1       6.721   2.579  -0.040  0.00  0.00    -0.186 N 
ATOM     18  C   UNL     1       7.959   3.117  -0.054  0.00  0.00    +0.228 A 
ATOM     19  N   UNL     1       7.834   4.419  -0.039  0.00  0.00    -0.222 NA
ATOM     20  C   UNL     1       6.542   4.749  -0.015  0.00  0.00    +0.245 A 
ATOM     21  N   UNL     1       5.823   3.658  -0.020  0.00  0.00    -0.151 NA
ENDROOT
TORSDOF 0
