REMARK  Name = ZINC21866943
REMARK  11 active torsions:
REMARK  status: ('A' for Active; 'I' for Inactive)
REMARK    1  A    between atoms: C_1  and  C_2
REMARK    2  A    between atoms: C_2  and  C_3
REMARK    3  A    between atoms: C_2  and  C_4
REMARK    4  A    between atoms: C_4  and  C_5
REMARK    5  A    between atoms: C_5  and  N_6
REMARK    6  A    between atoms: C_7  and  C_9
REMARK    7  A    between atoms: C_9  and  C_35
REMARK    8  A    between atoms: C_18  and  N_31
REMARK    9  A    between atoms: N_22  and  C_23
REMARK   10  A    between atoms: C_23  and  C_24
REMARK   11  A    between atoms: C_32  and  C_34
REMARK                            x       y       z     vdW  Elec       q    Type
REMARK                         _______ _______ _______ _____ _____    ______ ____
ROOT
ATOM      1  C   UNL     1       2.614   3.143  -2.193  0.00  0.00    +0.129 C 
ATOM      2  C   UNL     1       3.008   3.072  -3.671  0.00  0.00    +0.157 C 
ATOM      3  N   UNL     1       3.127   4.436  -4.203  0.00  0.00    -0.332 N 
ATOM      4  C   UNL     1       3.920   4.912  -5.194  0.00  0.00    +0.052 A 
ATOM      5  C   UNL     1       4.879   4.290  -5.997  0.00  0.00    +0.026 A 
ATOM      6  C   UNL     1       5.517   5.077  -6.938  0.00  0.00    +0.002 A 
ATOM      7  C   UNL     1       5.233   6.424  -7.094  0.00  0.00    +0.001 A 
ATOM      8  C   UNL     1       4.298   7.065  -6.321  0.00  0.00    +0.012 A 
ATOM      9  C   UNL     1       3.637   6.294  -5.359  0.00  0.00    +0.022 A 
ATOM     10  C   UNL     1       2.611   6.633  -4.383  0.00  0.00    +0.072 A 
ATOM     11  C   UNL     1       2.344   5.483  -3.691  0.00  0.00    +0.127 A 
ATOM     12  C   UNL     1       1.402   5.245  -2.592  0.00  0.00    +0.266 C 
ATOM     13  O   UNL     1       0.577   6.078  -2.264  0.00  0.00    -0.268 OA
ATOM     14  N   UNL     1       1.496   4.051  -1.962  0.00  0.00    -0.276 N 
ATOM     15  C   UNL     1       3.817   3.621  -1.378  0.00  0.00    +0.043 C 
ENDROOT
BRANCH  10  16
ATOM     16  N   UNL     1       2.020   7.878  -4.191  0.00  0.00    -0.283 N 
ATOM     17  C   UNL     1       1.720   8.652  -5.253  0.00  0.00    +0.214 C 
ATOM     18  O   UNL     1       2.055   8.310  -6.367  0.00  0.00    -0.276 OA
ATOM     19  C   UNL     1       0.968   9.943  -5.056  0.00  0.00    +0.109 C 
ATOM     20  H   UNL     1       1.798   8.231  -3.173  0.00  0.00    +0.155 HD
ENDBRANCH  10  16
BRANCH   1  22
ATOM     21  N   UNL     1       1.027   1.251  -2.059  0.00  0.00    -0.313 N 
ATOM     22  C   UNL     1       2.227   1.764  -1.725  0.00  0.00    +0.238 C 
ATOM     23  O   UNL     1       2.996   1.117  -1.046  0.00  0.00    -0.273 OA
ATOM     24  H   UNL     1       0.363   1.802  -2.742  0.00  0.00    +0.149 HD
BRANCH  21  25
ATOM     25  C   UNL     1       0.605  -0.042  -1.513  0.00  0.00    +0.104 C 
BRANCH  25  26
ATOM     26  C   UNL     1      -0.732  -0.447  -2.136  0.00  0.00    +0.022 C 
BRANCH  26  28
ATOM     27  C   UNL     1      -2.567  -2.143  -2.094  0.00  0.00    +0.007 C 
ATOM     28  C   UNL     1      -1.173  -1.796  -1.567  0.00  0.00    -0.016 C 
ATOM     29  C   UNL     1      -0.181  -2.880  -1.996  0.00  0.00    +0.007 C 
ENDBRANCH  26  28
ENDBRANCH  25  26
ENDBRANCH  21  25
ENDBRANCH   1  22
BRANCH  14  30
ATOM     30  C   UNL     1       0.449   3.662  -1.014  0.00  0.00    +0.144 C 
BRANCH  30  31
ATOM     31  C   UNL     1       0.751   4.252   0.339  0.00  0.00    -0.029 A 
ATOM     32  C   UNL     1       0.332   5.534   0.644  0.00  0.00    +0.005 A 
ATOM     33  C   UNL     1       0.609   6.075   1.885  0.00  0.00    +0.002 A 
ATOM     34  C   UNL     1       1.310   5.338   2.820  0.00  0.00    +0.020 A 
ATOM     35  C   UNL     1       1.726   4.053   2.518  0.00  0.00    +0.041 A 
ATOM     36  C   UNL     1       1.448   3.512   1.275  0.00  0.00    +0.025 A 
ATOM     37 CL   UNL     1       2.601   3.124   3.694  0.00  0.00    -0.084 Cl
ENDBRANCH  30  31
ENDBRANCH  14  30
TORSDOF 7
