REMARK  Name = ZINC42145733
REMARK  8 active torsions:
REMARK  status: ('A' for Active; 'I' for Inactive)
REMARK    1  A    between atoms: C_1  and  C_2
REMARK    2  A    between atoms: C_2  and  C_3
REMARK    3  A    between atoms: C_3  and  C_4
REMARK    4  A    between atoms: C_6  and  C_9
REMARK    5  A    between atoms: C_9  and  C_11
REMARK    6  A    between atoms: C_9  and  N_12
REMARK    7  A    between atoms: C_16  and  C_19
REMARK    8  A    between atoms: C_19  and  C_20
REMARK                            x       y       z     vdW  Elec       q    Type
REMARK                         _______ _______ _______ _____ _____    ______ ____
ROOT
ATOM      1  C   UNL     1       2.242  -5.200  -0.449  0.00  0.00    +0.019 C 
ATOM      2  C   UNL     1       1.583  -5.848   0.771  0.00  0.00    -0.003 C 
ENDROOT
BRANCH   1   3
ATOM      3  N   UNL     1       2.343  -6.187  -1.532  0.00  0.00    +0.387 N 
ATOM      4  C   UNL     1       3.147  -7.329  -1.079  0.00  0.00    -0.078 C 
ATOM      5  C   UNL     1       3.188  -8.396  -2.175  0.00  0.00    -0.018 C 
ATOM      6  C   UNL     1       3.813  -7.798  -3.439  0.00  0.00    -0.000 C 
ATOM      7  C   UNL     1       3.009  -6.564  -3.860  0.00  0.00    -0.028 C 
ATOM      8  C   UNL     1       2.975  -5.565  -2.701  0.00  0.00    -0.074 C 
ATOM      9  H   UNL     1       1.419  -6.507  -1.781  0.00  0.00    -0.081 HD
BRANCH   7  10
ATOM     10  C   UNL     1       3.671  -5.915  -5.077  0.00  0.00    -0.002 C 
ATOM     11  C   UNL     1       3.596  -6.871  -6.269  0.00  0.00    +0.004 C 
ENDBRANCH   7  10
ENDBRANCH   1   3
BRANCH   1  14
ATOM     12  C   UNL     1       0.739  -2.004  -1.265  0.00  0.00    +0.172 A 
ATOM     13  N   UNL     1       1.694  -2.772  -0.730  0.00  0.00    -0.197 NA
ATOM     14  C   UNL     1       1.409  -4.032  -0.909  0.00  0.00    +0.214 A 
ATOM     15  O   UNL     1       0.249  -4.109  -1.573  0.00  0.00    -0.340 OA
ATOM     16  N   UNL     1      -0.174  -2.771  -1.790  0.00  0.00    -0.061 NA
BRANCH  12  17
ATOM     17  C   UNL     1       0.718  -0.497  -1.257  0.00  0.00    +0.079 C 
BRANCH  17  19
ATOM     18  C   UNL     1      -0.019   1.526   0.010  0.00  0.00    +0.004 C 
ATOM     19  C   UNL     1       0.002  -0.004   0.002  0.00  0.00    +0.004 C 
ENDBRANCH  17  19
ENDBRANCH  12  17
ENDBRANCH   1  14
TORSDOF 5
