REMARK  Name = ZINC03313488
REMARK  7 active torsions:
REMARK  status: ('A' for Active; 'I' for Inactive)
REMARK    1  A    between atoms: C_5  and  N_7
REMARK    2  A    between atoms: N_12  and  C_15
REMARK    3  A    between atoms: C_15  and  C_16
REMARK    4  A    between atoms: C_16  and  C_17
REMARK    5  A    between atoms: C_17  and  O_19
REMARK    6  A    between atoms: O_19  and  C_20
REMARK    7  A    between atoms: C_20  and  C_21
REMARK                            x       y       z     vdW  Elec       q    Type
REMARK                         _______ _______ _______ _____ _____    ______ ____
ROOT
ATOM      1  C   UNL     1       1.780   3.819   1.448  0.00  0.00    +0.140 C 
ENDROOT
BRANCH   1   2
ATOM      2  C   UNL     1       2.172   5.274   1.451  0.00  0.00    +0.309 C 
ATOM      3  O   UNL     1       2.319   5.863   0.406  0.00  0.00    -0.251 OA
BRANCH   2   4
ATOM      4  O   UNL     1       2.358   5.916   2.615  0.00  0.00    -0.458 OA
BRANCH   4   5
ATOM      5  C   UNL     1       2.735   7.317   2.543  0.00  0.00    +0.287 C 
BRANCH   5   6
ATOM      6  C   UNL     1       2.899   7.866   3.937  0.00  0.00    +0.086 A 
ATOM      7  C   UNL     1       4.142   8.282   4.373  0.00  0.00    +0.097 A 
ATOM      8  C   UNL     1       4.268   8.793   5.670  0.00  0.00    +0.259 A 
ATOM      9  O   UNL     1       5.351   9.174   6.083  0.00  0.00    -0.267 OA
ATOM     10  N   UNL     1       3.173   8.854   6.457  0.00  0.00    -0.267 N 
ATOM     11  C   UNL     1       3.280   9.345   7.723  0.00  0.00    +0.111 A 
ATOM     12  C   UNL     1       2.197   9.417   8.531  0.00  0.00    +0.035 A 
ATOM     13  C   UNL     1       0.946   8.982   8.071  0.00  0.00    +0.020 A 
ATOM     14  C   UNL     1       0.829   8.490   6.806  0.00  0.00    +0.048 A 
ATOM     15  C   UNL     1       1.966   8.424   5.981  0.00  0.00    +0.141 A 
ATOM     16  N   UNL     1       1.853   7.944   4.744  0.00  0.00    -0.231 NA
ATOM     17 BR   UNL     1       2.372  10.103  10.285  0.00  0.00    -0.049 Br
ENDBRANCH   5   6
ENDBRANCH   4   5
ENDBRANCH   2   4
ENDBRANCH   1   2
BRANCH   1  18
ATOM     18  C   UNL     1       1.633   3.334   0.004  0.00  0.00    +0.128 C 
BRANCH  18  27
ATOM     19  C   UNL     1      -0.609  -2.322  -0.005  0.00  0.00    +0.003 A 
ATOM     20  C   UNL     1      -0.976  -0.985   0.006  0.00  0.00    +0.014 A 
ATOM     21  C   UNL     1       0.002  -0.004   0.002  0.00  0.00    +0.052 A 
ATOM     22  C   UNL     1       1.363  -0.371  -0.013  0.00  0.00    +0.080 A 
ATOM     23  C   UNL     1       1.715  -1.711  -0.024  0.00  0.00    +0.139 A 
ATOM     24  C   UNL     1       0.725  -2.682  -0.020  0.00  0.00    +0.033 A 
ATOM     25  C   UNL     1       2.124   0.896  -0.013  0.00  0.00    +0.256 C 
ATOM     26  O   UNL     1       3.334   0.997  -0.024  0.00  0.00    -0.269 OA
ATOM     27  N   UNL     1       1.251   1.920   0.000  0.00  0.00    -0.234 N 
ATOM     28  C   UNL     1      -0.018   1.474   0.010  0.00  0.00    +0.254 C 
ATOM     29  O   UNL     1      -1.014   2.169   0.019  0.00  0.00    -0.270 OA
BRANCH  23  30
ATOM     30  N   UNL     1       3.142  -2.104  -0.038  0.00  0.00    +0.057 N 
ATOM     31  O   UNL     1       3.449  -3.283  -0.048  0.00  0.00    -0.126 OA
ATOM     32  O   UNL     1       4.010  -1.249  -0.041  0.00  0.00    -0.126 OA
ENDBRANCH  23  30
ENDBRANCH  18  27
ENDBRANCH   1  18
TORSDOF 7
