REMARK  Name = ZINC67221604
REMARK  9 active torsions:
REMARK  status: ('A' for Active; 'I' for Inactive)
REMARK    1  A    between atoms: C_1  and  C_2
REMARK    2  A    between atoms: C_4  and  C_7
REMARK    3  A    between atoms: C_7  and  O_8
REMARK    4  A    between atoms: O_8  and  C_9
REMARK    5  A    between atoms: C_9  and  C_11
REMARK    6  A    between atoms: C_11  and  C_12
REMARK    7  A    between atoms: C_15  and  C_22
REMARK    8  A    between atoms: C_18  and  C_20
REMARK    9  A    between atoms: C_18  and  C_21
REMARK                            x       y       z     vdW  Elec       q    Type
REMARK                         _______ _______ _______ _____ _____    ______ ____
ROOT
ATOM      1  C   UNL     1       1.575  -4.590  -2.841  0.00  0.00    +0.308 C 
ATOM      2  O   UNL     1       0.622  -5.176  -3.299  0.00  0.00    -0.251 OA
ENDROOT
BRANCH   1   3
ATOM      3  O   UNL     1       1.389  -3.558  -2.003  0.00  0.00    -0.455 OA
BRANCH   3   4
ATOM      4  C   UNL     1       0.038  -3.206  -1.697  0.00  0.00    +0.330 C 
BRANCH   4   8
ATOM      5  C   UNL     1      -0.018   1.503   0.010  0.00  0.00    +0.091 C 
ATOM      6  C   UNL     1       0.002  -0.004   0.002  0.00  0.00    +0.169 A 
ATOM      7  N   UNL     1       0.008  -0.776  -1.091  0.00  0.00    -0.193 NA
ATOM      8  C   UNL     1       0.026  -2.034  -0.750  0.00  0.00    +0.265 A 
ATOM      9  O   UNL     1       0.033  -2.107   0.587  0.00  0.00    -0.334 OA
ATOM     10  N   UNL     1       0.023  -0.767   1.057  0.00  0.00    -0.061 NA
ENDBRANCH   4   8
ENDBRANCH   3   4
ENDBRANCH   1   3
BRANCH   1  11
ATOM     11  C   UNL     1       2.971  -5.019  -3.209  0.00  0.00    +0.124 C 
BRANCH  11  12
ATOM     12  C   UNL     1       2.903  -6.211  -4.172  0.00  0.00    +0.000 C 
ATOM     13  C   UNL     1       2.298  -7.409  -3.442  0.00  0.00    +0.007 C 
ATOM     14  C   UNL     1       2.213  -8.616  -4.366  0.00  0.00    -0.013 C 
ATOM     15  C   UNL     1       3.527  -8.936  -5.049  0.00  0.00    +0.009 C 
ATOM     16  C   UNL     1       4.292  -7.744  -5.598  0.00  0.00    -0.034 C 
ATOM     17  C   UNL     1       4.316  -6.571  -4.625  0.00  0.00    +0.010 C 
ATOM     18  C   UNL     1       5.752  -8.184  -5.841  0.00  0.00    +0.011 C 
ATOM     19  C   UNL     1       3.718  -7.296  -6.945  0.00  0.00    +0.011 C 
ATOM     20  C   UNL     1       1.078  -8.444  -5.374  0.00  0.00    +0.007 C 
ENDBRANCH  11  12
ENDBRANCH   1  11
TORSDOF 5
