REMARK  Name = ZINC42597907
REMARK  4 active torsions:
REMARK  status: ('A' for Active; 'I' for Inactive)
REMARK    1  A    between atoms: C_3  and  N_9
REMARK    2  A    between atoms: N_9  and  S_10
REMARK    3  A    between atoms: S_10  and  C_13
REMARK    4  A    between atoms: C_18  and  N_19
REMARK                            x       y       z     vdW  Elec       q    Type
REMARK                         _______ _______ _______ _____ _____    ______ ____
ROOT
ATOM      1  S   UNL     1       5.026   1.319   0.086  0.00  0.00    +0.096 S 
ATOM      2  O   UNL     1       5.016   0.633   1.330  0.00  0.00    -0.148 OA
ATOM      3  O   UNL     1       5.209   0.648  -1.153  0.00  0.00    -0.148 OA
ENDROOT
BRANCH   1   4
ATOM      4  C   UNL     1       6.295   2.537   0.192  0.00  0.00    +0.166 A 
ATOM      5  C   UNL     1       7.138   2.754   1.285  0.00  0.00    +0.133 A 
ATOM      6  N   UNL     1       7.948   3.739   0.991  0.00  0.00    -0.304 N 
ATOM      7  H   UNL     1       8.095   4.906  -0.775  0.00  0.00    +0.188 HD
ATOM      8  N   UNL     1       7.649   4.185  -0.302  0.00  0.00    -0.286 N 
ATOM      9  C   UNL     1       6.633   3.430  -0.779  0.00  0.00    +0.137 A 
ATOM     10  H   UNL     1       8.638   4.098   1.570  0.00  0.00    +0.186 HD
BRANCH   9  11
ATOM     11  N   UNL     1       6.039   3.546  -2.032  0.00  0.00    -0.342 N 
ATOM     12  H   UNL     1       5.311   2.956  -2.281  0.00  0.00    +0.144 HD
ATOM     13  H   UNL     1       6.353   4.218  -2.657  0.00  0.00    +0.144 HD
ENDBRANCH   9  11
ENDBRANCH   1   4
BRANCH   1  14
ATOM     14  N   UNL     1       3.583   2.125  -0.021  0.00  0.00    -0.097 NA
BRANCH  14  17
ATOM     15  C   UNL     1       1.211  -0.682  -0.089  0.00  0.00    +0.017 A 
ATOM     16  C   UNL     1       2.399   0.022  -0.082  0.00  0.00    +0.029 A 
ATOM     17  C   UNL     1       2.382   1.409  -0.029  0.00  0.00    +0.088 A 
ATOM     18  C   UNL     1       1.168   2.085   0.017  0.00  0.00    +0.043 A 
ATOM     19  C   UNL     1      -0.017   1.375   0.009  0.00  0.00    +0.032 A 
ATOM     20  C   UNL     1       0.004  -0.007  -0.044  0.00  0.00    +0.019 A 
ATOM     21 BR   UNL     1      -1.620  -0.976  -0.054  0.00  0.00    -0.050 Br
ATOM     22 BR   UNL     1       1.139   3.975   0.090  0.00  0.00    -0.048 Br
ENDBRANCH  14  17
ENDBRANCH   1  14
TORSDOF 4
