REMARK  Name = ZINC22109899
REMARK  11 active torsions:
REMARK  status: ('A' for Active; 'I' for Inactive)
REMARK    1  A    between atoms: C_1  and  C_2
REMARK    2  A    between atoms: C_2  and  C_3
REMARK    3  A    between atoms: C_3  and  C_4
REMARK    4  A    between atoms: N_8  and  N_9
REMARK    5  A    between atoms: N_9  and  C_10
REMARK    6  A    between atoms: C_10  and  C_11
REMARK    7  A    between atoms: C_13  and  O_28
REMARK    8  A    between atoms: C_14  and  O_18
REMARK    9  A    between atoms: O_18  and  C_19
REMARK   10  A    between atoms: C_19  and  C_20
REMARK   11  A    between atoms: O_28  and  C_29
REMARK                            x       y       z     vdW  Elec       q    Type
REMARK                         _______ _______ _______ _____ _____    ______ ____
ROOT
ATOM      1  C   UNL     1       1.228  -2.064  -0.021  0.00  0.00    -0.024 A 
ATOM      2  C   UNL     1       1.210  -0.682  -0.019  0.00  0.00    +0.054 A 
ATOM      3  C   UNL     1       0.002  -0.004   0.002  0.00  0.00    +0.163 A 
ATOM      4  C   UNL     1      -1.193  -0.718   0.010  0.00  0.00    +0.181 A 
ATOM      5  C   UNL     1      -1.168  -2.103   0.002  0.00  0.00    +0.086 A 
ATOM      6  C   UNL     1       0.042  -2.774  -0.013  0.00  0.00    +0.029 A 
ATOM      7 CL   UNL     1      -2.656  -2.998   0.012  0.00  0.00    -0.080 Cl
ENDROOT
BRANCH   3   8
ATOM      8  O   UNL     1      -0.016   1.356   0.009  0.00  0.00    -0.491 OA
ATOM      9  C   UNL     1       1.248   2.022   0.001  0.00  0.00    +0.277 C 
ENDBRANCH   3   8
BRANCH   1  10
ATOM     10  C   UNL     1       2.544  -2.799  -0.038  0.00  0.00    +0.156 C 
BRANCH  10  11
ATOM     11  N   UNL     1       2.957  -3.031  -1.429  0.00  0.00    -0.277 N 
ATOM     12  H   UNL     1       2.325  -2.678  -2.256  0.00  0.00    +0.167 HD
BRANCH  11  17
ATOM     13  C   UNL     1       4.391  -4.913  -2.056  0.00  0.00    +0.149 A 
ATOM     14  N   UNL     1       5.654  -5.180  -1.883  0.00  0.00    -0.157 NA
ATOM     15  N   UNL     1       6.223  -4.223  -1.241  0.00  0.00    -0.253 N 
ATOM     16  C   UNL     1       5.347  -3.283  -0.973  0.00  0.00    +0.193 A 
ATOM     17  N   UNL     1       4.149  -3.697  -1.480  0.00  0.00    -0.226 N 
ATOM     18  S   UNL     1       5.658  -1.774  -0.118  0.00  0.00    -0.010 S 
ATOM     19  H   UNL     1       7.295  -4.282  -1.002  0.00  0.00    +0.191 HD
BRANCH  13  20
ATOM     20  C   UNL     1       3.382  -5.784  -2.760  0.00  0.00    +0.077 C 
BRANCH  20  22
ATOM     21  C   UNL     1       2.327  -6.310  -4.963  0.00  0.00    +0.004 C 
ATOM     22  C   UNL     1       3.350  -5.426  -4.248  0.00  0.00    +0.004 C 
ENDBRANCH  20  22
ENDBRANCH  13  20
ENDBRANCH  11  17
ENDBRANCH  10  11
ENDBRANCH   1  10
BRANCH   4  23
ATOM     23  O   UNL     1      -2.381  -0.057   0.025  0.00  0.00    -0.482 OA
BRANCH  23  24
ATOM     24  C   UNL     1      -2.961   0.266  -1.241  0.00  0.00    +0.266 C 
BRANCH  24  25
ATOM     25  C   UNL     1      -4.264   0.991  -1.027  0.00  0.00    +0.008 A 
ATOM     26  C   UNL     1      -4.713   1.240   0.257  0.00  0.00    +0.010 A 
ATOM     27  C   UNL     1      -5.909   1.906   0.454  0.00  0.00    +0.020 A 
ATOM     28  C   UNL     1      -6.657   2.322  -0.633  0.00  0.00    +0.042 A 
ATOM     29  C   UNL     1      -6.208   2.073  -1.917  0.00  0.00    +0.040 A 
ATOM     30  C   UNL     1      -5.008   1.412  -2.114  0.00  0.00    +0.049 A 
ATOM     31 CL   UNL     1      -4.441   1.104  -3.726  0.00  0.00    -0.083 Cl
ATOM     32 CL   UNL     1      -8.158   3.157  -0.385  0.00  0.00    -0.083 Cl
ENDBRANCH  24  25
ENDBRANCH  23  24
ENDBRANCH   4  23
TORSDOF 9
