REMARK  Name = ZINC31671857
REMARK  10 active torsions:
REMARK  status: ('A' for Active; 'I' for Inactive)
REMARK    1  A    between atoms: C_1  and  C_2
REMARK    2  A    between atoms: C_2  and  C_3
REMARK    3  A    between atoms: C_3  and  C_4
REMARK    4  A    between atoms: C_3  and  C_5
REMARK    5  A    between atoms: C_3  and  C_6
REMARK    6  A    between atoms: C_13  and  N_17
REMARK    7  A    between atoms: C_14  and  C_15
REMARK    8  A    between atoms: C_18  and  C_20
REMARK    9  A    between atoms: C_20  and  N_21
REMARK   10  A    between atoms: C_23  and  N_28
REMARK                            x       y       z     vdW  Elec       q    Type
REMARK                         _______ _______ _______ _____ _____    ______ ____
ROOT
ATOM      1  C   UNL     1       0.901  -0.519   1.130  0.00  0.00    -0.000 C 
ATOM      2  C   UNL     1       0.002  -0.004   0.002  0.00  0.00    +0.009 C 
ATOM      3  C   UNL     1      -0.019   1.526   0.010  0.00  0.00    +0.037 C 
ATOM      4  C   UNL     1       1.417   2.035  -0.001  0.00  0.00    -0.018 A 
ATOM      5  C   UNL     1       2.444   1.230   0.351  0.00  0.00    -0.004 A 
ATOM      6  S   UNL     1       3.888   2.241   0.186  0.00  0.00    -0.077 S 
ATOM      7  C   UNL     1       3.140   3.712  -0.341  0.00  0.00    +0.090 A 
ATOM      8  C   UNL     1       1.792   3.387  -0.377  0.00  0.00    +0.084 A 
ATOM      9  C   UNL     1       2.362  -0.202   0.782  0.00  0.00    +0.047 C 
ENDROOT
BRANCH   7  10
ATOM     10  N   UNL     1       3.743   4.923  -0.652  0.00  0.00    -0.277 N 
ATOM     11  C   UNL     1       5.081   5.053  -0.557  0.00  0.00    +0.237 C 
ATOM     12  O   UNL     1       5.758   4.113  -0.199  0.00  0.00    -0.273 OA
ATOM     13  H   UNL     1       3.129   5.776  -0.976  0.00  0.00    +0.155 HD
BRANCH  11  14
ATOM     14  C   UNL     1       5.736   6.368  -0.894  0.00  0.00    +0.220 C 
BRANCH  14  15
ATOM     15  N   UNL     1       7.185   6.253  -0.713  0.00  0.00    -0.304 N 
ATOM     16  C   UNL     1       7.736   6.550   0.492  0.00  0.00    +0.122 A 
ATOM     17  C   UNL     1       9.072   6.446   0.686  0.00  0.00    +0.142 A 
ATOM     18  C   UNL     1       9.902   6.038  -0.368  0.00  0.00    +0.039 A 
ATOM     19  C   UNL     1       9.347   5.745  -1.579  0.00  0.00    +0.072 A 
ATOM     20  C   UNL     1       7.956   5.858  -1.744  0.00  0.00    +0.252 A 
ATOM     21  O   UNL     1       7.447   5.599  -2.822  0.00  0.00    -0.268 OA
BRANCH  17  22
ATOM     22  N   UNL     1       9.656   6.767   2.007  0.00  0.00    +0.058 N 
ATOM     23  O   UNL     1       8.934   7.121   2.922  0.00  0.00    -0.126 OA
ATOM     24  O   UNL     1      10.858   6.678   2.180  0.00  0.00    -0.126 OA
ENDBRANCH  17  22
ENDBRANCH  14  15
ENDBRANCH  11  14
ENDBRANCH   7  10
BRANCH   1  25
ATOM     25  C   UNL     1       0.725  -2.032   1.275  0.00  0.00    -0.032 C 
ATOM     26  C   UNL     1      -0.736  -2.347   1.605  0.00  0.00    +0.011 C 
ATOM     27  C   UNL     1       1.111  -2.719  -0.036  0.00  0.00    +0.011 C 
BRANCH  25  29
ATOM     28  C   UNL     1       1.448  -4.057   2.548  0.00  0.00    +0.004 C 
ATOM     29  C   UNL     1       1.624  -2.544   2.403  0.00  0.00    +0.003 C 
ENDBRANCH  25  29
ENDBRANCH   1  25
BRANCH   8  30
ATOM     30  C   UNL     1       0.807   4.348  -0.771  0.00  0.00    +0.102 C 
ATOM     31  N   UNL     1       0.025   5.111  -1.083  0.00  0.00    -0.191 NA
ENDBRANCH   8  30
TORSDOF 7
