REMARK  Name = ZINC30970916
REMARK  6 active torsions:
REMARK  status: ('A' for Active; 'I' for Inactive)
REMARK    1  A    between atoms: C_1  and  C_2
REMARK    2  A    between atoms: C_2  and  N_3
REMARK    3  A    between atoms: C_4  and  S_8
REMARK    4  A    between atoms: S_8  and  C_9
REMARK    5  A    between atoms: C_9  and  C_10
REMARK    6  A    between atoms: C_18  and  C_21
REMARK                            x       y       z     vdW  Elec       q    Type
REMARK                         _______ _______ _______ _____ _____    ______ ____
ROOT
ATOM      1  C   UNL     1       1.352   6.294   2.688  0.00  0.00    +0.059 A 
ATOM      2  C   UNL     1       0.876   7.503   2.219  0.00  0.00    +0.094 A 
ATOM      3  C   UNL     1       1.764   8.578   2.096  0.00  0.00    +0.259 A 
ATOM      4  O   UNL     1       1.374   9.660   1.686  0.00  0.00    -0.267 OA
ATOM      5  N   UNL     1       3.057   8.401   2.440  0.00  0.00    -0.268 N 
ATOM      6  C   UNL     1       3.933   9.437   2.326  0.00  0.00    +0.096 A 
ATOM      7  C   UNL     1       5.233   9.284   2.664  0.00  0.00    +0.019 A 
ATOM      8  C   UNL     1       5.697   8.048   3.137  0.00  0.00    +0.008 A 
ATOM      9  C   UNL     1       4.829   7.005   3.254  0.00  0.00    -0.008 A 
ATOM     10  C   UNL     1       3.479   7.184   2.899  0.00  0.00    +0.143 A 
ATOM     11  N   UNL     1       2.628   6.167   3.018  0.00  0.00    -0.233 NA
ATOM     12  C   UNL     1       5.309   5.669   3.761  0.00  0.00    +0.047 C 
ENDROOT
BRANCH   1  13
ATOM     13  C   UNL     1       0.417   5.120   2.830  0.00  0.00    +0.133 C 
BRANCH  13  14
ATOM     14  S   UNL     1       0.723   3.940   1.492  0.00  0.00    -0.078 S 
BRANCH  14  16
ATOM     15  N   UNL     1      -0.698   1.558   1.213  0.00  0.00    -0.220 N 
ATOM     16  C   UNL     1      -0.470   2.708   1.892  0.00  0.00    +0.210 A 
ATOM     17  N   UNL     1      -1.310   2.732   2.904  0.00  0.00    -0.102 NA
ATOM     18  N   UNL     1      -2.039   1.675   2.909  0.00  0.00    -0.022 NA
ATOM     19  N   UNL     1      -1.730   0.913   1.917  0.00  0.00    -0.043 NA
BRANCH  15  21
ATOM     20  C   UNL     1      -0.753   1.593  -1.232  0.00  0.00    +0.029 C 
ATOM     21  C   UNL     1      -0.013   1.086   0.008  0.00  0.00    +0.145 C 
ENDBRANCH  15  21
ENDBRANCH  14  16
ENDBRANCH  13  14
ENDBRANCH   1  13
TORSDOF 4
