REMARK  Name = ZINC40981018
REMARK  15 active torsions:
REMARK  status: ('A' for Active; 'I' for Inactive)
REMARK    1  A    between atoms: C_1  and  C_2
REMARK    2  A    between atoms: C_2  and  C_3
REMARK    3  A    between atoms: C_3  and  S_4
REMARK    4  A    between atoms: S_4  and  C_5
REMARK    5  A    between atoms: C_10  and  C_20
REMARK    6  A    between atoms: C_12  and  C_16
REMARK    7  A    between atoms: C_13  and  C_15
REMARK    8  A    between atoms: C_16  and  O_18
REMARK    9  A    between atoms: O_18  and  C_19
REMARK   10  A    between atoms: C_23  and  O_29
REMARK   11  A    between atoms: C_24  and  O_26
REMARK   12  A    between atoms: O_26  and  C_27
REMARK   13  A    between atoms: C_27  and  C_28
REMARK   14  A    between atoms: O_29  and  C_30
REMARK   15  A    between atoms: C_30  and  C_31
REMARK                            x       y       z     vdW  Elec       q    Type
REMARK                         _______ _______ _______ _____ _____    ______ ____
ROOT
ATOM      1  C   UNL     1       1.998  -2.758  -2.554  0.00  0.00    +0.210 A 
ATOM      2  N   UNL     1       2.442  -1.866  -3.452  0.00  0.00    -0.187 NA
ATOM      3  C   UNL     1       2.831  -2.489  -4.531  0.00  0.00    +0.219 A 
ATOM      4  N   UNL     1       2.636  -3.818  -4.343  0.00  0.00    -0.220 N 
ATOM      5  N   UNL     1       2.107  -3.967  -3.062  0.00  0.00    -0.141 NA
ATOM      6  C   UNL     1       2.950  -4.830  -5.348  0.00  0.00    +0.179 C 
ATOM      7  C   UNL     1       3.772  -4.209  -6.446  0.00  0.00    +0.082 C 
ATOM      8  C   UNL     1       3.933  -2.883  -6.579  0.00  0.00    +0.020 C 
ATOM      9  N   UNL     1       3.364  -1.986  -5.710  0.00  0.00    -0.287 N 
ATOM     10  C   UNL     1       4.766  -2.362  -7.721  0.00  0.00    +0.061 C 
ATOM     11  H   UNL     1       3.336  -1.038  -5.911  0.00  0.00    +0.155 HD
ENDROOT
BRANCH   6  12
ATOM     12  C   UNL     1       1.670  -5.378  -5.926  0.00  0.00    -0.015 A 
ATOM     13  C   UNL     1       0.789  -4.532  -6.574  0.00  0.00    +0.010 A 
ATOM     14  C   UNL     1      -0.386  -5.029  -7.106  0.00  0.00    +0.050 A 
ATOM     15  C   UNL     1      -0.682  -6.378  -6.992  0.00  0.00    +0.162 A 
ATOM     16  C   UNL     1       0.205  -7.229  -6.340  0.00  0.00    +0.162 A 
ATOM     17  C   UNL     1       1.383  -6.725  -5.813  0.00  0.00    +0.055 A 
BRANCH  16  18
ATOM     18  O   UNL     1      -0.082  -8.553  -6.226  0.00  0.00    -0.489 OA
BRANCH  18  19
ATOM     19  C   UNL     1       0.875  -9.367  -5.544  0.00  0.00    +0.226 C 
ATOM     20  C   UNL     1       0.384 -10.816  -5.514  0.00  0.00    +0.048 C 
ENDBRANCH  18  19
ENDBRANCH  16  18
BRANCH  15  21
ATOM     21  O   UNL     1      -1.838  -6.868  -7.515  0.00  0.00    -0.484 OA
BRANCH  21  22
ATOM     22  C   UNL     1      -2.701  -5.936  -8.169  0.00  0.00    +0.264 C 
BRANCH  22  23
ATOM     23  C   UNL     1      -3.923  -6.656  -8.680  0.00  0.00    -0.010 A 
ATOM     24  C   UNL     1      -3.921  -7.202  -9.950  0.00  0.00    +0.008 A 
ATOM     25  C   UNL     1      -5.041  -7.862 -10.420  0.00  0.00    +0.020 A 
ATOM     26  C   UNL     1      -6.163  -7.977  -9.619  0.00  0.00    +0.041 A 
ATOM     27  C   UNL     1      -6.164  -7.430  -8.348  0.00  0.00    +0.020 A 
ATOM     28  C   UNL     1      -5.041  -6.775  -7.877  0.00  0.00    +0.008 A 
ATOM     29 CL   UNL     1      -7.570  -8.806 -10.208  0.00  0.00    -0.084 Cl
ENDBRANCH  22  23
ENDBRANCH  21  22
ENDBRANCH  15  21
ENDBRANCH   6  12
BRANCH   7  30
ATOM     30  C   UNL     1       4.403  -5.061  -7.379  0.00  0.00    +0.339 C 
ATOM     31  O   UNL     1       5.388  -5.696  -7.053  0.00  0.00    -0.245 OA
BRANCH  30  32
ATOM     32  O   UNL     1       3.912  -5.172  -8.632  0.00  0.00    -0.465 OA
ATOM     33  C   UNL     1       4.600  -6.052  -9.523  0.00  0.00    +0.280 C 
ENDBRANCH  30  32
ENDBRANCH   7  30
BRANCH   1  34
ATOM     34  S   UNL     1       1.376  -2.374  -0.951  0.00  0.00    -0.084 S 
BRANCH  34  35
ATOM     35  C   UNL     1       1.485  -0.566  -0.860  0.00  0.00    +0.077 C 
BRANCH  35  37
ATOM     36  C   UNL     1       1.062   1.434   0.578  0.00  0.00    +0.004 C 
ATOM     37  C   UNL     1       0.970  -0.091   0.500  0.00  0.00    +0.008 C 
ENDBRANCH  35  37
ENDBRANCH  34  35
ENDBRANCH   1  34
TORSDOF 11
