REMARK  Name = ZINC64565350
REMARK  10 active torsions:
REMARK  status: ('A' for Active; 'I' for Inactive)
REMARK    1  A    between atoms: C_1  and  C_2
REMARK    2  A    between atoms: C_2  and  O_3
REMARK    3  A    between atoms: O_3  and  C_4
REMARK    4  A    between atoms: C_7  and  C_12
REMARK    5  A    between atoms: C_9  and  O_10
REMARK    6  A    between atoms: O_10  and  C_11
REMARK    7  A    between atoms: C_14  and  C_17
REMARK    8  A    between atoms: C_17  and  N_18
REMARK    9  A    between atoms: N_25  and  C_28
REMARK   10  A    between atoms: C_31  and  C_35
REMARK                            x       y       z     vdW  Elec       q    Type
REMARK                         _______ _______ _______ _____ _____    ______ ____
ROOT
ATOM      1  N   UNL     1       1.703  -9.684  -0.579  0.00  0.00    -0.214 N 
ATOM      2  C   UNL     1       2.730 -10.561   0.012  0.00  0.00    +0.216 C 
ATOM      3  C   UNL     1       3.623 -10.893  -1.215  0.00  0.00    +0.246 C 
ATOM      4  C   UNL     1       4.940 -10.232  -0.876  0.00  0.00    +0.255 C 
ATOM      5  O   UNL     1       5.932 -10.250  -1.572  0.00  0.00    -0.272 OA
ATOM      6  N   UNL     1       4.840  -9.624   0.312  0.00  0.00    -0.207 N 
ATOM      7  C   UNL     1       3.629  -9.748   0.914  0.00  0.00    +0.251 C 
ATOM      8  O   UNL     1       3.312  -9.287   1.990  0.00  0.00    -0.273 OA
ATOM      9  N   UNL     1       2.969 -10.186  -2.323  0.00  0.00    -0.156 NA
ATOM     10  N   UNL     1       1.984  -9.564  -1.940  0.00  0.00    -0.082 NA
ENDROOT
BRANCH   6  11
ATOM     11  C   UNL     1       5.902  -8.921   0.896  0.00  0.00    +0.045 A 
ATOM     12  C   UNL     1       6.356  -7.742   0.319  0.00  0.00    +0.024 A 
ATOM     13  C   UNL     1       7.403  -7.050   0.896  0.00  0.00    +0.006 A 
ATOM     14  C   UNL     1       7.999  -7.529   2.048  0.00  0.00    -0.032 A 
ATOM     15  C   UNL     1       7.550  -8.704   2.625  0.00  0.00    +0.046 A 
ATOM     16  C   UNL     1       6.499  -9.398   2.054  0.00  0.00    +0.044 A 
ATOM     17 CL   UNL     1       8.302  -9.303   4.070  0.00  0.00    -0.083 Cl
ATOM     18  C   UNL     1       9.142  -6.772   2.675  0.00  0.00    +0.045 C 
ENDBRANCH   6  11
BRANCH   1  19
ATOM     19  C   UNL     1       0.586  -9.057   0.133  0.00  0.00    +0.227 C 
BRANCH  19  22
ATOM     20  C   UNL     1       1.380  -5.570   0.752  0.00  0.00    +0.202 A 
ATOM     21  N   UNL     1       0.902  -6.579   0.001  0.00  0.00    -0.190 NA
ATOM     22  C   UNL     1       1.012  -7.705   0.645  0.00  0.00    +0.247 A 
ATOM     23  O   UNL     1       1.568  -7.460   1.838  0.00  0.00    -0.336 OA
ATOM     24  N   UNL     1       1.806  -6.061   1.890  0.00  0.00    -0.056 NA
BRANCH  20  28
ATOM     25  C   UNL     1       1.499  -1.471  -0.389  0.00  0.00    +0.162 A 
ATOM     26  C   UNL     1       0.974  -2.418  -1.256  0.00  0.00    +0.050 A 
ATOM     27  C   UNL     1       0.935  -3.747  -0.888  0.00  0.00    +0.015 A 
ATOM     28  C   UNL     1       1.423  -4.141   0.356  0.00  0.00    +0.026 A 
ATOM     29  C   UNL     1       1.950  -3.191   1.229  0.00  0.00    +0.061 A 
ATOM     30  C   UNL     1       1.993  -1.860   0.854  0.00  0.00    +0.162 A 
BRANCH  30  31
ATOM     31  O   UNL     1       2.512  -0.931   1.701  0.00  0.00    -0.491 OA
ATOM     32  C   UNL     1       3.000  -1.401   2.959  0.00  0.00    +0.277 C 
ENDBRANCH  30  31
BRANCH  25  33
ATOM     33  O   UNL     1       1.536  -0.163  -0.754  0.00  0.00    -0.489 OA
BRANCH  33  35
ATOM     34  C   UNL     1       1.140   1.673  -2.276  0.00  0.00    +0.048 C 
ATOM     35  C   UNL     1       1.013   0.166  -2.043  0.00  0.00    +0.226 C 
ENDBRANCH  33  35
ENDBRANCH  25  33
ENDBRANCH  20  28
ENDBRANCH  19  22
ENDBRANCH   1  19
TORSDOF 7
