REMARK  Name = ZINC13297902
REMARK  13 active torsions:
REMARK  status: ('A' for Active; 'I' for Inactive)
REMARK    1  A    between atoms: C_1  and  C_2
REMARK    2  A    between atoms: C_2  and  C_3
REMARK    3  A    between atoms: C_7  and  C_38
REMARK    4  A    between atoms: C_8  and  N_9
REMARK    5  A    between atoms: C_10  and  C_12
REMARK    6  A    between atoms: C_12  and  S_13
REMARK    7  A    between atoms: S_13  and  C_14
REMARK    8  A    between atoms: C_15  and  C_36
REMARK    9  A    between atoms: C_16  and  C_28
REMARK   10  A    between atoms: C_22  and  C_26
REMARK   11  A    between atoms: C_22  and  C_27
REMARK   12  A    between atoms: C_31  and  O_34
REMARK   13  A    between atoms: O_34  and  C_35
REMARK                            x       y       z     vdW  Elec       q    Type
REMARK                         _______ _______ _______ _____ _____    ______ ____
ROOT
ATOM      1  C   UNL     1       7.351  -0.049   2.553  0.00  0.00    +0.080 C 
ATOM      2  C   UNL     1       8.685  -0.235   2.744  0.00  0.00    +0.069 C 
ATOM      3  C   UNL     1       9.336   0.115   4.050  0.00  0.00    +0.097 C 
ATOM      4  C   UNL     1       8.466   1.042   4.861  0.00  0.00    +0.024 C 
ATOM      5  C   UNL     1       7.152   1.179   4.585  0.00  0.00    +0.016 C 
ATOM      6  N   UNL     1       6.578   0.482   3.559  0.00  0.00    -0.311 N 
ATOM      7  C   UNL     1       6.282   2.111   5.393  0.00  0.00    +0.058 C 
ATOM      8  C   UNL     1       6.809   2.194   6.827  0.00  0.00    -0.023 C 
ATOM      9  C   UNL     1       8.260   2.685   6.782  0.00  0.00    +0.086 C 
ATOM     10  C   UNL     1       9.064   1.756   5.914  0.00  0.00    +0.162 C 
ATOM     11  O   UNL     1      10.253   1.621   6.127  0.00  0.00    -0.292 OA
ATOM     12  C   UNL     1       5.958   3.178   7.631  0.00  0.00    +0.011 C 
ATOM     13  C   UNL     1       6.755   0.809   7.475  0.00  0.00    +0.011 C 
ATOM     14  H   UNL     1       5.616   0.359   3.542  0.00  0.00    +0.152 HD
ENDROOT
BRANCH   3  15
ATOM     15  C   UNL     1       9.578  -1.148   4.836  0.00  0.00    -0.034 A 
ATOM     16  C   UNL     1       8.513  -1.956   5.188  0.00  0.00    +0.008 A 
ATOM     17  C   UNL     1       8.732  -3.115   5.909  0.00  0.00    +0.046 A 
ATOM     18  C   UNL     1      10.021  -3.467   6.279  0.00  0.00    +0.120 A 
ATOM     19  C   UNL     1      11.088  -2.654   5.923  0.00  0.00    +0.046 A 
ATOM     20  C   UNL     1      10.865  -1.500   5.198  0.00  0.00    +0.008 A 
BRANCH  18  21
ATOM     21  O   UNL     1      10.239  -4.605   6.988  0.00  0.00    -0.495 OA
ATOM     22  C   UNL     1      11.593  -4.905   7.334  0.00  0.00    +0.277 C 
ENDBRANCH  18  21
ENDBRANCH   3  15
BRANCH   2  23
ATOM     23  C   UNL     1       9.480  -0.775   1.683  0.00  0.00    +0.098 C 
ATOM     24  N   UNL     1      10.111  -1.204   0.841  0.00  0.00    -0.191 NA
ENDBRANCH   2  23
BRANCH   1  25
ATOM     25  S   UNL     1       6.615  -0.480   1.011  0.00  0.00    -0.100 S 
BRANCH  25  26
ATOM     26  C   UNL     1       4.865  -0.052   1.226  0.00  0.00    +0.171 C 
BRANCH  26  28
ATOM     27  N   UNL     1       2.785  -0.140  -0.111  0.00  0.00    -0.284 N 
ATOM     28  C   UNL     1       4.111  -0.376  -0.038  0.00  0.00    +0.227 C 
ATOM     29  O   UNL     1       4.695  -0.849  -0.989  0.00  0.00    -0.275 OA
ATOM     30  H   UNL     1       2.330   0.300   0.625  0.00  0.00    +0.155 HD
BRANCH  27  36
ATOM     31  C   UNL     1       1.650   0.424  -2.166  0.00  0.00    -0.026 A 
ATOM     32  C   UNL     1       0.945   0.036  -3.289  0.00  0.00    +0.005 A 
ATOM     33  C   UNL     1       0.651  -1.299  -3.495  0.00  0.00    +0.001 A 
ATOM     34  C   UNL     1       1.060  -2.250  -2.579  0.00  0.00    +0.005 A 
ATOM     35  C   UNL     1       1.765  -1.869  -1.454  0.00  0.00    -0.029 A 
ATOM     36  C   UNL     1       2.067  -0.529  -1.246  0.00  0.00    +0.040 A 
ATOM     37  C   UNL     1       2.211  -2.906  -0.455  0.00  0.00    +0.045 C 
BRANCH  31  39
ATOM     38  C   UNL     1       3.369   2.183  -2.483  0.00  0.00    +0.009 C 
ATOM     39  C   UNL     1       1.970   1.880  -1.942  0.00  0.00    +0.033 C 
ENDBRANCH  31  39
ENDBRANCH  27  36
ENDBRANCH  26  28
ENDBRANCH  25  26
ENDBRANCH   1  25
TORSDOF 8
