REMARK  Name = ZINC09647498
REMARK  13 active torsions:
REMARK  status: ('A' for Active; 'I' for Inactive)
REMARK    1  A    between atoms: C_1  and  C_2
REMARK    2  A    between atoms: C_3  and  C_35
REMARK    3  A    between atoms: C_7  and  N_18
REMARK    4  A    between atoms: C_9  and  C_11
REMARK    5  A    between atoms: C_11  and  N_65
REMARK    6  A    between atoms: C_14  and  C_17
REMARK    7  A    between atoms: N_18  and  C_19
REMARK    8  A    between atoms: C_19  and  C_21
REMARK    9  A    between atoms: C_19  and  C_23
REMARK   10  A    between atoms: C_21  and  O_22
REMARK   11  A    between atoms: C_23  and  C_25
REMARK   12  A    between atoms: C_23  and  O_34
REMARK   13  A    between atoms: C_28  and  N_31
REMARK                            x       y       z     vdW  Elec       q    Type
REMARK                         _______ _______ _______ _____ _____    ______ ____
ROOT
ATOM      1  C   UNK A   0       2.360  -0.063  -3.501  0.00  0.00    +0.045 C 
ATOM      2  C   UNK A   0       1.896  -1.458  -3.829  0.00  0.00    -0.028 A 
ATOM      3  C   UNK A   0       2.364  -2.092  -4.914  0.00  0.00    -0.008 A 
ATOM      4  S   UNK A   0       1.536  -3.670  -4.865  0.00  0.00    -0.074 S 
ATOM      5  C   UNK A   0       0.582  -3.435  -3.389  0.00  0.00    +0.114 A 
ATOM      6  C   UNK A   0       0.931  -2.131  -2.976  0.00  0.00    +0.051 A 
ATOM      7  C   UNK A   0       0.301  -1.680  -1.784  0.00  0.00    +0.131 A 
ATOM      8  N   UNK A   0      -0.552  -2.479  -1.163  0.00  0.00    -0.219 NA
ATOM      9  C   UNK A   0      -0.836  -3.688  -1.611  0.00  0.00    +0.116 A 
ATOM     10  N   UNK A   0      -0.279  -4.165  -2.708  0.00  0.00    -0.227 NA
ATOM     11  C   UNK A   0       3.356  -1.590  -5.932  0.00  0.00    +0.052 C 
ENDROOT
BRANCH   7  12
ATOM     12  N   UNK A   1       0.572  -0.419  -1.282  0.00  0.00    -0.321 N 
ATOM     13  H   UNK A   1       1.125   0.196  -1.789  0.00  0.00    +0.148 HD
BRANCH  12  14
ATOM     14  C   UNK A   1       0.023  -0.013   0.014  0.00  0.00    +0.130 C 
BRANCH  14  15
ATOM     15  C   UNK A   1       0.948  -0.497   1.133  0.00  0.00    +0.181 C 
BRANCH  15  16
ATOM     16  O   UNK A   1       2.208   0.169   1.030  0.00  0.00    -0.393 OA
ATOM     17  H   UNK A   1       2.846  -0.089   1.710  0.00  0.00    +0.209 HD
ENDBRANCH  15  16
ENDBRANCH  14  15
BRANCH  14  18
ATOM     18  C   UNK A   1      -0.086   1.512   0.066  0.00  0.00    +0.167 C 
BRANCH  18  19
ATOM     19  C   UNK A   1      -0.997   1.988  -1.036  0.00  0.00    -0.017 A 
ATOM     20  C   UNK A   1      -0.517   2.107  -2.327  0.00  0.00    +0.008 A 
ATOM     21  C   UNK A   1      -1.354   2.539  -3.338  0.00  0.00    +0.033 A 
ATOM     22  C   UNK A   1      -2.668   2.862  -3.058  0.00  0.00    +0.126 A 
ATOM     23  C   UNK A   1      -3.147   2.749  -1.766  0.00  0.00    +0.033 A 
ATOM     24  C   UNK A   1      -2.312   2.312  -0.755  0.00  0.00    +0.008 A 
BRANCH  22  25
ATOM     25  N   UNK A   1      -3.563   3.330  -4.140  0.00  0.00    +0.056 N 
ATOM     26  O   UNK A   1      -4.721   3.615  -3.893  0.00  0.00    -0.126 OA
ATOM     27  O   UNK A   1      -3.141   3.429  -5.278  0.00  0.00    -0.126 OA
ENDBRANCH  22  25
ENDBRANCH  18  19
BRANCH  18  28
ATOM     28  O   UNK A   1       1.210   2.089  -0.104  0.00  0.00    -0.385 OA
ATOM     29  H   UNK A   1       1.634   1.862  -0.943  0.00  0.00    +0.210 HD
ENDBRANCH  18  28
ENDBRANCH  14  18
ENDBRANCH  12  14
ENDBRANCH   7  12
BRANCH   9  30
ATOM     30  C   UNK A   0      -1.817  -4.544  -0.851  0.00  0.00    -0.001 C 
BRANCH  30  37
ATOM     31  C   UNK A   0      -3.196  -4.299  -2.826  0.00  0.00    -0.078 C 
ATOM     32  C   UNK A   0      -4.589  -3.898  -3.316  0.00  0.00    -0.016 C 
ATOM     33  C   UNK A   0      -5.621  -4.890  -2.772  0.00  0.00    -0.018 C 
ATOM     34  C   UNK A   0      -5.545  -4.906  -1.243  0.00  0.00    -0.016 C 
ATOM     35  C   UNK A   0      -4.124  -5.278  -0.812  0.00  0.00    -0.078 C 
ATOM     36  C   UNK A   0      -7.023  -4.460  -3.209  0.00  0.00    +0.007 C 
ATOM     37  N   UNK A   0      -3.182  -4.272  -1.348  0.00  0.00    +0.384 N 
ATOM     38  H   UNK A   0      -3.473  -3.340  -1.029  0.00  0.00    -0.081 HD
ENDBRANCH  30  37
ENDBRANCH   9  30
TORSDOF 10
