REMARK  Name = ZINC27517149
REMARK  5 active torsions:
REMARK  status: ('A' for Active; 'I' for Inactive)
REMARK    1  A    between atoms: C_1  and  C_2
REMARK    2  A    between atoms: C_2  and  C_3
REMARK    3  A    between atoms: C_3  and  C_4
REMARK    4  A    between atoms: C_8  and  C_25
REMARK    5  A    between atoms: C_25  and  C_26
REMARK                            x       y       z     vdW  Elec       q    Type
REMARK                         _______ _______ _______ _____ _____    ______ ____
ROOT
ATOM      1  C   UNL     1       3.312   0.197  -0.020  0.00  0.00    +0.028 C 
ATOM      2  C   UNL     1       2.454   0.502  -1.260  0.00  0.00    -0.059 C 
ATOM      3  N   UNL     1       1.996   1.897  -1.202  0.00  0.00    +0.402 N 
ATOM      4  C   UNL     1       3.116   2.848  -1.257  0.00  0.00    -0.059 C 
ATOM      5  C   UNL     1       4.005   2.657  -0.017  0.00  0.00    +0.027 C 
ATOM      6  C   UNL     1       4.458   1.202  -0.031  0.00  0.00    +0.144 C 
ATOM      7  O   UNL     1       5.620   0.875  -0.050  0.00  0.00    -0.296 OA
ATOM      8  C   UNL     1       3.135   2.838   1.237  0.00  0.00    +0.096 C 
ATOM      9  N   UNL     1       2.013   1.889   1.193  0.00  0.00    -0.299 NA
ATOM     10  C   UNL     1       2.474   0.494   1.234  0.00  0.00    +0.096 C 
ATOM     11  C   UNL     1       1.189   2.125   0.002  0.00  0.00    +0.095 C 
ATOM     12  C   UNL     1       0.609   3.503   0.012  0.00  0.00    -0.013 A 
ATOM     13  C   UNL     1       1.204   4.746   0.011  0.00  0.00    +0.021 A 
ATOM     14  C   UNL     1       0.359   5.851   0.022  0.00  0.00    +0.018 A 
ATOM     15  C   UNL     1      -1.014   5.705   0.037  0.00  0.00    +0.017 A 
ATOM     16  C   UNL     1      -1.619   4.458   0.039  0.00  0.00    +0.024 A 
ATOM     17  C   UNL     1      -0.782   3.341   0.026  0.00  0.00    +0.037 A 
ATOM     18  N   UNL     1      -1.110   1.997   0.018  0.00  0.00    -0.285 N 
ATOM     19  C   UNL     1      -0.014   1.209   0.009  0.00  0.00    +0.225 C 
ATOM     20  O   UNL     1       0.002  -0.004   0.002  0.00  0.00    -0.275 OA
ATOM     21 BR   UNL     1       1.105   7.588   0.020  0.00  0.00    -0.050 Br
ATOM     22  H   UNL     1      -2.166   1.688   0.018  0.00  0.00    +0.155 HD
ATOM     23  H   UNL     1       1.368   2.074  -2.087  0.00  0.00    -0.078 HD
ENDROOT
BRANCH   5  24
ATOM     24  C   UNL     1       5.199   3.614  -0.034  0.00  0.00    +0.010 C 
ATOM     25  C   UNL     1       6.071   3.365   1.198  0.00  0.00    +0.005 C 
ENDBRANCH   5  24
BRANCH   1  26
ATOM     26  C   UNL     1       3.831  -1.242  -0.015  0.00  0.00    +0.013 C 
BRANCH  26  28
ATOM     27  C   UNL     1       5.176  -2.930  -1.274  0.00  0.00    +0.004 C 
ATOM     28  C   UNL     1       4.657  -1.490  -1.279  0.00  0.00    -0.002 C 
ENDBRANCH  26  28
ENDBRANCH   1  26
TORSDOF 3
