REMARK  Name = ZINC62672870
REMARK  6 active torsions:
REMARK  status: ('A' for Active; 'I' for Inactive)
REMARK    1  A    between atoms: C_1  and  C_2
REMARK    2  A    between atoms: C_2  and  O_3
REMARK    3  A    between atoms: O_3  and  C_4
REMARK    4  A    between atoms: C_4  and  C_6
REMARK    5  A    between atoms: C_13  and  C_22
REMARK    6  A    between atoms: C_16  and  C_21
REMARK                            x       y       z     vdW  Elec       q    Type
REMARK                         _______ _______ _______ _____ _____    ______ ____
ROOT
ATOM      1  C   UNL     1      -2.848  -2.418   0.016  0.00  0.00    +0.146 A 
ATOM      2  C   UNL     1      -3.171  -3.747   0.018  0.00  0.00    +0.015 A 
ATOM      3  C   UNL     1      -4.587  -3.794   0.033  0.00  0.00    +0.100 A 
ATOM      4  N   UNL     1      -5.024  -2.568   0.034  0.00  0.00    -0.173 NA
ATOM      5  N   UNL     1      -4.038  -1.735   0.032  0.00  0.00    -0.270 N 
ATOM      6  H   UNL     1      -4.126  -0.769   0.037  0.00  0.00    +0.189 HD
ATOM      7  C   UNL     1      -5.298  -5.095   0.051  0.00  0.00    +0.047 A 
ATOM      8  C   UNL     1      -6.402  -5.355  -0.742  0.00  0.00    -0.038 A 
ATOM      9  C   UNL     1      -6.989  -6.606  -0.704  0.00  0.00    +0.004 A 
ATOM     10  C   UNL     1      -6.475  -7.593   0.118  0.00  0.00    +0.007 A 
ATOM     11  C   UNL     1      -5.382  -7.337   0.926  0.00  0.00    -0.008 A 
ATOM     12  C   UNL     1      -4.797  -6.085   0.916  0.00  0.00    +0.133 A 
ATOM     13  O   UNL     1      -3.801  -5.750   1.768  0.00  0.00    -0.491 OA
ATOM     14  C   UNL     1      -2.438  -5.709   1.345  0.00  0.00    +0.234 C 
ATOM     15  C   UNL     1      -2.309  -4.976   0.004  0.00  0.00    +0.080 C 
ATOM     16  C   UNL     1      -4.830  -8.421   1.816  0.00  0.00    +0.047 C 
ATOM     17  C   UNL     1      -6.960  -4.282  -1.640  0.00  0.00    +0.044 C 
ENDROOT
BRANCH   1  18
ATOM     18  C   UNL     1      -1.497  -1.837   0.006  0.00  0.00    +0.357 C 
ATOM     19  O   UNL     1      -0.523  -2.565  -0.007  0.00  0.00    -0.243 OA
BRANCH  18  20
ATOM     20  O   UNL     1      -1.339  -0.499   0.012  0.00  0.00    -0.460 OA
BRANCH  20  22
ATOM     21  C   UNL     1      -0.019   1.526   0.010  0.00  0.00    +0.048 C 
ATOM     22  C   UNL     1       0.002  -0.004   0.002  0.00  0.00    +0.229 C 
ENDBRANCH  20  22
ENDBRANCH  18  20
ENDBRANCH   1  18
TORSDOF 3
