REMARK  Name = ZINC39686257
REMARK  9 active torsions:
REMARK  status: ('A' for Active; 'I' for Inactive)
REMARK    1  A    between atoms: C_1  and  C_2
REMARK    2  A    between atoms: C_2  and  C_3
REMARK    3  A    between atoms: C_2  and  C_4
REMARK    4  A    between atoms: C_4  and  C_5
REMARK    5  A    between atoms: C_10  and  N_13
REMARK    6  A    between atoms: C_14  and  C_16
REMARK    7  A    between atoms: C_27  and  C_29
REMARK    8  A    between atoms: C_29  and  O_30
REMARK    9  A    between atoms: O_30  and  C_31
REMARK                            x       y       z     vdW  Elec       q    Type
REMARK                         _______ _______ _______ _____ _____    ______ ____
ROOT
ATOM      1  C   UNL     1       7.764  -4.204  -4.745  0.00  0.00    +0.100 C 
ATOM      2  C   UNL     1       7.008  -5.266  -5.574  0.00  0.00    +0.121 C 
ATOM      3  N   UNL     1       7.424  -5.013  -6.974  0.00  0.00    -0.297 N 
ATOM      4  C   UNL     1       8.867  -4.688  -6.877  0.00  0.00    +0.115 C 
ATOM      5  C   UNL     1       8.985  -3.829  -5.601  0.00  0.00    -0.004 C 
ATOM      6  C   UNL     1       8.945  -2.347  -5.959  0.00  0.00    -0.010 C 
ATOM      7  C   UNL     1      10.198  -1.986  -6.762  0.00  0.00    -0.082 C 
ATOM      8  N   UNL     1      11.395  -2.287  -5.967  0.00  0.00    +0.379 N 
ATOM      9  C   UNL     1      11.474  -3.729  -5.706  0.00  0.00    -0.082 C 
ATOM     10  C   UNL     1      10.275  -4.163  -4.858  0.00  0.00    -0.010 C 
ATOM     11  C   UNL     1       6.663  -5.068  -8.085  0.00  0.00    +0.253 C 
ATOM     12  O   UNL     1       7.154  -4.833  -9.169  0.00  0.00    -0.272 OA
ATOM     13  H   UNL     1      12.216  -1.992  -6.473  0.00  0.00    -0.086 HD
ATOM     14  H   UNL     1      11.348  -1.790  -5.090  0.00  0.00    -0.086 HD
ENDROOT
BRANCH   1  16
ATOM     15  N   UNL     1       7.064  -2.237  -3.418  0.00  0.00    -0.312 N 
ATOM     16  C   UNL     1       6.892  -2.996  -4.519  0.00  0.00    +0.218 C 
ATOM     17  O   UNL     1       6.035  -2.707  -5.327  0.00  0.00    -0.275 OA
ATOM     18  H   UNL     1       7.750  -2.468  -2.772  0.00  0.00    +0.149 HD
BRANCH  15  24
ATOM     19  C   UNL     1       5.972   2.770  -1.742  0.00  0.00    +0.216 C 
ATOM     20  O   UNL     1       6.360   3.687  -2.435  0.00  0.00    -0.276 OA
ATOM     21  N   UNL     1       5.711   1.570  -2.297  0.00  0.00    -0.301 N 
ATOM     22  C   UNL     1       5.234   0.452  -1.472  0.00  0.00    +0.109 C 
ATOM     23  C   UNL     1       6.150  -0.755  -1.701  0.00  0.00    +0.041 C 
ATOM     24  C   UNL     1       6.216  -1.063  -3.199  0.00  0.00    +0.076 C 
ATOM     25  C   UNL     1       6.805   0.138  -3.942  0.00  0.00    +0.041 C 
ATOM     26  C   UNL     1       5.891   1.357  -3.739  0.00  0.00    +0.109 C 
BRANCH  19  27
ATOM     27  C   UNL     1       5.781   2.974  -0.261  0.00  0.00    +0.099 C 
BRANCH  27  29
ATOM     28  C   UNL     1       5.161   5.375  -0.563  0.00  0.00    +0.008 C 
ATOM     29  C   UNL     1       6.144   4.414   0.107  0.00  0.00    -0.008 C 
ATOM     30  C   UNL     1       6.072   4.586   1.625  0.00  0.00    +0.008 C 
ENDBRANCH  27  29
ENDBRANCH  19  27
ENDBRANCH  15  24
ENDBRANCH   1  16
BRANCH  11  31
ATOM     31  C   UNL     1       5.202  -5.420  -7.980  0.00  0.00    +0.324 C 
BRANCH  31  32
ATOM     32  O   UNL     1       4.615  -5.412  -9.283  0.00  0.00    -0.483 OA
BRANCH  32  33
ATOM     33  C   UNL     1       3.292  -5.711  -9.366  0.00  0.00    +0.123 A 
ATOM     34  C   UNL     1       2.572  -6.001  -8.216  0.00  0.00    +0.046 A 
ATOM     35  C   UNL     1       1.227  -6.304  -8.302  0.00  0.00    +0.005 A 
ATOM     36  C   UNL     1       0.598  -6.320  -9.533  0.00  0.00    +0.020 A 
ATOM     37  C   UNL     1       1.313  -6.032 -10.682  0.00  0.00    +0.044 A 
ATOM     38  C   UNL     1       2.658  -5.722 -10.600  0.00  0.00    +0.065 A 
ATOM     39 CL   UNL     1       0.520  -6.053 -12.226  0.00  0.00    -0.083 Cl
ENDBRANCH  32  33
ENDBRANCH  31  32
ENDBRANCH  11  31
TORSDOF 7
