REMARK  Name = ZINC39601362
REMARK  10 active torsions:
REMARK  status: ('A' for Active; 'I' for Inactive)
REMARK    1  A    between atoms: C_1  and  C_2
REMARK    2  A    between atoms: C_2  and  C_3
REMARK    3  A    between atoms: C_2  and  C_4
REMARK    4  A    between atoms: C_4  and  C_5
REMARK    5  A    between atoms: C_5  and  N_6
REMARK    6  A    between atoms: C_7  and  C_9
REMARK    7  A    between atoms: C_20  and  C_22
REMARK    8  A    between atoms: C_28  and  O_30
REMARK    9  A    between atoms: O_30  and  C_31
REMARK   10  A    between atoms: C_31  and  C_32
REMARK                            x       y       z     vdW  Elec       q    Type
REMARK                         _______ _______ _______ _____ _____    ______ ____
ROOT
ATOM      1  C   UNL     1      -4.435  -4.410  -0.207  0.00  0.00    +0.100 C 
ATOM      2  C   UNL     1      -5.073  -4.205   1.185  0.00  0.00    +0.121 C 
ATOM      3  N   UNL     1      -5.903  -5.415   1.398  0.00  0.00    -0.300 N 
ATOM      4  C   UNL     1      -5.088  -6.523   0.844  0.00  0.00    +0.115 C 
ATOM      5  C   UNL     1      -4.446  -5.932  -0.426  0.00  0.00    -0.004 C 
ATOM      6  C   UNL     1      -3.021  -6.453  -0.588  0.00  0.00    -0.010 C 
ATOM      7  C   UNL     1      -3.060  -7.959  -0.863  0.00  0.00    -0.082 C 
ATOM      8  N   UNL     1      -3.837  -8.215  -2.082  0.00  0.00    +0.379 N 
ATOM      9  C   UNL     1      -5.230  -7.795  -1.885  0.00  0.00    -0.082 C 
ATOM     10  C   UNL     1      -5.282  -6.283  -1.653  0.00  0.00    -0.010 C 
ATOM     11  C   UNL     1      -7.122  -5.490   1.966  0.00  0.00    +0.219 C 
ATOM     12  O   UNL     1      -7.678  -6.563   2.070  0.00  0.00    -0.275 OA
ATOM     13  H   UNL     1      -3.437  -7.697  -2.850  0.00  0.00    -0.086 HD
ATOM     14  H   UNL     1      -3.811  -9.201  -2.295  0.00  0.00    -0.086 HD
ENDROOT
BRANCH  11  15
ATOM     15  C   UNL     1      -7.796  -4.241   2.473  0.00  0.00    +0.078 C 
ATOM     16  C   UNL     1      -6.924  -3.593   3.551  0.00  0.00    +0.032 C 
ATOM     17  C   UNL     1      -7.595  -2.305   4.039  0.00  0.00    +0.112 C 
ATOM     18  N   UNL     1      -8.961  -2.621   4.478  0.00  0.00    -0.267 N 
ATOM     19  C   UNL     1      -9.856  -3.326   3.550  0.00  0.00    +0.112 C 
ATOM     20  C   UNL     1      -9.160  -4.603   3.067  0.00  0.00    +0.032 C 
ATOM     21  C   UNL     1      -9.386  -2.272   5.708  0.00  0.00    +0.403 C 
ATOM     22  O   UNL     1      -8.636  -1.689   6.467  0.00  0.00    -0.226 OA
BRANCH  21  23
ATOM     23  O   UNL     1     -10.640  -2.567   6.097  0.00  0.00    -0.445 OA
BRANCH  23  24
ATOM     24  C   UNL     1     -11.023  -2.167   7.415  0.00  0.00    +0.269 C 
BRANCH  24  25
ATOM     25  C   UNL     1     -12.449  -2.579   7.671  0.00  0.00    -0.010 A 
ATOM     26  C   UNL     1     -13.485  -1.720   7.353  0.00  0.00    +0.007 A 
ATOM     27  C   UNL     1     -14.793  -2.099   7.588  0.00  0.00    +0.000 A 
ATOM     28  C   UNL     1     -15.067  -3.336   8.140  0.00  0.00    +0.000 A 
ATOM     29  C   UNL     1     -14.031  -4.195   8.457  0.00  0.00    +0.000 A 
ATOM     30  C   UNL     1     -12.723  -3.819   8.218  0.00  0.00    +0.007 A 
ENDBRANCH  24  25
ENDBRANCH  23  24
ENDBRANCH  21  23
ENDBRANCH  11  15
BRANCH   1  32
ATOM     31  N   UNL     1      -2.480  -3.431  -1.364  0.00  0.00    -0.315 N 
ATOM     32  C   UNL     1      -3.021  -3.888  -0.217  0.00  0.00    +0.218 C 
ATOM     33  O   UNL     1      -2.370  -3.880   0.806  0.00  0.00    -0.275 OA
ATOM     34  H   UNL     1      -3.001  -3.438  -2.183  0.00  0.00    +0.149 HD
BRANCH  31  35
ATOM     35  C   UNL     1      -1.105  -2.924  -1.375  0.00  0.00    +0.104 C 
BRANCH  35  36
ATOM     36  C   UNL     1      -0.740  -2.471  -2.789  0.00  0.00    +0.022 C 
BRANCH  36  38
ATOM     37  C   UNL     1       1.104  -1.604  -4.236  0.00  0.00    +0.007 C 
ATOM     38  C   UNL     1       0.696  -1.941  -2.800  0.00  0.00    -0.016 C 
ATOM     39  C   UNL     1       0.781  -0.681  -1.937  0.00  0.00    +0.007 C 
ENDBRANCH  36  38
ENDBRANCH  35  36
ENDBRANCH  31  35
ENDBRANCH   1  32
TORSDOF 8
