REMARK  Name = ZINC41094433
REMARK  8 active torsions:
REMARK  status: ('A' for Active; 'I' for Inactive)
REMARK    1  A    between atoms: C_1  and  C_2
REMARK    2  A    between atoms: C_4  and  C_20
REMARK    3  A    between atoms: C_6  and  C_8
REMARK    4  A    between atoms: C_8  and  O_9
REMARK    5  A    between atoms: O_9  and  C_10
REMARK    6  A    between atoms: C_10  and  C_12
REMARK    7  A    between atoms: C_14  and  N_19
REMARK    8  A    between atoms: C_16  and  N_18
REMARK                            x       y       z     vdW  Elec       q    Type
REMARK                         _______ _______ _______ _____ _____    ______ ____
ROOT
ATOM      1  C   UNL     1       1.597  -3.739   4.045  0.00  0.00    +0.340 C 
ATOM      2  O   UNL     1       0.642  -4.125   4.689  0.00  0.00    -0.245 OA
ENDROOT
BRANCH   1   3
ATOM      3  C   UNL     1       2.969  -4.006   4.526  0.00  0.00    +0.062 A 
ATOM      4  C   UNL     1       4.067  -3.559   3.790  0.00  0.00    +0.037 A 
ATOM      5  C   UNL     1       5.353  -3.811   4.245  0.00  0.00    +0.027 A 
ATOM      6  C   UNL     1       5.548  -4.509   5.430  0.00  0.00    +0.045 A 
ATOM      7  C   UNL     1       4.457  -4.956   6.164  0.00  0.00    +0.027 A 
ATOM      8  C   UNL     1       3.168  -4.702   5.719  0.00  0.00    +0.037 A 
BRANCH   7   9
ATOM      9  N   UNL     1       4.658  -5.659   7.355  0.00  0.00    -0.358 N 
ATOM     10  H   UNL     1       5.559  -5.833   7.668  0.00  0.00    +0.142 HD
ATOM     11  H   UNL     1       3.897  -5.971   7.868  0.00  0.00    +0.142 HD
ENDBRANCH   7   9
BRANCH   5  12
ATOM     12  N   UNL     1       6.453  -3.364   3.510  0.00  0.00    -0.358 N 
ATOM     13  H   UNL     1       6.318  -2.877   2.682  0.00  0.00    +0.142 HD
ATOM     14  H   UNL     1       7.353  -3.540   3.827  0.00  0.00    +0.142 HD
ENDBRANCH   5  12
ENDBRANCH   1   3
BRANCH   1  15
ATOM     15  O   UNL     1       1.406  -3.067   2.893  0.00  0.00    -0.456 OA
BRANCH  15  16
ATOM     16  C   UNL     1       0.054  -2.844   2.489  0.00  0.00    +0.268 C 
BRANCH  16  22
ATOM     17  C   UNL     1      -0.018   1.503   0.010  0.00  0.00    +0.044 C 
ATOM     18  C   UNL     1       0.002  -0.004   0.002  0.00  0.00    -0.050 A 
ATOM     19  C   UNL     1       0.006  -0.689  -1.199  0.00  0.00    +0.006 A 
ATOM     20  C   UNL     1       0.025  -2.071  -1.206  0.00  0.00    -0.050 A 
ATOM     21  C   UNL     1       0.040  -2.768  -0.013  0.00  0.00    +0.010 A 
ATOM     22  C   UNL     1       0.037  -2.084   1.188  0.00  0.00    -0.010 A 
ATOM     23  C   UNL     1       0.023  -0.702   1.195  0.00  0.00    +0.010 A 
ATOM     24  C   UNL     1       0.027  -2.817  -2.516  0.00  0.00    +0.044 C 
ENDBRANCH  16  22
ENDBRANCH  15  16
ENDBRANCH   1  15
TORSDOF 6
