REMARK  Name = ZINC10049705
REMARK  9 active torsions:
REMARK  status: ('A' for Active; 'I' for Inactive)
REMARK    1  A    between atoms: C_1  and  C_2
REMARK    2  A    between atoms: N_9  and  C_10
REMARK    3  A    between atoms: N_16  and  C_34
REMARK    4  A    between atoms: N_19  and  C_22
REMARK    5  A    between atoms: C_22  and  C_23
REMARK    6  A    between atoms: C_23  and  C_24
REMARK    7  A    between atoms: C_24  and  N_65
REMARK    8  A    between atoms: C_25  and  C_33
REMARK    9  A    between atoms: C_30  and  C_32
REMARK                            x       y       z     vdW  Elec       q    Type
REMARK                         _______ _______ _______ _____ _____    ______ ____
ROOT
ATOM      1  C   UNL     1       0.222  -8.037  -7.486  0.00  0.00    +0.065 C 
ATOM      2  C   UNL     1      -0.130  -7.701  -6.060  0.00  0.00    +0.040 A 
ATOM      3  C   UNL     1      -0.431  -6.493  -5.594  0.00  0.00    +0.116 A 
ATOM      4  N   UNL     1      -0.692  -6.599  -4.239  0.00  0.00    -0.277 N 
ATOM      5  C   UNL     1      -1.048  -5.902  -3.095  0.00  0.00    +0.157 A 
ATOM      6  C   UNL     1      -1.101  -6.840  -2.065  0.00  0.00    +0.170 A 
ATOM      7  N   UNL     1      -0.792  -8.024  -2.586  0.00  0.00    -0.193 NA
ATOM      8  C   UNL     1      -0.546  -7.897  -3.882  0.00  0.00    +0.223 A 
ATOM      9  N   UNL     1      -0.194  -8.597  -5.008  0.00  0.00    -0.283 N 
ATOM     10  N   UNL     1      -1.438  -6.412  -0.789  0.00  0.00    -0.279 N 
ATOM     11  C   UNL     1      -1.706  -5.112  -0.563  0.00  0.00    +0.333 A 
ATOM     12  O   UNL     1      -2.000  -4.754   0.561  0.00  0.00    -0.246 OA
ATOM     13  N   UNL     1      -1.657  -4.201  -1.550  0.00  0.00    -0.259 N 
ATOM     14  C   UNL     1      -1.341  -4.557  -2.812  0.00  0.00    +0.283 A 
ATOM     15  O   UNL     1      -1.305  -3.720  -3.697  0.00  0.00    -0.265 OA
ATOM     16  C   UNL     1      -1.502  -7.376   0.313  0.00  0.00    +0.155 C 
ENDROOT
BRANCH   9  17
ATOM     17  C   UNL     1       0.055  -9.973  -5.080  0.00  0.00    +0.050 A 
ATOM     18  C   UNL     1       1.139 -10.521  -4.405  0.00  0.00    +0.026 A 
ATOM     19  C   UNL     1       1.378 -11.879  -4.474  0.00  0.00    +0.002 A 
ATOM     20  C   UNL     1       0.547 -12.692  -5.222  0.00  0.00    +0.000 A 
ATOM     21  C   UNL     1      -0.530 -12.150  -5.899  0.00  0.00    +0.002 A 
ATOM     22  C   UNL     1      -0.778 -10.793  -5.830  0.00  0.00    +0.026 A 
ENDBRANCH   9  17
BRANCH  13  23
ATOM     23  C   UNL     1      -1.959  -2.799  -1.251  0.00  0.00    +0.128 C 
BRANCH  23  24
ATOM     24  C   UNL     1      -0.671  -2.073  -0.858  0.00  0.00    +0.003 C 
BRANCH  24  25
ATOM     25  C   UNL     1      -0.986  -0.608  -0.546  0.00  0.00    -0.076 C 
BRANCH  25  33
ATOM     26  C   UNL     1       0.028   1.537  -0.064  0.00  0.00    -0.071 C 
ATOM     27  C   UNL     1       1.362   2.243   0.186  0.00  0.00    -0.016 C 
ATOM     28  C   UNL     1       1.983   1.708   1.480  0.00  0.00    -0.003 C 
ATOM     29  C   UNL     1       2.160   0.192   1.362  0.00  0.00    -0.016 C 
ATOM     30  C   UNL     1       0.802  -0.455   1.078  0.00  0.00    -0.071 C 
ATOM     31  C   UNL     1      -0.157  -0.156   2.233  0.00  0.00    -0.013 C 
ATOM     32  C   UNL     1      -0.587   2.054  -1.367  0.00  0.00    -0.013 C 
ATOM     33  N   UNL     1       0.270   0.084  -0.192  0.00  0.00    +0.383 N 
ATOM     34  H   UNL     1       0.960  -0.074  -0.935  0.00  0.00    -0.081 HD
ENDBRANCH  25  33
ENDBRANCH  24  25
ENDBRANCH  23  24
ENDBRANCH  13  23
TORSDOF 5
