REMARK  Name = ZINC28671838
REMARK  10 active torsions:
REMARK  status: ('A' for Active; 'I' for Inactive)
REMARK    1  A    between atoms: C_1  and  C_2
REMARK    2  A    between atoms: C_5  and  S_7
REMARK    3  A    between atoms: S_7  and  N_10
REMARK    4  A    between atoms: C_14  and  C_17
REMARK    5  A    between atoms: N_19  and  C_20
REMARK    6  A    between atoms: C_22  and  C_27
REMARK    7  A    between atoms: C_25  and  O_26
REMARK    8  A    between atoms: C_27  and  C_28
REMARK    9  A    between atoms: C_27  and  C_29
REMARK   10  A    between atoms: C_27  and  C_30
REMARK                            x       y       z     vdW  Elec       q    Type
REMARK                         _______ _______ _______ _____ _____    ______ ____
ROOT
ATOM      1  C   UNL     1       3.512  -3.599  -4.436  0.00  0.00    +0.222 C 
ATOM      2  O   UNL     1       4.555  -4.064  -4.027  0.00  0.00    -0.275 OA
ATOM      3  N   UNL     1       3.482  -2.946  -5.615  0.00  0.00    -0.282 N 
ATOM      4  H   UNL     1       2.638  -2.630  -5.973  0.00  0.00    +0.155 HD
ENDROOT
BRANCH   1   9
ATOM      5  N   UNL     1       1.295  -4.782  -1.632  0.00  0.00    -0.175 NA
ATOM      6  C   UNL     1       0.193  -5.430  -2.355  0.00  0.00    +0.109 C 
ATOM      7  C   UNL     1      -0.086  -4.642  -3.639  0.00  0.00    +0.018 C 
ATOM      8  C   UNL     1       1.207  -4.515  -4.447  0.00  0.00    +0.015 C 
ATOM      9  C   UNL     1       2.250  -3.751  -3.627  0.00  0.00    +0.091 C 
ATOM     10  C   UNL     1       2.554  -4.524  -2.346  0.00  0.00    +0.122 C 
BRANCH   5  11
ATOM     11  S   UNL     1       1.121  -4.343  -0.045  0.00  0.00    +0.067 S 
ATOM     12  O   UNL     1       2.429  -4.279   0.505  0.00  0.00    -0.152 OA
ATOM     13  O   UNL     1       0.106  -5.177   0.498  0.00  0.00    -0.152 OA
BRANCH  11  18
ATOM     14  C   UNL     1      -0.062   1.453   0.022  0.00  0.00    +0.051 C 
ATOM     15  C   UNL     1      -0.034  -0.053   0.005  0.00  0.00    -0.011 A 
ATOM     16  C   UNL     1      -1.071  -0.926  -0.004  0.00  0.00    +0.013 A 
ATOM     17  C   UNL     1      -0.804  -2.283  -0.019  0.00  0.00    +0.036 A 
ATOM     18  C   UNL     1       0.486  -2.700  -0.025  0.00  0.00    +0.143 A 
ATOM     19  S   UNL     1       1.374  -1.151  -0.016  0.00  0.00    -0.074 S 
ENDBRANCH  11  18
ENDBRANCH   5  11
ENDBRANCH   1   9
BRANCH   3  20
ATOM     20  C   UNL     1       4.671  -2.722  -6.323  0.00  0.00    +0.076 A 
ATOM     21  C   UNL     1       5.687  -3.667  -6.291  0.00  0.00    +0.031 A 
ATOM     22  C   UNL     1       6.858  -3.444  -6.990  0.00  0.00    -0.040 A 
ATOM     23  C   UNL     1       7.021  -2.282  -7.722  0.00  0.00    +0.008 A 
ATOM     24  C   UNL     1       6.013  -1.337  -7.758  0.00  0.00    +0.047 A 
ATOM     25  C   UNL     1       4.833  -1.554  -7.064  0.00  0.00    +0.138 A 
BRANCH  22  26
ATOM     26  C   UNL     1       7.961  -4.471  -6.955  0.00  0.00    -0.013 C 
ATOM     27  C   UNL     1       7.441  -5.797  -7.515  0.00  0.00    +0.015 C 
ATOM     28  C   UNL     1       9.137  -3.985  -7.805  0.00  0.00    +0.015 C 
ATOM     29  C   UNL     1       8.424  -4.673  -5.511  0.00  0.00    +0.015 C 
ENDBRANCH  22  26
BRANCH  25  30
ATOM     30  O   UNL     1       3.839  -0.628  -7.103  0.00  0.00    -0.505 OA
ATOM     31  H   UNL     1       3.897   0.041  -6.407  0.00  0.00    +0.292 HD
ENDBRANCH  25  30
ENDBRANCH   3  20
TORSDOF 6
