REMARK  Name = ZINC44938106
REMARK  6 active torsions:
REMARK  status: ('A' for Active; 'I' for Inactive)
REMARK    1  A    between atoms: C_13  and  N_16
REMARK    2  A    between atoms: C_17  and  C_19
REMARK    3  A    between atoms: C_19  and  C_20
REMARK    4  A    between atoms: C_20  and  C_22
REMARK    5  A    between atoms: C_20  and  C_28
REMARK    6  A    between atoms: N_30  and  C_31
REMARK                            x       y       z     vdW  Elec       q    Type
REMARK                         _______ _______ _______ _____ _____    ______ ____
ROOT
ATOM      1  C   UNL     1       0.808  -9.289   1.444  0.00  0.00    +0.112 C 
ENDROOT
BRANCH   1   2
ATOM      2  C   UNL     1       2.023  -9.313   0.515  0.00  0.00    +0.131 C 
ATOM      3  C   UNL     1       1.558  -9.304  -0.957  0.00  0.00    +0.034 C 
ATOM      4  C   UNL     1       2.561 -10.282  -1.627  0.00  0.00    +0.031 C 
ATOM      5  C   UNL     1       2.789 -11.300  -0.480  0.00  0.00    +0.160 C 
ATOM      6  O   UNL     1       2.772 -10.516   0.726  0.00  0.00    -0.376 OA
ENDBRANCH   1   2
BRANCH   1   7
ATOM      7  C   UNL     1      -0.028 -10.521   1.211  0.00  0.00    +0.219 C 
ATOM      8  O   UNL     1      -1.039 -10.451   0.545  0.00  0.00    -0.275 OA
ATOM      9  N   UNL     1       0.348 -11.701   1.742  0.00  0.00    -0.312 N 
ATOM     10  H   UNL     1       1.114 -11.743   2.337  0.00  0.00    +0.149 HD
BRANCH   9  11
ATOM     11  C   UNL     1      -0.399 -12.920   1.423  0.00  0.00    +0.078 C 
ATOM     12  C   UNL     1      -1.599 -13.046   2.366  0.00  0.00    +0.028 C 
ATOM     13  C   UNL     1      -2.515 -14.173   1.878  0.00  0.00    +0.055 C 
ATOM     14  C   UNL     1      -1.676 -15.406   1.639  0.00  0.00    +0.020 A 
ATOM     15  C   UNL     1      -0.331 -15.386   1.516  0.00  0.00    -0.017 A 
ATOM     16  C   UNL     1       0.098 -16.753   1.300  0.00  0.00    +0.003 A 
ATOM     17  C   UNL     1       1.355 -17.334   1.108  0.00  0.00    +0.010 A 
ATOM     18  C   UNL     1       1.389 -18.695   0.930  0.00  0.00    +0.001 A 
ATOM     19  C   UNL     1       0.239 -19.467   0.939  0.00  0.00    +0.002 A 
ATOM     20  C   UNL     1      -1.018 -18.919   1.126  0.00  0.00    +0.026 A 
ATOM     21  C   UNL     1      -1.083 -17.539   1.309  0.00  0.00    +0.047 A 
ATOM     22  N   UNL     1      -2.134 -16.692   1.515  0.00  0.00    -0.358 N 
ATOM     23  H   UNL     1      -3.065 -16.960   1.567  0.00  0.00    +0.166 HD
ATOM     24  C   UNL     1       0.513 -14.140   1.596  0.00  0.00    +0.059 C 
ENDBRANCH   9  11
ENDBRANCH   1   7
BRANCH   1  25
ATOM     25  C   UNL     1      -0.030  -8.042   1.155  0.00  0.00    +0.111 C 
BRANCH  25  27
ATOM     26  N   UNL     1       0.279  -5.588   1.207  0.00  0.00    -0.312 N 
ATOM     27  C   UNL     1       0.768  -6.810   1.497  0.00  0.00    +0.214 C 
ATOM     28  O   UNL     1       1.850  -6.918   2.034  0.00  0.00    -0.276 OA
ATOM     29  H   UNL     1      -0.587  -5.502   0.778  0.00  0.00    +0.149 HD
BRANCH  26  42
ATOM     30  C   UNL     1      -0.730   1.218   3.135  0.00  0.00    +0.001 A 
ATOM     31  C   UNL     1       0.386   2.036   3.016  0.00  0.00    +0.002 A 
ATOM     32  C   UNL     1       1.571   1.538   2.523  0.00  0.00    +0.026 A 
ATOM     33  C   UNL     1       1.656   0.203   2.140  0.00  0.00    +0.047 A 
ATOM     34  C   UNL     1       0.522  -0.623   2.263  0.00  0.00    +0.003 A 
ATOM     35  C   UNL     1      -0.670  -0.096   2.764  0.00  0.00    +0.010 A 
ATOM     36  C   UNL     1       0.935  -1.939   1.786  0.00  0.00    -0.017 A 
ATOM     37  C   UNL     1       2.227  -1.847   1.419  0.00  0.00    +0.020 A 
ATOM     38  N   UNL     1       2.672  -0.571   1.624  0.00  0.00    -0.358 N 
ATOM     39  H   UNL     1       3.570  -0.258   1.435  0.00  0.00    +0.166 HD
ATOM     40  C   UNL     1       3.026  -3.005   0.866  0.00  0.00    +0.055 C 
ATOM     41  C   UNL     1       2.050  -4.097   0.414  0.00  0.00    +0.028 C 
ATOM     42  C   UNL     1       1.054  -4.391   1.540  0.00  0.00    +0.078 C 
ATOM     43  C   UNL     1       0.107  -3.196   1.703  0.00  0.00    +0.059 C 
ENDBRANCH  26  42
ENDBRANCH  25  27
ENDBRANCH   1  25
TORSDOF 6
