REMARK  Name = ZINC12829833
REMARK  6 active torsions:
REMARK  status: ('A' for Active; 'I' for Inactive)
REMARK    1  A    between atoms: C_1  and  C_2
REMARK    2  A    between atoms: C_2  and  C_3
REMARK    3  A    between atoms: C_2  and  N_4
REMARK    4  A    between atoms: N_4  and  S_5
REMARK    5  A    between atoms: S_5  and  C_8
REMARK    6  A    between atoms: C_12  and  C_14
REMARK                            x       y       z     vdW  Elec       q    Type
REMARK                         _______ _______ _______ _____ _____    ______ ____
ROOT
ATOM      1  C   UNL     1      -0.927   1.900   1.439  0.00  0.00    +0.106 A 
ATOM      2  C   UNL     1      -0.715   3.147   2.003  0.00  0.00    +0.030 A 
ATOM      3  C   UNL     1      -1.428   3.537   3.122  0.00  0.00    +0.022 A 
ATOM      4  C   UNL     1      -2.349   2.679   3.691  0.00  0.00    +0.053 A 
ATOM      5  C   UNL     1      -2.563   1.417   3.130  0.00  0.00    +0.057 A 
ATOM      6  C   UNL     1      -1.843   1.034   1.997  0.00  0.00    +0.043 A 
ATOM      7 CL   UNL     1      -3.239   3.167   5.100  0.00  0.00    -0.083 Cl
ENDROOT
BRANCH   5   8
ATOM      8  C   UNL     1      -3.547   0.494   3.732  0.00  0.00    +0.251 C 
ATOM      9  O   UNL     1      -4.172   0.832   4.719  0.00  0.00    -0.270 OA
ATOM     10  N   UNL     1      -3.751  -0.722   3.188  0.00  0.00    -0.261 N 
ATOM     11  C   UNL     1      -4.676  -1.589   3.755  0.00  0.00    +0.165 A 
ATOM     12  N   UNL     1      -5.438  -1.412   4.815  0.00  0.00    -0.229 NA
ATOM     13  C   UNL     1      -6.286  -2.350   5.248  0.00  0.00    +0.054 A 
ATOM     14  C   UNL     1      -6.318  -3.482   4.522  0.00  0.00    +0.014 A 
ATOM     15  S   UNL     1      -5.121  -3.194   3.252  0.00  0.00    -0.057 S 
ATOM     16  C   UNL     1      -7.218  -4.673   4.738  0.00  0.00    +0.044 C 
ATOM     17  C   UNL     1      -6.784  -5.330   6.063  0.00  0.00    +0.005 C 
ATOM     18  C   UNL     1      -7.340  -4.556   7.234  0.00  0.00    +0.001 C 
ATOM     19  C   UNL     1      -6.716  -3.214   7.516  0.00  0.00    +0.006 C 
ATOM     20  C   UNL     1      -7.149  -2.157   6.496  0.00  0.00    +0.056 C 
ATOM     21  H   UNL     1      -3.252  -0.991   2.401  0.00  0.00    +0.157 HD
ENDBRANCH   5   8
BRANCH   1  22
ATOM     22  S   UNL     1      -0.017   1.417   0.010  0.00  0.00    +0.059 S 
ATOM     23  O   UNL     1       0.002  -0.004   0.002  0.00  0.00    -0.153 OA
ATOM     24  O   UNL     1       1.172   2.195   0.003  0.00  0.00    -0.153 OA
BRANCH  22  25
ATOM     25  N   UNL     1      -0.897   1.885  -1.312  0.00  0.00    -0.187 NA
ATOM     26  H   UNL     1      -1.263   1.218  -1.913  0.00  0.00    +0.148 HD
BRANCH  25  28
ATOM     27  C   UNL     1      -0.067   3.823  -2.552  0.00  0.00    +0.025 C 
ATOM     28  C   UNL     1      -1.125   3.309  -1.574  0.00  0.00    +0.070 C 
ATOM     29  C   UNL     1      -2.516   3.500  -2.181  0.00  0.00    +0.025 C 
ENDBRANCH  25  28
ENDBRANCH  22  25
ENDBRANCH   1  22
TORSDOF 4
