REMARK  Name = ZINC22844751
REMARK  9 active torsions:
REMARK  status: ('A' for Active; 'I' for Inactive)
REMARK    1  A    between atoms: C_1  and  C_2
REMARK    2  A    between atoms: C_8  and  C_36
REMARK    3  A    between atoms: C_13  and  C_20
REMARK    4  A    between atoms: C_23  and  C_26
REMARK    5  A    between atoms: C_26  and  O_27
REMARK    6  A    between atoms: O_27  and  C_28
REMARK    7  A    between atoms: C_31  and  O_34
REMARK    8  A    between atoms: O_34  and  C_35
REMARK    9  A    between atoms: N_39  and  C_41
REMARK                            x       y       z     vdW  Elec       q    Type
REMARK                         _______ _______ _______ _____ _____    ______ ____
ROOT
ATOM      1  C   UNL     1      -0.018   1.503   0.010  0.00  0.00    +0.063 C 
ATOM      2  C   UNL     1       0.002  -0.004   0.002  0.00  0.00    +0.051 C 
ATOM      3  N   UNL     1       0.008  -0.775  -1.037  0.00  0.00    -0.155 NA
ATOM      4  N   UNL     1       0.056  -2.127  -0.698  0.00  0.00    -0.115 NA
ATOM      5  C   UNL     1       0.127  -2.303   0.571  0.00  0.00    +0.227 C 
ATOM      6  C   UNL     1       0.026  -0.917   1.205  0.00  0.00    +0.135 C 
ATOM      7  C   UNL     1       1.316  -0.741   2.011  0.00  0.00    +0.078 C 
ATOM      8  C   UNL     1       1.622  -2.018   2.745  0.00  0.00    +0.067 A 
ATOM      9  C   UNL     1       2.471  -1.984   3.870  0.00  0.00    +0.167 A 
ATOM     10  N   UNL     1       3.104  -1.006   4.471  0.00  0.00    -0.206 NA
ATOM     11  C   UNL     1       3.793  -1.493   5.511  0.00  0.00    +0.182 A 
ATOM     12  N   UNL     1       3.608  -2.801   5.589  0.00  0.00    -0.143 NA
ATOM     13  N   UNL     1       2.762  -3.153   4.547  0.00  0.00    -0.201 N 
ATOM     14  C   UNL     1       2.241  -4.339   4.144  0.00  0.00    +0.229 A 
ATOM     15  N   UNL     1       1.453  -4.345   3.097  0.00  0.00    -0.201 NA
ATOM     16  C   UNL     1       1.129  -3.245   2.398  0.00  0.00    +0.231 A 
ATOM     17  O   UNL     1       0.278  -3.403   1.335  0.00  0.00    -0.421 OA
ENDROOT
BRANCH  11  18
ATOM     18  C   UNL     1       4.633  -0.690   6.433  0.00  0.00    +0.021 A 
ATOM     19  C   UNL     1       4.748   0.687   6.255  0.00  0.00    +0.012 A 
ATOM     20  C   UNL     1       5.531   1.429   7.116  0.00  0.00    +0.007 A 
ATOM     21  C   UNL     1       6.201   0.808   8.154  0.00  0.00    -0.010 A 
ATOM     22  C   UNL     1       6.092  -0.558   8.336  0.00  0.00    +0.007 A 
ATOM     23  C   UNL     1       5.306  -1.309   7.484  0.00  0.00    +0.012 A 
BRANCH  21  24
ATOM     24  C   UNL     1       7.055   1.624   9.091  0.00  0.00    +0.264 C 
BRANCH  24  25
ATOM     25  O   UNL     1       6.260   2.074  10.190  0.00  0.00    -0.487 OA
BRANCH  25  26
ATOM     26  C   UNL     1       6.883   2.829  11.134  0.00  0.00    +0.121 A 
ATOM     27  C   UNL     1       8.230   3.134  11.000  0.00  0.00    +0.049 A 
ATOM     28  C   UNL     1       8.863   3.901  11.959  0.00  0.00    +0.049 A 
ATOM     29  C   UNL     1       8.151   4.366  13.055  0.00  0.00    +0.120 A 
ATOM     30  C   UNL     1       6.804   4.062  13.188  0.00  0.00    +0.049 A 
ATOM     31  C   UNL     1       6.171   3.299  12.227  0.00  0.00    +0.049 A 
BRANCH  29  32
ATOM     32  O   UNL     1       8.774   5.121  14.000  0.00  0.00    -0.495 OA
ATOM     33  C   UNL     1       7.981   5.566  15.101  0.00  0.00    +0.277 C 
ENDBRANCH  29  32
ENDBRANCH  25  26
ENDBRANCH  24  25
ENDBRANCH  21  24
ENDBRANCH  11  18
BRANCH   7  34
ATOM     34  C   UNL     1       1.141   0.380   3.003  0.00  0.00    -0.001 A 
ATOM     35  C   UNL     1       0.192   0.430   4.029  0.00  0.00    +0.138 A 
ATOM     36  N   UNL     1       0.349   1.556   4.677  0.00  0.00    -0.180 NA
ATOM     37  N   UNL     1       1.405   2.259   4.082  0.00  0.00    -0.274 N 
ATOM     38  C   UNL     1       1.877   1.514   3.061  0.00  0.00    +0.112 A 
ATOM     39  C   UNL     1       1.911   3.569   4.499  0.00  0.00    +0.172 C 
ENDBRANCH   7  34
TORSDOF 6
