REMARK  Name = ZINC38762488
REMARK  9 active torsions:
REMARK  status: ('A' for Active; 'I' for Inactive)
REMARK    1  A    between atoms: C_1  and  C_2
REMARK    2  A    between atoms: C_5  and  C_8
REMARK    3  A    between atoms: N_14  and  C_15
REMARK    4  A    between atoms: C_15  and  C_16
REMARK    5  A    between atoms: C_16  and  C_17
REMARK    6  A    between atoms: C_23  and  C_26
REMARK    7  A    between atoms: C_26  and  C_27
REMARK    8  A    between atoms: C_27  and  C_28
REMARK    9  A    between atoms: C_27  and  C_29
REMARK                            x       y       z     vdW  Elec       q    Type
REMARK                         _______ _______ _______ _____ _____    ______ ____
ROOT
ATOM      1  C   UNL     1       0.295  -4.607   2.477  0.00  0.00    +0.135 C 
ENDROOT
BRANCH   1   8
ATOM      2  C   UNL     1       0.069  -4.239  -0.020  0.00  0.00    +0.163 A 
ATOM      3  H   UNL     1      -0.023  -7.107  -1.248  0.00  0.00    +0.191 HD
ATOM      4  N   UNL     1      -0.017  -4.989  -1.082  0.00  0.00    -0.153 NA
ATOM      5  N   UNL     1       0.023  -6.329  -0.671  0.00  0.00    -0.254 N 
ATOM      6  C   UNL     1       0.137  -6.338   0.672  0.00  0.00    +0.176 A 
ATOM      7  S   UNL     1       0.227  -7.726   1.670  0.00  0.00    -0.011 S 
ATOM      8  N   UNL     1       0.172  -5.056   1.088  0.00  0.00    -0.303 N 
BRANCH   2  13
ATOM      9  C   UNL     1       0.050   1.517   0.037  0.00  0.00    +0.044 C 
ATOM     10  C   UNL     1       0.055   0.010   0.022  0.00  0.00    -0.050 A 
ATOM     11  C   UNL     1       0.399  -0.666  -1.135  0.00  0.00    +0.004 A 
ATOM     12  C   UNL     1       0.406  -2.046  -1.155  0.00  0.00    +0.012 A 
ATOM     13  C   UNL     1       0.065  -2.759  -0.005  0.00  0.00    +0.019 A 
ATOM     14  C   UNL     1      -0.281  -2.071   1.158  0.00  0.00    +0.012 A 
ATOM     15  C   UNL     1      -0.279  -0.691   1.167  0.00  0.00    +0.004 A 
ENDBRANCH   2  13
ENDBRANCH   1   8
BRANCH   1  16
ATOM     16  C   UNL     1      -1.088  -4.587   3.131  0.00  0.00    +0.118 C 
BRANCH  16  17
ATOM     17  C   UNL     1      -0.980  -4.002   4.516  0.00  0.00    +0.220 C 
ATOM     18  O   UNL     1       0.097  -3.637   4.938  0.00  0.00    -0.275 OA
ATOM     19  N   UNL     1      -2.081  -3.884   5.285  0.00  0.00    -0.264 N 
ATOM     20  C   UNL     1      -1.981  -3.344   6.564  0.00  0.00    +0.179 C 
ATOM     21  N   UNL     1      -0.920  -2.903   7.164  0.00  0.00    -0.163 NA
ATOM     22  N   UNL     1      -0.934  -2.384   8.440  0.00  0.00    -0.253 N 
ATOM     23  C   UNL     1      -2.260  -2.361   9.097  0.00  0.00    +0.154 C 
ATOM     24  S   UNL     1      -3.287  -3.091   7.756  0.00  0.00    -0.065 S 
ATOM     25  H   UNL     1      -2.942  -4.176   4.947  0.00  0.00    +0.157 HD
ATOM     26  H   UNL     1      -0.131  -2.058   8.877  0.00  0.00    +0.169 HD
BRANCH  23  27
ATOM     27  C   UNL     1      -2.274  -3.233  10.354  0.00  0.00    +0.038 C 
BRANCH  27  28
ATOM     28  C   UNL     1      -3.661  -3.177  10.998  0.00  0.00    -0.015 C 
ATOM     29  C   UNL     1      -3.713  -4.145  12.182  0.00  0.00    +0.007 C 
ATOM     30  C   UNL     1      -3.939  -1.755  11.489  0.00  0.00    +0.007 C 
ENDBRANCH  27  28
ENDBRANCH  23  27
ENDBRANCH  16  17
ENDBRANCH   1  16
TORSDOF 6
