REMARK  Name = ZINC05997146
REMARK  4 active torsions:
REMARK  status: ('A' for Active; 'I' for Inactive)
REMARK    1  A    between atoms: C_6  and  C_7
REMARK    2  A    between atoms: C_11  and  C_19
REMARK    3  A    between atoms: C_17  and  O_18
REMARK    4  A    between atoms: C_19  and  N_46
REMARK                            x       y       z     vdW  Elec       q    Type
REMARK                         _______ _______ _______ _____ _____    ______ ____
ROOT
ATOM      1  C   UNL     1       6.852  -2.693  -0.254  0.00  0.00    +0.059 A 
ATOM      2  C   UNL     1       5.528  -2.975  -0.009  0.00  0.00    +0.207 A 
ATOM      3  O   UNL     1       4.762  -2.156   0.718  0.00  0.00    -0.462 OA
ATOM      4  C   UNL     1       5.249  -1.015   1.245  0.00  0.00    +0.143 A 
ATOM      5  C   UNL     1       4.435  -0.185   1.993  0.00  0.00    +0.026 A 
ATOM      6  C   UNL     1       4.957   0.992   2.537  0.00  0.00    +0.184 A 
ATOM      7  O   UNL     1       4.175   1.791   3.263  0.00  0.00    -0.288 OA
ATOM      8  C   UNL     1       6.305   1.338   2.323  0.00  0.00    +0.052 A 
ATOM      9  C   UNL     1       7.111   0.532   1.585  0.00  0.00    +0.019 A 
ATOM     10  C   UNL     1       6.599  -0.655   1.031  0.00  0.00    +0.060 A 
ATOM     11  C   UNL     1       7.420  -1.507   0.261  0.00  0.00    +0.138 A 
ENDROOT
BRANCH   1  17
ATOM     12  C   UNL     1       8.432  -3.142  -2.130  0.00  0.00    +0.010 A 
ATOM     13  C   UNL     1       9.200  -4.012  -2.877  0.00  0.00    +0.020 A 
ATOM     14  C   UNL     1       9.211  -5.363  -2.576  0.00  0.00    +0.041 A 
ATOM     15  C   UNL     1       8.457  -5.848  -1.522  0.00  0.00    +0.020 A 
ATOM     16  C   UNL     1       7.689  -4.986  -0.766  0.00  0.00    +0.010 A 
ATOM     17  C   UNL     1       7.675  -3.625  -1.064  0.00  0.00    -0.011 A 
ATOM     18 CL   UNL     1      10.174  -6.452  -3.525  0.00  0.00    -0.084 Cl
ENDBRANCH   1  17
BRANCH  11  19
ATOM     19  O   UNL     1       8.716  -1.205   0.037  0.00  0.00    -0.505 OA
ATOM     20  H   UNL     1       9.323  -1.556   0.703  0.00  0.00    +0.292 HD
ENDBRANCH  11  19
BRANCH   5  21
ATOM     21  C   UNL     1       2.991  -0.550   2.226  0.00  0.00    -0.035 C 
BRANCH  21  27
ATOM     22  C   UNL     1       0.793  -0.505   1.212  0.00  0.00    -0.078 C 
ATOM     23  C   UNL     1       0.002  -0.004   0.002  0.00  0.00    -0.019 C 
ATOM     24  C   UNL     1      -0.019   1.527   0.010  0.00  0.00    -0.004 C 
ATOM     25  C   UNL     1       1.421   2.049  -0.001  0.00  0.00    -0.019 C 
ATOM     26  C   UNL     1       2.171   1.488   1.210  0.00  0.00    -0.078 C 
ATOM     27  N   UNL     1       2.176   0.012   1.129  0.00  0.00    +0.383 N 
ATOM     28  H   UNL     1       2.584  -0.271   0.231  0.00  0.00    -0.081 HD
ENDBRANCH  21  27
ENDBRANCH   5  21
TORSDOF 4
