REMARK  Name = ZINC12292883
REMARK  2 active torsions:
REMARK  status: ('A' for Active; 'I' for Inactive)
REMARK    1  A    between atoms: C_4  and  N_7
REMARK    2  A    between atoms: C_11  and  C_12
REMARK                            x       y       z     vdW  Elec       q    Type
REMARK                         _______ _______ _______ _____ _____    ______ ____
ROOT
ATOM      1  N   UNL     1       0.926   3.284   3.156  0.00  0.00    -0.190 N 
ATOM      2  C   UNL     1       1.037   3.800   1.914  0.00  0.00    +0.263 C 
ATOM      3  O   UNL     1       0.575   4.894   1.649  0.00  0.00    -0.269 OA
ATOM      4  C   UNL     1       1.731   3.003   0.888  0.00  0.00    +0.100 C 
ATOM      5  C   UNL     1       1.883   3.470  -0.413  0.00  0.00    +0.027 C 
ATOM      6  C   UNL     1       2.257   1.690   1.300  0.00  0.00    +0.257 C 
ATOM      7  O   UNL     1       2.843   0.975   0.509  0.00  0.00    -0.270 OA
ATOM      8  N   UNL     1       2.073   1.302   2.579  0.00  0.00    -0.235 N 
ATOM      9  C   UNL     1       1.425   2.078   3.460  0.00  0.00    +0.320 C 
ATOM     10  O   UNL     1       1.288   1.668   4.596  0.00  0.00    -0.251 OA
ATOM     11  H   UNL     1       2.413   0.440   2.867  0.00  0.00    +0.159 HD
ENDROOT
BRANCH   5  12
ATOM     12  C   UNL     1       1.508   4.785  -0.737  0.00  0.00    -0.009 A 
ATOM     13  C   UNL     1       0.441   5.026  -1.639  0.00  0.00    -0.010 A 
ATOM     14  C   UNL     1      -0.258   3.962  -2.225  0.00  0.00    +0.009 A 
ATOM     15  C   UNL     1      -1.279   4.219  -3.090  0.00  0.00    +0.001 A 
ATOM     16  C   UNL     1      -1.647   5.525  -3.406  0.00  0.00    +0.001 A 
ATOM     17  C   UNL     1      -1.008   6.592  -2.855  0.00  0.00    +0.008 A 
ATOM     18  C   UNL     1       0.060   6.378  -1.959  0.00  0.00    -0.017 A 
ATOM     19  C   UNL     1       0.745   7.457  -1.393  0.00  0.00    +0.017 A 
ATOM     20  C   UNL     1       1.802   7.232  -0.507  0.00  0.00    -0.017 A 
ATOM     21  C   UNL     1       2.195   5.887  -0.169  0.00  0.00    -0.010 A 
ATOM     22  C   UNL     1       3.259   5.690   0.722  0.00  0.00    +0.009 A 
ATOM     23  C   UNL     1       3.904   6.766   1.254  0.00  0.00    +0.001 A 
ATOM     24  C   UNL     1       3.527   8.068   0.930  0.00  0.00    +0.001 A 
ATOM     25  C   UNL     1       2.502   8.313   0.071  0.00  0.00    +0.008 A 
ENDBRANCH   5  12
BRANCH   1  29
ATOM     26  C   UNL     1      -1.028   5.484   6.108  0.00  0.00    +0.000 A 
ATOM     27  C   UNL     1       0.196   5.910   5.626  0.00  0.00    +0.002 A 
ATOM     28  C   UNL     1       0.847   5.183   4.648  0.00  0.00    +0.024 A 
ATOM     29  C   UNL     1       0.270   4.023   4.148  0.00  0.00    +0.046 A 
ATOM     30  C   UNL     1      -0.962   3.601   4.630  0.00  0.00    +0.024 A 
ATOM     31  C   UNL     1      -1.605   4.329   5.612  0.00  0.00    +0.002 A 
ENDBRANCH   1  29
TORSDOF 2
