REMARK  Name = ZINC19852556
REMARK  10 active torsions:
REMARK  status: ('A' for Active; 'I' for Inactive)
REMARK    1  A    between atoms: C_1  and  C_2
REMARK    2  A    between atoms: C_2  and  O_3
REMARK    3  A    between atoms: O_3  and  C_4
REMARK    4  A    between atoms: C_4  and  C_6
REMARK    5  A    between atoms: C_7  and  C_27
REMARK    6  A    between atoms: N_11  and  C_12
REMARK    7  A    between atoms: C_12  and  C_14
REMARK    8  A    between atoms: C_14  and  S_15
REMARK    9  A    between atoms: S_15  and  C_16
REMARK   10  A    between atoms: C_18  and  C_25
REMARK                            x       y       z     vdW  Elec       q    Type
REMARK                         _______ _______ _______ _____ _____    ______ ____
ROOT
ATOM      1  C   UNL     1       3.709  -3.980  -6.491  0.00  0.00    +0.249 C 
ATOM      2  O   UNL     1       3.407  -5.027  -5.950  0.00  0.00    -0.273 OA
ENDROOT
BRANCH   1   8
ATOM      3  C   UNL     1       1.449  -2.345  -2.517  0.00  0.00    +0.118 A 
ATOM      4  C   UNL     1       1.654  -3.643  -2.866  0.00  0.00    +0.036 A 
ATOM      5  N   UNL     1       2.308  -3.869  -4.019  0.00  0.00    -0.339 N 
ATOM      6  H   UNL     1       2.481  -4.777  -4.315  0.00  0.00    +0.167 HD
ATOM      7  C   UNL     1       2.727  -2.809  -4.767  0.00  0.00    +0.164 A 
ATOM      8  N   UNL     1       3.384  -2.823  -5.926  0.00  0.00    -0.156 NA
ATOM      9  S   UNL     1       2.209  -1.478  -3.879  0.00  0.00    -0.046 S 
ATOM     10  C   UNL     1       1.169  -4.777  -2.000  0.00  0.00    +0.065 C 
BRANCH   3  11
ATOM     11  C   UNL     1       0.776  -1.800  -1.335  0.00  0.00    +0.348 C 
ATOM     12  O   UNL     1       0.312  -2.552  -0.499  0.00  0.00    -0.244 OA
BRANCH  11  13
ATOM     13  O   UNL     1       0.671  -0.465  -1.174  0.00  0.00    -0.461 OA
BRANCH  13  15
ATOM     14  C   UNL     1      -0.019   1.526   0.010  0.00  0.00    +0.048 C 
ATOM     15  C   UNL     1       0.002  -0.004   0.002  0.00  0.00    +0.229 C 
ENDBRANCH  13  15
ENDBRANCH  11  13
ENDBRANCH   3  11
ENDBRANCH   1   8
BRANCH   1  16
ATOM     16  C   UNL     1       4.451  -3.997  -7.802  0.00  0.00    +0.173 C 
BRANCH  16  17
ATOM     17  S   UNL     1       4.746  -5.713  -8.309  0.00  0.00    -0.096 S 
BRANCH  17  18
ATOM     18  C   UNL     1       5.611  -5.564  -9.837  0.00  0.00    +0.104 A 
ATOM     19  C   UNL     1       5.908  -4.320 -10.360  0.00  0.00    +0.058 A 
ATOM     20  C   UNL     1       6.592  -4.242 -11.570  0.00  0.00    +0.045 A 
ATOM     21  N   UNL     1       6.950  -5.338 -12.206  0.00  0.00    -0.216 NA
ATOM     22  C   UNL     1       6.670  -6.550 -11.712  0.00  0.00    +0.254 A 
ATOM     23  N   UNL     1       6.005  -6.677 -10.525  0.00  0.00    -0.190 N 
ATOM     24  N   UNL     1       5.877  -8.051 -10.288  0.00  0.00    -0.151 NA
ATOM     25  C   UNL     1       6.448  -8.669 -11.292  0.00  0.00    +0.247 A 
ATOM     26  N   UNL     1       6.919  -7.777 -12.155  0.00  0.00    -0.197 NA
ATOM     27  C   UNL     1       6.925  -2.894 -12.156  0.00  0.00    +0.066 C 
ENDBRANCH  17  18
ENDBRANCH  16  17
ENDBRANCH   1  16
TORSDOF 7
