REMARK  Name = ZINC56952749
REMARK  5 active torsions:
REMARK  status: ('A' for Active; 'I' for Inactive)
REMARK    1  A    between atoms: C_1  and  N_2
REMARK    2  A    between atoms: N_11  and  C_28
REMARK    3  A    between atoms: N_17  and  C_20
REMARK    4  A    between atoms: C_20  and  C_21
REMARK    5  A    between atoms: C_28  and  C_29
REMARK                            x       y       z     vdW  Elec       q    Type
REMARK                         _______ _______ _______ _____ _____    ______ ____
ROOT
ATOM      1  C   UNL     1      -1.555   1.250  -2.233  0.00  0.00    +0.155 C 
ATOM      2  N   UNL     1      -1.241  -0.002  -1.541  0.00  0.00    -0.280 N 
ATOM      3  C   UNL     1      -2.216  -0.644  -0.794  0.00  0.00    +0.170 A 
ATOM      4  C   UNL     1      -1.891  -1.831  -0.147  0.00  0.00    +0.153 A 
ATOM      5  C   UNL     1      -0.587  -2.345  -0.269  0.00  0.00    +0.280 A 
ATOM      6  O   UNL     1      -0.281  -3.384   0.289  0.00  0.00    -0.265 OA
ATOM      7  N   UNL     1       0.320  -1.675  -1.010  0.00  0.00    -0.273 N 
ATOM      8  H   UNL     1       1.220  -2.027  -1.095  0.00  0.00    +0.173 HD
ATOM      9  C   UNL     1      -0.006  -0.531  -1.635  0.00  0.00    +0.331 A 
ATOM     10  O   UNL     1       0.836   0.043  -2.298  0.00  0.00    -0.246 OA
ATOM     11  N   UNL     1      -3.040  -2.244   0.513  0.00  0.00    -0.302 N 
ATOM     12  C   UNL     1      -3.998  -1.315   0.250  0.00  0.00    +0.201 A 
ATOM     13  N   UNL     1      -3.494  -0.376  -0.525  0.00  0.00    -0.196 NA
ATOM     14  N   UNL     1      -5.291  -1.352   0.719  0.00  0.00    -0.298 N 
ATOM     15  C   UNL     1      -6.428  -1.444  -0.210  0.00  0.00    +0.123 C 
ATOM     16  C   UNL     1      -7.430  -0.338   0.137  0.00  0.00    +0.103 C 
ATOM     17  N   UNL     1      -7.782  -0.429   1.561  0.00  0.00    -0.295 NA
ATOM     18  C   UNL     1      -6.609  -0.199   2.415  0.00  0.00    +0.103 C 
ATOM     19  C   UNL     1      -5.572  -1.305   2.161  0.00  0.00    +0.123 C 
ENDROOT
BRANCH  17  20
ATOM     20  C   UNL     1      -8.867   0.502   1.896  0.00  0.00    +0.119 C 
BRANCH  20  21
ATOM     21  C   UNL     1      -9.366   0.212   3.288  0.00  0.00    -0.033 A 
ATOM     22  C   UNL     1     -10.390  -0.697   3.480  0.00  0.00    +0.006 A 
ATOM     23  C   UNL     1     -10.848  -0.963   4.757  0.00  0.00    +0.020 A 
ATOM     24  C   UNL     1     -10.281  -0.321   5.843  0.00  0.00    +0.041 A 
ATOM     25  C   UNL     1      -9.256   0.589   5.650  0.00  0.00    +0.020 A 
ATOM     26  C   UNL     1      -8.796   0.850   4.373  0.00  0.00    +0.006 A 
ATOM     27 CL   UNL     1     -10.856  -0.654   7.446  0.00  0.00    -0.084 Cl
ENDBRANCH  20  21
ENDBRANCH  17  20
BRANCH  11  28
ATOM     28  C   UNL     1      -3.192  -3.447   1.334  0.00  0.00    +0.162 C 
BRANCH  28  29
ATOM     29  C   UNL     1      -3.746  -4.566   0.489  0.00  0.00    -0.009 A 
ATOM     30  C   UNL     1      -5.062  -4.526   0.067  0.00  0.00    +0.007 A 
ATOM     31  C   UNL     1      -5.570  -5.551  -0.708  0.00  0.00    +0.000 A 
ATOM     32  C   UNL     1      -4.763  -6.617  -1.061  0.00  0.00    +0.001 A 
ATOM     33  C   UNL     1      -3.448  -6.658  -0.639  0.00  0.00    +0.020 A 
ATOM     34  C   UNL     1      -2.937  -5.629   0.132  0.00  0.00    +0.046 A 
ATOM     35 CL   UNL     1      -1.283  -5.676   0.657  0.00  0.00    -0.083 Cl
ENDBRANCH  28  29
ENDBRANCH  11  28
TORSDOF 4
