REMARK  Name = ZINC60362662
REMARK  7 active torsions:
REMARK  status: ('A' for Active; 'I' for Inactive)
REMARK    1  A    between atoms: N_4  and  C_7
REMARK    2  A    between atoms: C_14  and  N_16
REMARK    3  A    between atoms: C_17  and  C_19
REMARK    4  A    between atoms: C_19  and  C_20
REMARK    5  A    between atoms: C_20  and  C_21
REMARK    6  A    between atoms: C_21  and  N_22
REMARK    7  A    between atoms: C_23  and  C_25
REMARK                            x       y       z     vdW  Elec       q    Type
REMARK                         _______ _______ _______ _____ _____    ______ ____
ROOT
ATOM      1  C   UNL     1       2.973  -0.540   2.231  0.00  0.00    -0.025 C 
ATOM      2  C   UNL     1       2.836  -2.079   2.225  0.00  0.00    +0.152 C 
ATOM      3  S   UNL     1       4.396  -2.576   1.374  0.00  0.00    -0.031 S 
ATOM      4  O   UNL     1       4.223  -2.461  -0.032  0.00  0.00    -0.174 OA
ATOM      5  O   UNL     1       4.867  -3.797   1.929  0.00  0.00    -0.174 OA
ATOM      6  C   UNL     1       5.448  -1.184   1.976  0.00  0.00    +0.186 C 
ATOM      7  C   UNL     1       4.407  -0.052   2.092  0.00  0.00    +0.082 C 
ENDROOT
BRANCH   1  11
ATOM      8  C   UNL     1       0.072   1.647   0.005  0.00  0.00    -0.004 C 
ATOM      9  C   UNL     1       1.550   2.036  -0.098  0.00  0.00    -0.019 C 
ATOM     10  C   UNL     1       2.305   1.468   1.106  0.00  0.00    -0.078 C 
ATOM     11  N   UNL     1       2.183   0.005   1.120  0.00  0.00    +0.384 N 
ATOM     12  C   UNL     1       0.775  -0.374   1.290  0.00  0.00    -0.078 C 
ATOM     13  C   UNL     1      -0.040   0.122   0.094  0.00  0.00    -0.019 C 
ATOM     14  H   UNL     1       2.528  -0.368   0.249  0.00  0.00    -0.081 HD
ENDBRANCH   1  11
BRANCH   7  15
ATOM     15  N   UNL     1       4.739   0.764   3.263  0.00  0.00    -0.312 N 
ATOM     16  C   UNL     1       5.703   1.702   3.179  0.00  0.00    +0.213 C 
ATOM     17  O   UNL     1       6.297   1.870   2.134  0.00  0.00    -0.276 OA
ATOM     18  H   UNL     1       4.264   0.630   4.098  0.00  0.00    +0.149 HD
BRANCH  16  19
ATOM     19  C   UNL     1       6.045   2.542   4.382  0.00  0.00    +0.097 C 
BRANCH  19  20
ATOM     20  C   UNL     1       7.163   3.521   4.021  0.00  0.00    +0.028 C 
BRANCH  20  21
ATOM     21  C   UNL     1       7.510   4.374   5.243  0.00  0.00    +0.104 C 
BRANCH  21  22
ATOM     22  N   UNL     1       8.581   5.311   4.896  0.00  0.00    -0.315 N 
ATOM     23  C   UNL     1       9.052   6.168   5.824  0.00  0.00    +0.216 C 
ATOM     24  O   UNL     1       8.589   6.164   6.945  0.00  0.00    -0.276 OA
ATOM     25  H   UNL     1       8.951   5.315   4.000  0.00  0.00    +0.149 HD
BRANCH  23  26
ATOM     26  C   UNL     1      10.154   7.133   5.467  0.00  0.00    +0.075 C 
ATOM     27  C   UNL     1      11.524   6.910   6.113  0.00  0.00    +0.013 C 
ATOM     28  C   UNL     1      10.646   8.080   6.564  0.00  0.00    +0.013 C 
ENDBRANCH  23  26
ENDBRANCH  21  22
ENDBRANCH  20  21
ENDBRANCH  19  20
ENDBRANCH  16  19
ENDBRANCH   7  15
TORSDOF 7
