REMARK  Name = ZINC39890612
REMARK  8 active torsions:
REMARK  status: ('A' for Active; 'I' for Inactive)
REMARK    1  A    between atoms: C_1  and  C_2
REMARK    2  A    between atoms: C_6  and  C_8
REMARK    3  A    between atoms: C_8  and  N_9
REMARK    4  A    between atoms: C_24  and  C_37
REMARK    5  A    between atoms: N_32  and  C_33
REMARK    6  A    between atoms: C_33  and  C_34
REMARK    7  A    between atoms: C_34  and  C_35
REMARK    8  A    between atoms: C_35  and  O_36
REMARK                            x       y       z     vdW  Elec       q    Type
REMARK                         _______ _______ _______ _____ _____    ______ ____
ROOT
ATOM      1  N   UNL     1       1.440  -3.073   2.903  0.00  0.00    -0.264 N 
ATOM      2  C   UNL     1       2.184  -4.181   2.538  0.00  0.00    +0.043 A 
ATOM      3  C   UNL     1       1.820  -5.271   1.745  0.00  0.00    +0.024 A 
ATOM      4  C   UNL     1       2.775  -6.254   1.541  0.00  0.00    +0.002 A 
ATOM      5  C   UNL     1       4.037  -6.172   2.093  0.00  0.00    +0.000 A 
ATOM      6  C   UNL     1       4.413  -5.092   2.884  0.00  0.00    +0.008 A 
ATOM      7  C   UNL     1       3.469  -4.109   3.091  0.00  0.00    +0.011 A 
ATOM      8  C   UNL     1       3.518  -2.832   3.865  0.00  0.00    +0.174 C 
ATOM      9  C   UNL     1       2.145  -2.224   3.681  0.00  0.00    +0.253 C 
ATOM     10  O   UNL     1       1.751  -1.176   4.146  0.00  0.00    -0.272 OA
ATOM     11  C   UNL     1       3.839  -3.044   5.303  0.00  0.00    +0.084 A 
ATOM     12  C   UNL     1       3.179  -3.845   6.340  0.00  0.00    +0.199 A 
ATOM     13  O   UNL     1       2.288  -4.641   6.101  0.00  0.00    -0.287 OA
ATOM     14  C   UNL     1       3.700  -3.595   7.708  0.00  0.00    +0.065 A 
ATOM     15  C   UNL     1       3.051  -4.132   8.820  0.00  0.00    +0.018 A 
ATOM     16  C   UNL     1       3.539  -3.887  10.073  0.00  0.00    -0.050 A 
ATOM     17  C   UNL     1       4.674  -3.106  10.241  0.00  0.00    +0.007 A 
ATOM     18  C   UNL     1       5.328  -2.570   9.154  0.00  0.00    +0.047 A 
ATOM     19  C   UNL     1       4.853  -2.810   7.865  0.00  0.00    +0.139 A 
ATOM     20  O   UNL     1       5.520  -2.286   6.811  0.00  0.00    -0.450 OA
ATOM     21  C   UNL     1       4.959  -2.313   5.586  0.00  0.00    +0.200 A 
ATOM     22  C   UNL     1       5.385  -1.623   4.356  0.00  0.00    +0.284 C 
ATOM     23  O   UNL     1       6.349  -0.888   4.266  0.00  0.00    -0.267 OA
ATOM     24  N   UNL     1       4.546  -1.925   3.341  0.00  0.00    -0.273 N 
ATOM     25  C   UNL     1       2.842  -4.467  11.277  0.00  0.00    +0.044 C 
ENDROOT
BRANCH   1  26
ATOM     26  C   UNL     1       0.054  -2.845   2.489  0.00  0.00    +0.148 C 
BRANCH  26  32
ATOM     27  C   UNL     1      -0.018   1.503   0.010  0.00  0.00    +0.044 C 
ATOM     28  C   UNL     1       0.002  -0.004   0.002  0.00  0.00    -0.050 A 
ATOM     29  C   UNL     1       0.006  -0.689  -1.199  0.00  0.00    +0.003 A 
ATOM     30  C   UNL     1       0.025  -2.071  -1.207  0.00  0.00    +0.001 A 
ATOM     31  C   UNL     1       0.040  -2.768  -0.013  0.00  0.00    +0.005 A 
ATOM     32  C   UNL     1       0.037  -2.084   1.188  0.00  0.00    -0.029 A 
ATOM     33  C   UNL     1       0.023  -0.702   1.195  0.00  0.00    +0.008 A 
ENDBRANCH  26  32
ENDBRANCH   1  26
BRANCH  24  34
ATOM     34  C   UNL     1       4.645  -1.436   1.964  0.00  0.00    +0.112 C 
BRANCH  34  35
ATOM     35  C   UNL     1       3.855  -0.133   1.828  0.00  0.00    +0.047 C 
BRANCH  35  36
ATOM     36  C   UNL     1       3.958   0.379   0.390  0.00  0.00    +0.157 C 
BRANCH  36  37
ATOM     37  O   UNL     1       3.220   1.596   0.263  0.00  0.00    -0.395 OA
ATOM     38  H   UNL     1       3.241   1.978  -0.625  0.00  0.00    +0.209 HD
ENDBRANCH  36  37
ENDBRANCH  35  36
ENDBRANCH  34  35
ENDBRANCH  24  34
TORSDOF 6
