REMARK  Name = ZINC09646589
REMARK  12 active torsions:
REMARK  status: ('A' for Active; 'I' for Inactive)
REMARK    1  A    between atoms: C_1  and  C_2
REMARK    2  A    between atoms: C_2  and  O_3
REMARK    3  A    between atoms: O_3  and  C_4
REMARK    4  A    between atoms: C_7  and  N_10
REMARK    5  A    between atoms: C_11  and  C_25
REMARK    6  A    between atoms: C_14  and  S_15
REMARK    7  A    between atoms: S_15  and  C_16
REMARK    8  A    between atoms: C_16  and  C_17
REMARK    9  A    between atoms: C_28  and  C_31
REMARK   10  A    between atoms: C_31  and  C_32
REMARK   11  A    between atoms: C_31  and  C_33
REMARK   12  A    between atoms: C_31  and  C_34
REMARK                            x       y       z     vdW  Elec       q    Type
REMARK                         _______ _______ _______ _____ _____    ______ ____
ROOT
ATOM      1  N   UNL     1      -3.764   1.532  -0.158  0.00  0.00    -0.270 N 
ATOM      2  C   UNL     1      -2.501   0.983  -0.131  0.00  0.00    +0.169 A 
ATOM      3  N   UNL     1      -2.643  -0.300   0.109  0.00  0.00    -0.128 NA
ATOM      4  N   UNL     1      -3.890  -0.589   0.228  0.00  0.00    -0.122 NA
ATOM      5  C   UNL     1      -4.622   0.492   0.071  0.00  0.00    +0.197 A 
ENDROOT
BRANCH   1   9
ATOM      6  C   UNL     1      -4.764   5.529  -0.809  0.00  0.00    +0.121 A 
ATOM      7  C   UNL     1      -5.095   4.569  -1.754  0.00  0.00    +0.047 A 
ATOM      8  C   UNL     1      -4.764   3.246  -1.539  0.00  0.00    +0.030 A 
ATOM      9  C   UNL     1      -4.100   2.877  -0.377  0.00  0.00    +0.051 A 
ATOM     10  C   UNL     1      -3.774   3.837   0.571  0.00  0.00    +0.030 A 
ATOM     11  C   UNL     1      -4.101   5.161   0.353  0.00  0.00    +0.047 A 
BRANCH   6  12
ATOM     12  O   UNL     1      -5.090   6.832  -1.021  0.00  0.00    -0.492 OA
BRANCH  12  14
ATOM     13  C   UNL     1      -5.165   9.171  -0.419  0.00  0.00    +0.048 C 
ATOM     14  C   UNL     1      -4.719   7.767  -0.006  0.00  0.00    +0.225 C 
ENDBRANCH  12  14
ENDBRANCH   6  12
ENDBRANCH   1   9
BRANCH   2  15
ATOM     15  C   UNL     1      -1.225   1.704  -0.329  0.00  0.00    +0.020 A 
ATOM     16  C   UNL     1      -1.218   2.962  -0.932  0.00  0.00    +0.012 A 
ATOM     17  C   UNL     1      -0.024   3.632  -1.109  0.00  0.00    +0.005 A 
ATOM     18  C   UNL     1       1.164   3.055  -0.696  0.00  0.00    -0.042 A 
ATOM     19  C   UNL     1       1.163   1.806  -0.102  0.00  0.00    +0.005 A 
ATOM     20  C   UNL     1      -0.023   1.126   0.082  0.00  0.00    +0.012 A 
BRANCH  18  21
ATOM     21  C   UNL     1       2.463   3.792  -0.892  0.00  0.00    -0.013 C 
ATOM     22  C   UNL     1       2.414   5.123  -0.139  0.00  0.00    +0.015 C 
ATOM     23  C   UNL     1       3.617   2.944  -0.353  0.00  0.00    +0.015 C 
ATOM     24  C   UNL     1       2.679   4.058  -2.384  0.00  0.00    +0.015 C 
ENDBRANCH  18  21
ENDBRANCH   2  15
BRANCH   5  25
ATOM     25  S   UNL     1      -6.380   0.584   0.147  0.00  0.00    -0.078 S 
BRANCH  25  26
ATOM     26  C   UNL     1      -6.771  -1.151   0.483  0.00  0.00    +0.153 C 
BRANCH  26  27
ATOM     27  C   UNL     1      -8.265  -1.317   0.592  0.00  0.00    +0.146 A 
ATOM     28  N   UNL     1      -8.858  -1.191   1.766  0.00  0.00    -0.199 NA
ATOM     29  C   UNL     1     -10.178  -1.332   1.866  0.00  0.00    +0.217 A 
ATOM     30  N   UNL     1     -10.898  -1.610   0.784  0.00  0.00    -0.181 NA
ATOM     31  C   UNL     1     -10.297  -1.742  -0.393  0.00  0.00    +0.217 A 
ATOM     32  N   UNL     1      -8.978  -1.594  -0.486  0.00  0.00    -0.199 NA
ATOM     33  N   UNL     1     -11.041  -2.031  -1.519  0.00  0.00    -0.327 N 
ATOM     34  N   UNL     1     -10.797  -1.195   3.091  0.00  0.00    -0.327 N 
ATOM     35  H   UNL     1     -10.602  -2.127  -2.379  0.00  0.00    +0.145 HD
ATOM     36  H   UNL     1     -12.002  -2.139  -1.451  0.00  0.00    +0.145 HD
ATOM     37  H   UNL     1     -11.758  -1.302   3.164  0.00  0.00    +0.145 HD
ATOM     38  H   UNL     1     -10.271  -0.992   3.881  0.00  0.00    +0.145 HD
ENDBRANCH  26  27
ENDBRANCH  25  26
ENDBRANCH   5  25
TORSDOF 8
