REMARK  Name = ZINC45323759
REMARK  5 active torsions:
REMARK  status: ('A' for Active; 'I' for Inactive)
REMARK    1  A    between atoms: C_1  and  C_2
REMARK    2  A    between atoms: C_3  and  N_23
REMARK    3  A    between atoms: C_4  and  C_21
REMARK    4  A    between atoms: C_10  and  N_11
REMARK    5  A    between atoms: N_23  and  C_24
REMARK                            x       y       z     vdW  Elec       q    Type
REMARK                         _______ _______ _______ _____ _____    ______ ____
ROOT
ATOM      1  C   UNL     1      -0.652   1.569  -0.233  0.00  0.00    +0.049 C 
ATOM      2  C   UNL     1      -0.340   0.104  -0.067  0.00  0.00    +0.012 A 
ATOM      3  C   UNL     1      -1.373  -0.787   0.248  0.00  0.00    +0.053 A 
ATOM      4  C   UNL     1      -1.073  -2.150   0.401  0.00  0.00    +0.098 A 
ATOM      5  C   UNL     1       0.316  -2.578   0.223  0.00  0.00    +0.088 A 
ATOM      6  C   UNL     1       0.945  -3.807   0.298  0.00  0.00    +0.050 A 
ATOM      7  C   UNL     1       2.294  -3.604   0.031  0.00  0.00    +0.135 A 
ATOM      8  N   UNL     1       2.495  -2.328  -0.197  0.00  0.00    -0.173 NA
ATOM      9  N   UNL     1       1.275  -1.649  -0.085  0.00  0.00    -0.217 N 
ATOM     10  C   UNL     1       0.937  -0.330  -0.231  0.00  0.00    +0.131 A 
ENDROOT
BRANCH  10  11
ATOM     11  N   UNL     1       1.922   0.585  -0.546  0.00  0.00    -0.278 N 
ATOM     12  C   UNL     1       2.663   0.431  -1.703  0.00  0.00    +0.165 A 
ATOM     13  N   UNL     1       2.636  -0.551  -2.575  0.00  0.00    -0.225 NA
ATOM     14  C   UNL     1       3.424  -0.571  -3.671  0.00  0.00    +0.080 A 
ATOM     15  C   UNL     1       3.493  -1.560  -4.679  0.00  0.00    +0.029 A 
ATOM     16  C   UNL     1       4.356  -1.426  -5.735  0.00  0.00    +0.002 A 
ATOM     17  C   UNL     1       5.190  -0.323  -5.853  0.00  0.00    +0.001 A 
ATOM     18  C   UNL     1       5.149   0.664  -4.885  0.00  0.00    +0.017 A 
ATOM     19  C   UNL     1       4.287   0.538  -3.825  0.00  0.00    +0.041 A 
ATOM     20  S   UNL     1       3.898   1.521  -2.397  0.00  0.00    -0.052 S 
ATOM     21  H   UNL     1       2.094   1.336   0.043  0.00  0.00    +0.155 HD
ENDBRANCH  10  11
BRANCH   4  22
ATOM     22  C   UNL     1      -2.099  -3.096   0.724  0.00  0.00    +0.103 C 
ATOM     23  N   UNL     1      -2.912  -3.847   0.980  0.00  0.00    -0.191 NA
ENDBRANCH   4  22
BRANCH   3  24
ATOM     24  N   UNL     1      -2.671  -0.331   0.407  0.00  0.00    -0.341 N 
ATOM     25  H   UNL     1      -3.364  -0.617  -0.208  0.00  0.00    +0.146 HD
BRANCH  24  26
ATOM     26  C   UNL     1      -2.996   0.585   1.503  0.00  0.00    +0.053 C 
ATOM     27  C   UNL     1      -3.183  -0.212   2.797  0.00  0.00    +0.018 C 
ATOM     28  C   UNL     1      -3.599   0.743   3.919  0.00  0.00    -0.017 C 
ATOM     29  C   UNL     1      -4.873   1.483   3.505  0.00  0.00    -0.082 C 
ATOM     30  N   UNL     1      -4.623   2.246   2.276  0.00  0.00    +0.380 N 
ATOM     31  C   UNL     1      -4.292   1.331   1.178  0.00  0.00    -0.060 C 
ATOM     32  H   UNL     1      -5.448   2.775   2.036  0.00  0.00    -0.086 HD
ATOM     33  H   UNL     1      -3.853   2.880   2.427  0.00  0.00    -0.086 HD
ENDBRANCH  24  26
ENDBRANCH   3  24
TORSDOF 4
