REMARK  Name = ZINC37004999
REMARK  6 active torsions:
REMARK  status: ('A' for Active; 'I' for Inactive)
REMARK    1  A    between atoms: C_1  and  C_2
REMARK    2  A    between atoms: C_5  and  C_7
REMARK    3  A    between atoms: C_7  and  C_9
REMARK    4  A    between atoms: C_7  and  N_10
REMARK    5  A    between atoms: N_10  and  C_11
REMARK    6  A    between atoms: C_13  and  N_18
REMARK                            x       y       z     vdW  Elec       q    Type
REMARK                         _______ _______ _______ _____ _____    ______ ____
ROOT
ATOM      1  C   UNL     1       3.532  -4.027   1.433  0.00  0.00    +0.048 A 
ATOM      2  C   UNL     1       3.169  -5.338   1.160  0.00  0.00    +0.052 A 
ATOM      3  C   UNL     1       3.880  -6.384   1.729  0.00  0.00    +0.071 A 
ATOM      4  C   UNL     1       4.951  -6.118   2.571  0.00  0.00    +0.029 A 
ATOM      5  C   UNL     1       5.311  -4.812   2.843  0.00  0.00    +0.024 A 
ATOM      6  C   UNL     1       4.610  -3.766   2.272  0.00  0.00    +0.062 A 
ATOM      7 CL   UNL     1       5.070  -2.126   2.609  0.00  0.00    -0.082 Cl
ENDROOT
BRANCH   3   8
ATOM      8  N   UNL     1       3.515  -7.711   1.456  0.00  0.00    -0.200 N 
ATOM      9  C   UNL     1       4.094  -8.835   1.930  0.00  0.00    +0.250 A 
ATOM     10  N   UNL     1       3.443  -9.850   1.425  0.00  0.00    -0.116 NA
ATOM     11  N   UNL     1       2.491  -9.444   0.664  0.00  0.00    -0.023 NA
ATOM     12  N   UNL     1       2.465  -8.155   0.633  0.00  0.00    -0.039 NA
ENDBRANCH   3   8
BRANCH   1  13
ATOM     13  N   UNL     1       2.819  -2.969   0.861  0.00  0.00    -0.333 N 
ATOM     14  H   UNL     1       3.076  -2.053   1.050  0.00  0.00    +0.147 HD
BRANCH  13  15
ATOM     15  C   UNL     1       1.684  -3.245  -0.023  0.00  0.00    +0.133 C 
ATOM     16  C   UNL     1       2.192  -3.480  -1.447  0.00  0.00    +0.036 C 
BRANCH  15  21
ATOM     17  C   UNL     1      -0.018   1.503   0.010  0.00  0.00    +0.086 C 
ATOM     18  C   UNL     1       0.002  -0.004   0.002  0.00  0.00    +0.102 A 
ATOM     19  C   UNL     1      -1.078  -0.805   0.003  0.00  0.00    +0.045 A 
ATOM     20  C   UNL     1      -0.601  -2.136  -0.007  0.00  0.00    +0.047 A 
ATOM     21  C   UNL     1       0.742  -2.069  -0.013  0.00  0.00    +0.125 A 
ATOM     22  O   UNL     1       1.102  -0.775  -0.013  0.00  0.00    -0.463 OA
ENDBRANCH  15  21
ENDBRANCH  13  15
ENDBRANCH   1  13
TORSDOF 4
