REMARK  Name = ZINC19940295
REMARK  8 active torsions:
REMARK  status: ('A' for Active; 'I' for Inactive)
REMARK    1  A    between atoms: C_1  and  C_2
REMARK    2  A    between atoms: C_4  and  C_40
REMARK    3  A    between atoms: C_9  and  C_14
REMARK    4  A    between atoms: C_14  and  C_16
REMARK    5  A    between atoms: C_14  and  N_27
REMARK    6  A    between atoms: N_20  and  C_21
REMARK    7  A    between atoms: N_30  and  C_33
REMARK    8  A    between atoms: C_33  and  C_34
REMARK                            x       y       z     vdW  Elec       q    Type
REMARK                         _______ _______ _______ _____ _____    ______ ____
ROOT
ATOM      1  C   UNL     1       1.029  -2.556   4.935  0.00  0.00    +0.162 C 
ENDROOT
BRANCH   1  10
ATOM      2  C   UNL     1       4.923   0.693  10.403  0.00  0.00    +0.044 C 
ATOM      3  C   UNL     1       4.866  -0.078   9.109  0.00  0.00    -0.050 A 
ATOM      4  C   UNL     1       6.045  -0.455   8.480  0.00  0.00    +0.008 A 
ATOM      5  C   UNL     1       6.016  -1.161   7.297  0.00  0.00    -0.026 A 
ATOM      6  C   UNL     1       4.794  -1.498   6.724  0.00  0.00    +0.052 A 
ATOM      7  C   UNL     1       3.601  -1.114   7.364  0.00  0.00    -0.001 A 
ATOM      8  C   UNL     1       3.655  -0.399   8.566  0.00  0.00    +0.013 A 
ATOM      9  C   UNL     1       2.320  -1.475   6.754  0.00  0.00    +0.021 A 
ATOM     10  C   UNL     1       2.330  -2.169   5.590  0.00  0.00    +0.042 A 
ATOM     11  C   UNL     1       3.555  -2.535   4.991  0.00  0.00    +0.254 A 
ATOM     12  O   UNL     1       3.541  -3.163   3.946  0.00  0.00    -0.268 OA
ATOM     13  N   UNL     1       4.736  -2.204   5.541  0.00  0.00    -0.322 N 
ATOM     14  H   UNL     1       5.665  -2.503   5.033  0.00  0.00    +0.169 HD
ATOM     15  C   UNL     1       7.304  -1.563   6.625  0.00  0.00    +0.046 C 
ENDBRANCH   1  10
BRANCH   1  16
ATOM     16  N   UNL     1       1.009  -2.059   3.553  0.00  0.00    -0.286 NA
ATOM     17  C   UNL     1      -0.248  -2.419   2.882  0.00  0.00    +0.101 C 
ATOM     18  C   UNL     1      -0.196  -1.954   1.425  0.00  0.00    +0.100 C 
ATOM     19  N   UNL     1       0.022  -0.501   1.384  0.00  0.00    -0.296 NA
ATOM     20  C   UNL     1       1.279  -0.141   2.055  0.00  0.00    +0.100 C 
ATOM     21  C   UNL     1       1.227  -0.606   3.513  0.00  0.00    +0.101 C 
BRANCH  19  22
ATOM     22  C   UNL     1       0.002  -0.004   0.002  0.00  0.00    +0.119 C 
BRANCH  22  23
ATOM     23  C   UNL     1      -0.018   1.503   0.010  0.00  0.00    -0.033 A 
ATOM     24  C   UNL     1      -1.225   2.178   0.020  0.00  0.00    +0.005 A 
ATOM     25  C   UNL     1      -1.244   3.560   0.032  0.00  0.00    +0.000 A 
ATOM     26  C   UNL     1      -0.056   4.267   0.025  0.00  0.00    +0.000 A 
ATOM     27  C   UNL     1       1.151   3.592   0.010  0.00  0.00    +0.000 A 
ATOM     28  C   UNL     1       1.169   2.210   0.003  0.00  0.00    +0.005 A 
ENDBRANCH  22  23
ENDBRANCH  19  22
ENDBRANCH   1  16
BRANCH   1  29
ATOM     29  C   UNL     1       0.896  -4.057   4.931  0.00  0.00    +0.173 A 
ATOM     30  N   UNL     1       1.533  -4.897   4.152  0.00  0.00    -0.111 NA
ATOM     31  N   UNL     1       1.149  -6.089   4.454  0.00  0.00    -0.023 NA
ATOM     32  N   UNL     1       0.283  -6.032   5.405  0.00  0.00    -0.044 NA
ATOM     33  N   UNL     1       0.104  -4.796   5.730  0.00  0.00    -0.224 N 
BRANCH  33  34
ATOM     34  C   UNL     1      -0.794  -4.292   6.772  0.00  0.00    +0.111 C 
ATOM     35  C   UNL     1      -0.385  -4.875   8.125  0.00  0.00    +0.027 C 
ATOM     36  C   UNL     1      -1.323  -4.348   9.213  0.00  0.00    +0.002 C 
ATOM     37  C   UNL     1      -2.760  -4.764   8.892  0.00  0.00    +0.000 C 
ATOM     38  C   UNL     1      -3.170  -4.181   7.538  0.00  0.00    +0.002 C 
ATOM     39  C   UNL     1      -2.231  -4.708   6.451  0.00  0.00    +0.027 C 
ENDBRANCH  33  34
ENDBRANCH   1  29
TORSDOF 6
