REMARK  Name = ZINC09350478
REMARK  15 active torsions:
REMARK  status: ('A' for Active; 'I' for Inactive)
REMARK    1  A    between atoms: C_1  and  C_2
REMARK    2  A    between atoms: C_2  and  O_3
REMARK    3  A    between atoms: O_3  and  C_4
REMARK    4  A    between atoms: C_6  and  C_14
REMARK    5  A    between atoms: C_9  and  O_10
REMARK    6  A    between atoms: O_10  and  C_11
REMARK    7  A    between atoms: C_11  and  C_12
REMARK    8  A    between atoms: C_17  and  C_18
REMARK    9  A    between atoms: C_17  and  O_29
REMARK   10  A    between atoms: C_25  and  C_28
REMARK   11  A    between atoms: N_34  and  C_35
REMARK   12  A    between atoms: C_35  and  C_36
REMARK   13  A    between atoms: C_36  and  N_71
REMARK   14  A    between atoms: C_37  and  N_71
REMARK   15  A    between atoms: C_38  and  N_71
REMARK                            x       y       z     vdW  Elec       q    Type
REMARK                         _______ _______ _______ _____ _____    ______ ____
ROOT
ATOM      1  C   UNL     1       0.581   3.439  -0.334  0.00  0.00    +0.144 C 
ATOM      2  C   UNL     1       1.144   2.037  -0.329  0.00  0.00    +0.071 C 
ATOM      3  C   UNL     1       2.436   1.662  -0.012  0.00  0.00    +0.133 C 
ATOM      4  C   UNL     1       0.091   1.192  -0.710  0.00  0.00    +0.249 C 
ATOM      5  O   UNL     1       0.152  -0.019  -0.823  0.00  0.00    -0.282 OA
ATOM      6  C   UNL     1      -1.111   2.032  -0.958  0.00  0.00    +0.288 C 
ATOM      7  O   UNL     1      -2.195   1.611  -1.309  0.00  0.00    -0.266 OA
ATOM      8  N   UNL     1      -0.824   3.326  -0.734  0.00  0.00    -0.285 N 
ENDROOT
BRANCH   3   9
ATOM      9  C   UNL     1       2.784   0.236   0.088  0.00  0.00    +0.017 A 
ATOM     10  C   UNL     1       3.889  -0.271  -0.606  0.00  0.00    +0.015 A 
ATOM     11  C   UNL     1       4.211  -1.603  -0.512  0.00  0.00    +0.046 A 
ATOM     12  C   UNL     1       3.442  -2.464   0.274  0.00  0.00    +0.124 A 
ATOM     13  C   UNL     1       2.347  -1.954   0.966  0.00  0.00    -0.002 A 
ATOM     14  C   UNL     1       2.017  -0.624   0.884  0.00  0.00    +0.019 A 
ATOM     15  C   UNL     1       1.728  -3.108   1.730  0.00  0.00    +0.083 C 
ATOM     16  C   UNL     1       2.852  -4.169   1.671  0.00  0.00    +0.175 C 
ATOM     17  O   UNL     1       3.576  -3.801   0.485  0.00  0.00    -0.488 OA
ATOM     18  C   UNL     1       3.751  -4.076   2.906  0.00  0.00    +0.052 C 
ENDBRANCH   3   9
BRANCH   1  21
ATOM     19  C   UNL     1       1.777   5.493   2.603  0.00  0.00    +0.162 A 
ATOM     20  C   UNL     1       1.686   4.940   1.336  0.00  0.00    +0.055 A 
ATOM     21  C   UNL     1       0.678   4.039   1.045  0.00  0.00    -0.019 A 
ATOM     22  C   UNL     1      -0.244   3.692   2.015  0.00  0.00    +0.009 A 
ATOM     23  C   UNL     1      -0.155   4.235   3.283  0.00  0.00    +0.050 A 
ATOM     24  C   UNL     1       0.852   5.139   3.581  0.00  0.00    +0.162 A 
BRANCH  19  25
ATOM     25  O   UNL     1       2.768   6.379   2.891  0.00  0.00    -0.489 OA
BRANCH  25  27
ATOM     26  C   UNL     1       4.717   7.700   2.347  0.00  0.00    +0.048 C 
ATOM     27  C   UNL     1       3.681   6.695   1.839  0.00  0.00    +0.226 C 
ENDBRANCH  25  27
ENDBRANCH  19  25
BRANCH  24  28
ATOM     28  O   UNL     1       0.937   5.678   4.827  0.00  0.00    -0.484 OA
BRANCH  28  29
ATOM     29  C   UNL     1      -0.046   5.269   5.780  0.00  0.00    +0.256 C 
BRANCH  29  30
ATOM     30  C   UNL     1       0.206   5.965   7.092  0.00  0.00    +0.006 C 
ATOM     31  C   UNL     1      -0.791   6.497   7.754  0.00  0.00    +0.007 C 
ENDBRANCH  29  30
ENDBRANCH  28  29
ENDBRANCH  24  28
ENDBRANCH   1  21
BRANCH   3  32
ATOM     32  O   UNL     1       3.378   2.604   0.204  0.00  0.00    -0.506 OA
ATOM     33  H   UNL     1       4.249   2.162   0.420  0.00  0.00    +0.292 HD
ENDBRANCH   3  32
BRANCH   8  34
ATOM     34  C   UNL     1      -1.762   4.442  -0.873  0.00  0.00    +0.090 C 
BRANCH  34  35
ATOM     35  C   UNL     1      -1.707   4.979  -2.305  0.00  0.00    -0.060 C 
BRANCH  35  38
ATOM     36  C   UNL     1      -2.456   6.791  -3.726  0.00  0.00    -0.097 C 
ATOM     37  C   UNL     1      -4.036   5.642  -2.296  0.00  0.00    -0.097 C 
ATOM     38  N   UNL     1      -2.643   6.117  -2.423  0.00  0.00    +0.377 N 
ATOM     39  H   UNL     1      -2.449   6.788  -1.670  0.00  0.00    -0.083 HD
ENDBRANCH  35  38
ENDBRANCH  34  35
ENDBRANCH   8  34
TORSDOF 11
