REMARK  Name = ZINC13285645
REMARK  7 active torsions:
REMARK  status: ('A' for Active; 'I' for Inactive)
REMARK    1  A    between atoms: C_1  and  C_2
REMARK    2  A    between atoms: C_2  and  N_3
REMARK    3  A    between atoms: C_7  and  N_30
REMARK    4  A    between atoms: N_12  and  C_13
REMARK    5  A    between atoms: C_13  and  C_15
REMARK    6  A    between atoms: C_18  and  S_21
REMARK    7  A    between atoms: S_21  and  N_24
REMARK                            x       y       z     vdW  Elec       q    Type
REMARK                         _______ _______ _______ _____ _____    ______ ____
ROOT
ATOM      1  C   UNL     1      -3.151   2.993   5.053  0.00  0.00    +0.269 C 
ATOM      2  O   UNL     1      -3.924   2.236   5.614  0.00  0.00    -0.268 OA
ENDROOT
BRANCH   1  12
ATOM      3  N   UNL     1      -3.502   5.814   7.276  0.00  0.00    -0.321 N 
ATOM      4  C   UNL     1      -4.250   6.043   8.416  0.00  0.00    +0.058 A 
ATOM      5  C   UNL     1      -4.301   7.204   9.205  0.00  0.00    +0.029 A 
ATOM      6  C   UNL     1      -5.107   7.263  10.317  0.00  0.00    +0.035 A 
ATOM      7  C   UNL     1      -5.891   6.185  10.693  0.00  0.00    +0.127 A 
ATOM      8  C   UNL     1      -5.861   5.029   9.933  0.00  0.00    +0.050 A 
ATOM      9  C   UNL     1      -5.055   4.969   8.821  0.00  0.00    +0.041 A 
ATOM     10  S   UNL     1      -4.724   3.728   7.596  0.00  0.00    -0.052 S 
ATOM     11  C   UNL     1      -3.583   4.615   6.638  0.00  0.00    +0.167 A 
ATOM     12  N   UNL     1      -2.945   4.221   5.541  0.00  0.00    -0.152 NA
BRANCH   7  13
ATOM     13  N   UNL     1      -6.753   6.269  11.894  0.00  0.00    +0.056 N 
ATOM     14  O   UNL     1      -7.439   5.317  12.219  0.00  0.00    -0.126 OA
ATOM     15  O   UNL     1      -6.774   7.290  12.557  0.00  0.00    -0.126 OA
ENDBRANCH   7  13
BRANCH   3  17
ATOM     16  C   UNL     1      -1.348   6.227   6.194  0.00  0.00    +0.027 C 
ATOM     17  C   UNL     1      -2.622   6.862   6.755  0.00  0.00    +0.121 C 
ENDBRANCH   3  17
ENDBRANCH   1  12
BRANCH   1  18
ATOM     18  C   UNL     1      -2.439   2.554   3.830  0.00  0.00    +0.039 A 
ATOM     19  C   UNL     1      -2.652   1.274   3.318  0.00  0.00    +0.015 A 
ATOM     20  C   UNL     1      -1.986   0.870   2.179  0.00  0.00    +0.029 A 
ATOM     21  C   UNL     1      -1.109   1.732   1.546  0.00  0.00    +0.106 A 
ATOM     22  C   UNL     1      -0.889   3.000   2.052  0.00  0.00    +0.029 A 
ATOM     23  C   UNL     1      -1.554   3.418   3.187  0.00  0.00    +0.015 A 
BRANCH  21  24
ATOM     24  S   UNL     1      -0.261   1.208   0.092  0.00  0.00    +0.061 S 
ATOM     25  O   UNL     1      -0.221  -0.212   0.135  0.00  0.00    -0.153 OA
ATOM     26  O   UNL     1       0.914   2.001  -0.001  0.00  0.00    -0.153 OA
BRANCH  24  27
ATOM     27  N   UNL     1      -1.211   1.616  -1.202  0.00  0.00    -0.172 NA
ATOM     28  C   UNL     1      -2.216   0.679  -1.729  0.00  0.00    +0.137 C 
ATOM     29  C   UNL     1      -3.554   1.427  -1.845  0.00  0.00    +0.177 C 
ATOM     30  O   UNL     1      -3.356   2.631  -2.591  0.00  0.00    -0.377 OA
ATOM     31  C   UNL     1      -2.461   3.560  -1.975  0.00  0.00    +0.177 C 
ATOM     32  C   UNL     1      -1.071   2.924  -1.862  0.00  0.00    +0.137 C 
ENDBRANCH  24  27
ENDBRANCH  21  24
ENDBRANCH   1  18
TORSDOF 6
