REMARK  Name = ZINC35483093
REMARK  2 active torsions:
REMARK  status: ('A' for Active; 'I' for Inactive)
REMARK    1  A    between atoms: C_8  and  C_10
REMARK    2  A    between atoms: N_12  and  N_13
REMARK                            x       y       z     vdW  Elec       q    Type
REMARK                         _______ _______ _______ _____ _____    ______ ____
ROOT
ATOM      1  C   UNL     1       3.125  -4.013  -0.049  0.00  0.00    +0.268 C 
ATOM      2  O   UNL     1       2.293  -4.901  -0.045  0.00  0.00    -0.268 OA
ATOM      3  N   UNL     1       4.437  -4.318  -0.063  0.00  0.00    -0.231 N 
ATOM      4  H   UNL     1       5.100  -3.609  -0.066  0.00  0.00    +0.173 HD
ENDROOT
BRANCH   3   5
ATOM      5  N   UNL     1       4.845  -5.658  -0.074  0.00  0.00    -0.247 N 
ATOM      6  C   UNL     1       6.200  -5.973  -0.089  0.00  0.00    +0.156 A 
ATOM      7  C   UNL     1       6.600  -7.324  -0.105  0.00  0.00    +0.050 A 
ATOM      8  C   UNL     1       7.921  -7.643  -0.119  0.00  0.00    +0.053 A 
ATOM      9  C   UNL     1       8.876  -6.609  -0.117  0.00  0.00    +0.178 A 
ATOM     10  N   UNL     1      10.199  -6.584  -0.128  0.00  0.00    -0.128 NA
ATOM     11  N   UNL     1      10.601  -5.361  -0.120  0.00  0.00    -0.136 NA
ATOM     12  C   UNL     1       9.574  -4.548  -0.104  0.00  0.00    +0.249 A 
ATOM     13  N   UNL     1       8.454  -5.302  -0.102  0.00  0.00    -0.198 N 
ATOM     14  N   UNL     1       7.089  -5.008  -0.092  0.00  0.00    -0.147 NA
ATOM     15  H   UNL     1       4.182  -6.367  -0.071  0.00  0.00    +0.172 HD
ENDBRANCH   3   5
BRANCH   1  23
ATOM     16  C   UNL     1      -0.016   1.354   0.009  0.00  0.00    +0.001 A 
ATOM     17  C   UNL     1       1.157   2.098   0.002  0.00  0.00    +0.001 A 
ATOM     18  C   UNL     1       2.374   1.448  -0.013  0.00  0.00    +0.016 A 
ATOM     19  C   UNL     1       2.409   0.070  -0.021  0.00  0.00    +0.021 A 
ATOM     20  C   UNL     1       1.231  -0.713  -0.014  0.00  0.00    +0.008 A 
ATOM     21  C   UNL     1       0.002  -0.004   0.002  0.00  0.00    +0.010 A 
ATOM     22  C   UNL     1       1.433  -2.106  -0.023  0.00  0.00    +0.068 A 
ATOM     23  C   UNL     1       2.697  -2.608  -0.038  0.00  0.00    +0.095 A 
ATOM     24  S   UNL     1       3.709  -1.138  -0.040  0.00  0.00    -0.082 S 
ATOM     25 CL   UNL     1       0.070  -3.183  -0.015  0.00  0.00    -0.082 Cl
ENDBRANCH   1  23
TORSDOF 2
