REMARK  Name = ZINC43008402
REMARK  6 active torsions:
REMARK  status: ('A' for Active; 'I' for Inactive)
REMARK    1  A    between atoms: C_1  and  C_2
REMARK    2  A    between atoms: C_2  and  N_3
REMARK    3  A    between atoms: N_14  and  N_15
REMARK    4  A    between atoms: C_16  and  C_18
REMARK    5  A    between atoms: C_18  and  C_19
REMARK    6  A    between atoms: C_19  and  C_20
REMARK                            x       y       z     vdW  Elec       q    Type
REMARK                         _______ _______ _______ _____ _____    ______ ____
ROOT
ATOM      1  N   UNL     1       0.711  -0.489   1.189  0.00  0.00    -0.280 N 
ATOM      2  C   UNL     1       2.048  -0.689   1.137  0.00  0.00    +0.263 A 
ATOM      3  O   UNL     1       2.679  -0.473   0.119  0.00  0.00    -0.267 OA
ATOM      4  C   UNL     1       2.710  -1.177   2.355  0.00  0.00    +0.065 A 
ATOM      5  C   UNL     1       4.083  -1.413   2.403  0.00  0.00    +0.015 A 
ATOM      6  C   UNL     1       4.648  -1.867   3.563  0.00  0.00    +0.001 A 
ATOM      7  C   UNL     1       3.869  -2.093   4.691  0.00  0.00    +0.002 A 
ATOM      8  C   UNL     1       2.521  -1.869   4.671  0.00  0.00    +0.028 A 
ATOM      9  C   UNL     1       1.914  -1.406   3.500  0.00  0.00    +0.080 A 
ATOM     10  N   UNL     1       0.583  -1.170   3.436  0.00  0.00    -0.214 NA
ATOM     11  C   UNL     1       0.018  -0.731   2.339  0.00  0.00    +0.216 A 
ATOM     12  N   UNL     1      -1.336  -0.507   2.346  0.00  0.00    -0.234 N 
ATOM     13  H   UNL     1      -1.779  -0.185   1.545  0.00  0.00    +0.173 HD
ENDROOT
BRANCH  12  14
ATOM     14  N   UNL     1      -2.080  -0.744   3.509  0.00  0.00    -0.234 N 
ATOM     15  C   UNL     1      -3.410  -0.525   3.515  0.00  0.00    +0.229 C 
ATOM     16  O   UNL     1      -3.963  -0.123   2.514  0.00  0.00    -0.274 OA
ATOM     17  H   UNL     1      -1.638  -1.066   4.310  0.00  0.00    +0.173 HD
BRANCH  15  18
ATOM     18  C   UNL     1      -4.209  -0.780   4.767  0.00  0.00    +0.102 C 
BRANCH  18  19
ATOM     19  C   UNL     1      -5.681  -0.454   4.507  0.00  0.00    +0.046 C 
BRANCH  19  20
ATOM     20  C   UNL     1      -6.481  -0.709   5.758  0.00  0.00    -0.027 A 
ATOM     21  C   UNL     1      -7.117  -1.924   5.937  0.00  0.00    +0.005 A 
ATOM     22  C   UNL     1      -7.851  -2.158   7.084  0.00  0.00    +0.002 A 
ATOM     23  C   UNL     1      -7.950  -1.179   8.055  0.00  0.00    +0.021 A 
ATOM     24  C   UNL     1      -7.314   0.036   7.878  0.00  0.00    +0.060 A 
ATOM     25  C   UNL     1      -6.574   0.269   6.731  0.00  0.00    +0.062 A 
ATOM     26 CL   UNL     1      -5.769   1.792   6.511  0.00  0.00    -0.082 Cl
ATOM     27 CL   UNL     1      -7.438   1.267   9.097  0.00  0.00    -0.082 Cl
ENDBRANCH  19  20
ENDBRANCH  18  19
ENDBRANCH  15  18
ENDBRANCH  12  14
BRANCH   1  29
ATOM     28  C   UNL     1      -0.019   1.526   0.010  0.00  0.00    +0.027 C 
ATOM     29  C   UNL     1       0.002  -0.004   0.002  0.00  0.00    +0.125 C 
ENDBRANCH   1  29
TORSDOF 5
