REMARK  Name = ZINC03492644
REMARK  6 active torsions:
REMARK  status: ('A' for Active; 'I' for Inactive)
REMARK    1  A    between atoms: C_4  and  N_7
REMARK    2  A    between atoms: C_17  and  S_18
REMARK    3  A    between atoms: S_18  and  C_19
REMARK    4  A    between atoms: C_19  and  C_20
REMARK    5  A    between atoms: N_25  and  C_26
REMARK    6  A    between atoms: C_26  and  C_27
REMARK                            x       y       z     vdW  Elec       q    Type
REMARK                         _______ _______ _______ _____ _____    ______ ____
ROOT
ATOM      1  N   UNL     1       0.037  -2.767  -0.014  0.00  0.00    -0.255 N 
ATOM      2  C   UNL     1       1.135  -2.144   0.473  0.00  0.00    +0.267 A 
ATOM      3  O   UNL     1       2.079  -2.778   0.908  0.00  0.00    -0.267 OA
ATOM      4  C   UNL     1       1.146  -0.675   0.458  0.00  0.00    +0.065 A 
ATOM      5  C   UNL     1       2.230   0.058   0.938  0.00  0.00    +0.015 A 
ATOM      6  C   UNL     1       2.189   1.425   0.900  0.00  0.00    +0.001 A 
ATOM      7  C   UNL     1       1.080   2.087   0.389  0.00  0.00    +0.002 A 
ATOM      8  C   UNL     1       0.004   1.393  -0.087  0.00  0.00    +0.028 A 
ATOM      9  C   UNL     1       0.015  -0.004  -0.062  0.00  0.00    +0.079 A 
ATOM     10  N   UNL     1      -1.029  -0.731  -0.523  0.00  0.00    -0.223 NA
ATOM     11  C   UNL     1      -1.016  -2.041  -0.499  0.00  0.00    +0.177 A 
ENDROOT
BRANCH   1  15
ATOM     12  C   UNL     1      -0.138  -6.931  -0.036  0.00  0.00    +0.000 A 
ATOM     13  C   UNL     1       0.387  -6.257  -1.123  0.00  0.00    +0.002 A 
ATOM     14  C   UNL     1       0.446  -4.877  -1.119  0.00  0.00    +0.026 A 
ATOM     15  C   UNL     1      -0.022  -4.167  -0.021  0.00  0.00    +0.052 A 
ATOM     16  C   UNL     1      -0.543  -4.847   1.071  0.00  0.00    +0.026 A 
ATOM     17  C   UNL     1      -0.605  -6.227   1.059  0.00  0.00    +0.002 A 
ENDBRANCH   1  15
BRANCH  11  18
ATOM     18  S   UNL     1      -2.418  -2.907  -1.121  0.00  0.00    -0.078 S 
BRANCH  18  19
ATOM     19  C   UNL     1      -3.459  -1.510  -1.610  0.00  0.00    +0.173 C 
BRANCH  19  20
ATOM     20  C   UNL     1      -4.753  -2.024  -2.188  0.00  0.00    +0.231 C 
ATOM     21  O   UNL     1      -4.951  -3.218  -2.261  0.00  0.00    -0.274 OA
ATOM     22  N   UNL     1      -5.689  -1.157  -2.623  0.00  0.00    -0.239 N 
ATOM     23  C   UNL     1      -6.845  -1.618  -3.139  0.00  0.00    +0.306 C 
ATOM     24  O   UNL     1      -7.044  -2.815  -3.212  0.00  0.00    -0.252 OA
ATOM     25  N   UNL     1      -7.781  -0.751  -3.574  0.00  0.00    -0.292 N 
ATOM     26  H   UNL     1      -5.530  -0.202  -2.564  0.00  0.00    +0.159 HD
ATOM     27  H   UNL     1      -7.622   0.204  -3.515  0.00  0.00    +0.151 HD
BRANCH  25  28
ATOM     28  C   UNL     1      -9.039  -1.252  -4.135  0.00  0.00    +0.180 C 
BRANCH  28  29
ATOM     29  C   UNL     1      -9.905  -0.088  -4.543  0.00  0.00    +0.122 A 
ATOM     30  C   UNL     1      -9.908   0.506  -5.750  0.00  0.00    +0.046 A 
ATOM     31  C   UNL     1     -10.866   1.544  -5.693  0.00  0.00    +0.041 A 
ATOM     32  C   UNL     1     -11.391   1.523  -4.455  0.00  0.00    +0.195 A 
ATOM     33  O   UNL     1     -10.809   0.529  -3.764  0.00  0.00    -0.466 OA
ENDBRANCH  28  29
ENDBRANCH  25  28
ENDBRANCH  19  20
ENDBRANCH  18  19
ENDBRANCH  11  18
TORSDOF 6
