REMARK  Name = ZINC39449523
REMARK  8 active torsions:
REMARK  status: ('A' for Active; 'I' for Inactive)
REMARK    1  A    between atoms: C_1  and  C_2
REMARK    2  A    between atoms: C_2  and  C_3
REMARK    3  A    between atoms: C_2  and  S_4
REMARK    4  A    between atoms: S_4  and  N_7
REMARK    5  A    between atoms: C_15  and  C_18
REMARK    6  A    between atoms: C_18  and  C_19
REMARK    7  A    between atoms: C_26  and  C_31
REMARK    8  A    between atoms: C_36  and  O_37
REMARK                            x       y       z     vdW  Elec       q    Type
REMARK                         _______ _______ _______ _____ _____    ______ ____
ROOT
ATOM      1  N   UNL     1      -1.606  -2.470   0.121  0.00  0.00    -0.174 N 
ATOM      2  C   UNL     1      -1.471  -3.081  -1.119  0.00  0.00    +0.134 A 
ATOM      3  C   UNL     1      -1.376  -4.456  -1.227  0.00  0.00    +0.083 A 
ATOM      4  C   UNL     1      -1.426  -5.288  -0.017  0.00  0.00    +0.099 A 
ATOM      5  C   UNL     1      -1.565  -4.642   1.231  0.00  0.00    +0.069 A 
ATOM      6  C   UNL     1      -1.650  -3.175   1.266  0.00  0.00    +0.281 A 
ATOM      7  O   UNL     1      -1.764  -2.598   2.332  0.00  0.00    -0.265 OA
ATOM      8  C   UNL     1      -1.614  -5.411   2.395  0.00  0.00    +0.021 A 
ATOM      9  C   UNL     1      -1.523  -6.786   2.268  0.00  0.00    -0.024 A 
ATOM     10  C   UNL     1      -1.388  -7.352   1.008  0.00  0.00    +0.115 A 
ATOM     11  N   UNL     1      -1.344  -6.610  -0.078  0.00  0.00    -0.253 NA
ATOM     12  N   UNL     1      -1.227  -5.040  -2.470  0.00  0.00    -0.333 N 
ATOM     13  C   UNL     1      -0.601  -4.251  -3.542  0.00  0.00    +0.112 C 
ATOM     14  C   UNL     1      -1.343  -2.913  -3.648  0.00  0.00    +0.108 C 
ATOM     15  C   UNL     1      -1.428  -2.280  -2.284  0.00  0.00    +0.185 C 
ATOM     16  O   UNL     1      -1.461  -1.070  -2.184  0.00  0.00    -0.290 OA
ATOM     17  H   UNL     1      -1.528  -5.948  -2.632  0.00  0.00    +0.147 HD
ENDROOT
BRANCH  13  18
ATOM     18  C   UNL     1       0.848  -4.005  -3.211  0.00  0.00    +0.014 A 
ATOM     19  C   UNL     1       1.298  -4.164  -1.915  0.00  0.00    +0.009 A 
ATOM     20  C   UNL     1       2.628  -3.938  -1.610  0.00  0.00    +0.001 A 
ATOM     21  C   UNL     1       3.510  -3.551  -2.602  0.00  0.00    +0.004 A 
ATOM     22  C   UNL     1       3.066  -3.391  -3.900  0.00  0.00    +0.046 A 
ATOM     23  C   UNL     1       1.733  -3.623  -4.209  0.00  0.00    +0.122 A 
BRANCH  23  24
ATOM     24  O   UNL     1       1.294  -3.471  -5.486  0.00  0.00    -0.506 OA
ATOM     25  H   UNL     1       0.985  -2.578  -5.692  0.00  0.00    +0.292 HD
ENDBRANCH  23  24
ENDBRANCH  13  18
BRANCH   1  26
ATOM     26  S   UNL     1      -1.709  -0.819   0.193  0.00  0.00    +0.060 S 
ATOM     27  O   UNL     1      -1.878  -0.526   1.573  0.00  0.00    -0.153 OA
ATOM     28  O   UNL     1      -2.716  -0.477  -0.749  0.00  0.00    -0.153 OA
BRANCH  26  30
ATOM     29  C   UNL     1      -0.089   1.304  -0.400  0.00  0.00    +0.033 C 
ATOM     30  C   UNL     1      -0.092  -0.226  -0.377  0.00  0.00    +0.148 C 
ATOM     31  C   UNL     1       0.999  -0.724   0.573  0.00  0.00    +0.033 C 
ENDBRANCH  26  30
ENDBRANCH   1  26
BRANCH   9  32
ATOM     32  C   UNL     1      -1.570  -7.664   3.492  0.00  0.00    +0.071 C 
BRANCH  32  33
ATOM     33  C   UNL     1      -3.000  -8.040   3.786  0.00  0.00    -0.043 A 
ATOM     34  C   UNL     1      -3.770  -7.239   4.609  0.00  0.00    +0.004 A 
ATOM     35  C   UNL     1      -5.081  -7.583   4.878  0.00  0.00    +0.000 A 
ATOM     36  C   UNL     1      -5.622  -8.729   4.325  0.00  0.00    +0.000 A 
ATOM     37  C   UNL     1      -4.853  -9.530   3.502  0.00  0.00    +0.000 A 
ATOM     38  C   UNL     1      -3.543  -9.182   3.229  0.00  0.00    +0.004 A 
ENDBRANCH  32  33
ENDBRANCH   9  32
TORSDOF 6
