REMARK  Name = ZINC12642726
REMARK  11 active torsions:
REMARK  status: ('A' for Active; 'I' for Inactive)
REMARK    1  A    between atoms: C_1  and  C_2
REMARK    2  A    between atoms: C_2  and  C_3
REMARK    3  A    between atoms: C_2  and  C_4
REMARK    4  A    between atoms: C_2  and  N_5
REMARK    5  A    between atoms: C_6  and  C_8
REMARK    6  A    between atoms: C_16  and  C_31
REMARK    7  A    between atoms: N_22  and  C_23
REMARK    8  A    between atoms: C_23  and  C_24
REMARK    9  A    between atoms: C_24  and  C_25
REMARK   10  A    between atoms: N_33  and  C_34
REMARK   11  A    between atoms: C_34  and  C_35
REMARK                            x       y       z     vdW  Elec       q    Type
REMARK                         _______ _______ _______ _____ _____    ______ ____
ROOT
ATOM      1  C   UNL     1      -0.722   3.441  -0.151  0.00  0.00    +0.198 C 
ATOM      2  C   UNL     1       0.592   3.304  -0.856  0.00  0.00    +0.127 C 
ATOM      3  C   UNL     1       0.444   2.844  -2.295  0.00  0.00    +0.009 C 
ATOM      4  C   UNL     1       1.675   2.780  -2.780  0.00  0.00    +0.004 C 
ATOM      5  C   UNL     1       2.586   3.146  -1.602  0.00  0.00    +0.155 C 
ATOM      6  O   UNL     1       1.736   4.124  -0.870  0.00  0.00    -0.358 OA
ATOM      7  C   UNL     1       2.473   1.871  -0.699  0.00  0.00    +0.122 C 
ATOM      8  C   UNL     1       1.158   2.102   0.002  0.00  0.00    +0.128 C 
ATOM      9  C   UNL     1      -0.014   1.209   0.009  0.00  0.00    +0.223 C 
ATOM     10  O   UNL     1       0.002  -0.004   0.002  0.00  0.00    -0.275 OA
ATOM     11  N   UNL     1      -1.129   2.011   0.018  0.00  0.00    -0.286 N 
ENDROOT
BRANCH   1  13
ATOM     12  N   UNL     1      -0.434   5.460   1.248  0.00  0.00    -0.309 N 
ATOM     13  C   UNL     1      -0.549   4.119   1.183  0.00  0.00    +0.237 C 
ATOM     14  O   UNL     1      -0.515   3.458   2.200  0.00  0.00    -0.274 OA
ATOM     15  H   UNL     1      -0.461   5.989   0.435  0.00  0.00    +0.149 HD
BRANCH  12  17
ATOM     16  C   UNL     1       1.009   5.606   3.217  0.00  0.00    +0.031 C 
ATOM     17  C   UNL     1      -0.266   6.120   2.545  0.00  0.00    +0.026 C 
ATOM     18  C   UNL     1      -0.160   7.632   2.339  0.00  0.00    +0.031 C 
ATOM     19  C   UNL     1      -1.471   5.809   3.435  0.00  0.00    +0.031 C 
ENDBRANCH  12  17
ENDBRANCH   1  13
BRANCH   7  20
ATOM     20  C   UNL     1       2.424   0.622  -1.541  0.00  0.00    +0.220 C 
ATOM     21  O   UNL     1       1.411  -0.042  -1.583  0.00  0.00    -0.275 OA
ATOM     22  N   UNL     1       3.507   0.244  -2.248  0.00  0.00    -0.310 N 
ATOM     23  H   UNL     1       4.318   0.775  -2.215  0.00  0.00    +0.149 HD
BRANCH  22  24
ATOM     24  C   UNL     1       3.460  -0.970  -3.067  0.00  0.00    +0.146 C 
BRANCH  24  25
ATOM     25  C   UNL     1       4.789  -1.167  -3.750  0.00  0.00    +0.007 A 
ATOM     26  C   UNL     1       5.881  -1.840  -3.314  0.00  0.00    +0.013 A 
ATOM     27  C   UNL     1       7.003  -1.893  -4.121  0.00  0.00    +0.008 A 
ATOM     28  C   UNL     1       6.981  -1.260  -5.320  0.00  0.00    +0.045 A 
ATOM     29  S   UNL     1       5.336  -0.567  -5.340  0.00  0.00    -0.100 S 
ENDBRANCH  24  25
ENDBRANCH  22  24
ENDBRANCH   7  20
BRANCH  11  30
ATOM     30  C   UNL     1      -2.508   1.540   0.172  0.00  0.00    +0.113 C 
BRANCH  30  31
ATOM     31  C   UNL     1      -2.875   1.517   1.657  0.00  0.00    +0.049 C 
BRANCH  31  32
ATOM     32  C   UNL     1      -4.293   1.032   1.816  0.00  0.00    -0.072 C 
ATOM     33  C   UNL     1      -4.481  -0.227   2.050  0.00  0.00    -0.028 C 
ATOM     34  C   UNL     1      -5.832  -0.857   2.226  0.00  0.00    +0.027 C 
ATOM     35  C   UNL     1      -6.885   0.218   2.503  0.00  0.00    +0.004 C 
ATOM     36  C   UNL     1      -6.734   1.326   1.453  0.00  0.00    +0.005 C 
ATOM     37  C   UNL     1      -5.400   2.038   1.688  0.00  0.00    +0.030 C 
ENDBRANCH  31  32
ENDBRANCH  30  31
ENDBRANCH  11  30
TORSDOF 8
