REMARK  Name = ZINC21535485
REMARK  7 active torsions:
REMARK  status: ('A' for Active; 'I' for Inactive)
REMARK    1  A    between atoms: C_4  and  C_7
REMARK    2  A    between atoms: C_7  and  N_8
REMARK    3  A    between atoms: N_11  and  C_14
REMARK    4  A    between atoms: C_14  and  C_15
REMARK    5  A    between atoms: C_15  and  C_16
REMARK    6  A    between atoms: C_16  and  N_17
REMARK    7  A    between atoms: C_18  and  C_20
REMARK                            x       y       z     vdW  Elec       q    Type
REMARK                         _______ _______ _______ _____ _____    ______ ____
ROOT
ATOM      1  N   UNL     1      -0.013   0.967   0.033  0.00  0.00    -0.310 N 
ATOM      2  C   UNL     1      -1.190   1.623   0.045  0.00  0.00    +0.261 C 
ATOM      3  O   UNL     1      -1.210   2.835   0.160  0.00  0.00    -0.269 OA
ATOM      4  H   UNL     1       0.003  -0.133   0.011  0.00  0.00    +0.149 HD
ENDROOT
BRANCH   2   5
ATOM      5  C   UNL     1      -2.446   0.878  -0.079  0.00  0.00    +0.110 A 
ATOM      6  C   UNL     1      -2.581  -0.494  -0.104  0.00  0.00    +0.033 A 
ATOM      7  C   UNL     1      -3.946  -0.772  -0.235  0.00  0.00    +0.020 A 
ATOM      8  C   UNL     1      -4.608   0.409  -0.287  0.00  0.00    +0.094 A 
ATOM      9  N   UNL     1      -3.709   1.421  -0.187  0.00  0.00    -0.290 N 
ATOM     10  C   UNL     1      -4.011   2.782  -0.196  0.00  0.00    +0.202 A 
ATOM     11  N   UNL     1      -3.206   3.832  -0.203  0.00  0.00    -0.121 NA
ATOM     12  N   UNL     1      -3.648   5.013  -0.215  0.00  0.00    -0.124 NA
ATOM     13  C   UNL     1      -4.947   5.276  -0.210  0.00  0.00    +0.186 A 
ATOM     14  S   UNL     1      -5.600   3.608  -0.194  0.00  0.00    -0.013 S 
ATOM     15  N   UNL     1      -5.612   6.494  -0.215  0.00  0.00    -0.308 N 
ATOM     16  C   UNL     1      -6.547   6.579  -1.344  0.00  0.00    +0.107 C 
ATOM     17  C   UNL     1      -7.364   7.868  -1.236  0.00  0.00    +0.019 C 
ATOM     18  C   UNL     1      -6.415   9.070  -1.244  0.00  0.00    +0.003 C 
ATOM     19  C   UNL     1      -5.421   8.933  -0.087  0.00  0.00    +0.019 C 
ATOM     20  C   UNL     1      -4.660   7.612  -0.229  0.00  0.00    +0.107 C 
ENDBRANCH   2   5
BRANCH   1  21
ATOM     21  C   UNL     1       1.245   1.718   0.048  0.00  0.00    +0.103 C 
BRANCH  21  22
ATOM     22  C   UNL     1       2.422   0.741   0.022  0.00  0.00    +0.000 C 
BRANCH  22  23
ATOM     23  C   UNL     1       3.736   1.526   0.037  0.00  0.00    -0.077 C 
BRANCH  23  27
ATOM     24  N   UNL     1       7.328  -0.512   0.926  0.00  0.00    -0.302 NA
ATOM     25  C   UNL     1       7.274   0.280  -0.310  0.00  0.00    +0.066 C 
ATOM     26  C   UNL     1       6.134   1.297  -0.212  0.00  0.00    -0.063 C 
ATOM     27  N   UNL     1       4.867   0.588   0.013  0.00  0.00    +0.381 N 
ATOM     28  C   UNL     1       4.921  -0.204   1.249  0.00  0.00    -0.063 C 
ATOM     29  C   UNL     1       6.061  -1.221   1.151  0.00  0.00    +0.066 C 
ATOM     30  H   UNL     1       4.711  -0.105  -0.828  0.00  0.00    -0.082 HD
BRANCH  24  31
ATOM     31  C   UNL     1       8.459  -1.450   0.902  0.00  0.00    +0.119 C 
BRANCH  31  35
ATOM     32  C   UNL     1       8.132  -4.162   4.186  0.00  0.00    +0.000 A 
ATOM     33  C   UNL     1       7.548  -4.473   2.972  0.00  0.00    +0.000 A 
ATOM     34  C   UNL     1       7.654  -3.595   1.909  0.00  0.00    +0.005 A 
ATOM     35  C   UNL     1       8.344  -2.406   2.060  0.00  0.00    -0.033 A 
ATOM     36  C   UNL     1       8.932  -2.098   3.272  0.00  0.00    +0.005 A 
ATOM     37  C   UNL     1       8.822  -2.974   4.337  0.00  0.00    +0.000 A 
ENDBRANCH  31  35
ENDBRANCH  24  31
ENDBRANCH  23  27
ENDBRANCH  22  23
ENDBRANCH  21  22
ENDBRANCH   1  21
TORSDOF 7
