REMARK  Name = ZINC06321451
REMARK  11 active torsions:
REMARK  status: ('A' for Active; 'I' for Inactive)
REMARK    1  A    between atoms: C_1  and  C_2
REMARK    2  A    between atoms: C_6  and  C_15
REMARK    3  A    between atoms: C_15  and  N_16
REMARK    4  A    between atoms: N_16  and  C_17
REMARK    5  A    between atoms: N_16  and  C_24
REMARK    6  A    between atoms: C_17  and  C_18
REMARK    7  A    between atoms: C_24  and  N_26
REMARK    8  A    between atoms: N_26  and  C_27
REMARK    9  A    between atoms: C_27  and  C_28
REMARK   10  A    between atoms: C_28  and  C_29
REMARK   11  A    between atoms: C_29  and  N_65
REMARK                            x       y       z     vdW  Elec       q    Type
REMARK                         _______ _______ _______ _____ _____    ______ ____
ROOT
ATOM      1  N   UNL     1      -0.090   5.843  -1.347  0.00  0.00    -0.304 N 
ENDROOT
BRANCH   1   2
ATOM      2  C   UNL     1       1.068   6.087  -1.992  0.00  0.00    +0.133 C 
ATOM      3  S   UNL     1       1.044   6.666  -3.603  0.00  0.00    -0.019 S 
BRANCH   2   4
ATOM      4  N   UNL     1       2.244   5.875  -1.369  0.00  0.00    -0.326 N 
ATOM      5  H   UNL     1       2.257   5.546  -0.457  0.00  0.00    +0.148 HD
BRANCH   4   6
ATOM      6  C   UNL     1       3.502   6.140  -2.071  0.00  0.00    +0.101 C 
BRANCH   6   7
ATOM      7  C   UNL     1       4.679   5.819  -1.146  0.00  0.00    +0.000 C 
BRANCH   7   8
ATOM      8  C   UNL     1       5.993   6.096  -1.879  0.00  0.00    -0.077 C 
BRANCH   8  14
ATOM      9  C   UNL     1       7.163   6.715   0.150  0.00  0.00    -0.050 C 
ATOM     10  C   UNL     1       8.316   6.322   1.078  0.00  0.00    +0.141 C 
ATOM     11  O   UNL     1       9.539   6.321   0.337  0.00  0.00    -0.383 OA
ATOM     12  C   UNL     1       9.534   5.429  -0.782  0.00  0.00    +0.141 C 
ATOM     13  C   UNL     1       8.394   5.813  -1.728  0.00  0.00    -0.050 C 
ATOM     14  N   UNL     1       7.120   5.763  -0.980  0.00  0.00    +0.383 N 
ATOM     15  H   UNL     1       6.985   4.814  -0.613  0.00  0.00    -0.082 HD
ENDBRANCH   8  14
ENDBRANCH   7   8
ENDBRANCH   6   7
ENDBRANCH   4   6
ENDBRANCH   2   4
ENDBRANCH   1   2
BRANCH   1  16
ATOM     16  C   UNL     1      -1.369   6.073  -2.025  0.00  0.00    +0.147 C 
BRANCH  16  22
ATOM     17  C   UNL     1      -1.875  13.249  -3.989  0.00  0.00    +0.045 C 
ATOM     18  C   UNL     1      -2.161  12.128  -3.024  0.00  0.00    -0.031 A 
ATOM     19  C   UNL     1      -1.725  10.865  -3.306  0.00  0.00    +0.014 A 
ATOM     20  C   UNL     1      -1.989   9.823  -2.410  0.00  0.00    -0.001 A 
ATOM     21  C   UNL     1      -1.536   8.458  -2.681  0.00  0.00    +0.020 A 
ATOM     22  C   UNL     1      -1.821   7.489  -1.776  0.00  0.00    +0.035 A 
ATOM     23  C   UNL     1      -2.544   7.801  -0.605  0.00  0.00    +0.254 A 
ATOM     24  O   UNL     1      -2.794   6.913   0.193  0.00  0.00    -0.268 OA
ATOM     25  N   UNL     1      -2.961   9.052  -0.345  0.00  0.00    -0.322 N 
ATOM     26  H   UNL     1      -3.453   9.232   0.472  0.00  0.00    +0.169 HD
ATOM     27  C   UNL     1      -2.703  10.083  -1.224  0.00  0.00    +0.051 A 
ATOM     28  C   UNL     1      -3.138  11.376  -0.958  0.00  0.00    +0.046 A 
ATOM     29  C   UNL     1      -2.866  12.388  -1.855  0.00  0.00    +0.046 A 
ATOM     30 CL   UNL     1      -3.410  14.002  -1.521  0.00  0.00    -0.083 Cl
ENDBRANCH  16  22
ENDBRANCH   1  16
BRANCH   1  31
ATOM     31  C   UNL     1      -0.070   5.347   0.031  0.00  0.00    +0.142 C 
BRANCH  31  32
ATOM     32  C   UNL     1      -0.050   3.840   0.023  0.00  0.00    -0.030 A 
ATOM     33  C   UNL     1       1.156   3.165   0.008  0.00  0.00    +0.005 A 
ATOM     34  C   UNL     1       1.175   1.783   0.000  0.00  0.00    +0.000 A 
ATOM     35  C   UNL     1      -0.013   1.076   0.008  0.00  0.00    +0.000 A 
ATOM     36  C   UNL     1      -1.219   1.751   0.017  0.00  0.00    +0.000 A 
ATOM     37  C   UNL     1      -1.238   3.133   0.030  0.00  0.00    +0.005 A 
ENDBRANCH  31  32
ENDBRANCH   1  31
TORSDOF 10
