REMARK  Name = ZINC34756701
REMARK  5 active torsions:
REMARK  status: ('A' for Active; 'I' for Inactive)
REMARK    1  A    between atoms: C_1  and  N_2
REMARK    2  A    between atoms: N_2  and  C_3
REMARK    3  A    between atoms: C_13  and  N_16
REMARK    4  A    between atoms: N_24  and  S_26
REMARK    5  A    between atoms: S_26  and  C_29
REMARK                            x       y       z     vdW  Elec       q    Type
REMARK                         _______ _______ _______ _____ _____    ______ ____
ROOT
ATOM      1  C   UNL     1      -1.263   0.495   0.547  0.00  0.00    +0.130 C 
ATOM      2  N   UNL     1       0.002  -0.004   0.002  0.00  0.00    -0.321 N 
ATOM      3  C   UNL     1       1.265   0.317   0.671  0.00  0.00    +0.130 C 
ATOM      4  C   UNL     1       0.004  -0.779  -1.146  0.00  0.00    +0.131 A 
ATOM      5  C   UNL     1       0.043  -0.175  -2.409  0.00  0.00    +0.030 A 
ATOM      6  C   UNL     1       0.049  -0.976  -3.524  0.00  0.00    +0.054 A 
ATOM      7  N   UNL     1       0.004  -2.298  -3.365  0.00  0.00    -0.219 NA
ATOM      8  C   UNL     1      -0.035  -2.844  -2.161  0.00  0.00    +0.220 A 
ATOM      9  N   UNL     1      -0.027  -2.104  -1.063  0.00  0.00    -0.199 NA
ATOM     10  N   UNL     1      -0.079  -4.222  -2.047  0.00  0.00    -0.300 N 
ATOM     11  C   UNL     1      -0.077  -5.074  -3.244  0.00  0.00    +0.106 C 
ATOM     12  C   UNL     1       1.058  -6.095  -3.121  0.00  0.00    +0.004 C 
ATOM     13  C   UNL     1       0.908  -6.862  -1.805  0.00  0.00    -0.066 C 
ATOM     14  C   UNL     1       1.007  -5.886  -0.630  0.00  0.00    +0.004 C 
ATOM     15  C   UNL     1      -0.122  -4.862  -0.725  0.00  0.00    +0.106 C 
ATOM     16  C   UNL     1       0.121  -0.429  -4.923  0.00  0.00    +0.073 C 
ATOM     17  C   UNL     1      -0.312   1.036  -4.955  0.00  0.00    +0.116 C 
ATOM     18  N   UNL     1       0.381   1.740  -3.864  0.00  0.00    -0.172 NA
ATOM     19  C   UNL     1       0.069   1.328  -2.490  0.00  0.00    +0.149 C 
ENDROOT
BRANCH  13  20
ATOM     20  N   UNL     1       1.976  -7.865  -1.699  0.00  0.00    +0.382 N 
ATOM     21  C   UNL     1       1.884  -8.796  -2.830  0.00  0.00    -0.078 C 
ATOM     22  C   UNL     1       3.042  -9.795  -2.769  0.00  0.00    -0.019 C 
ATOM     23  C   UNL     1       2.966 -10.577  -1.454  0.00  0.00    -0.004 C 
ATOM     24  C   UNL     1       2.987  -9.591  -0.283  0.00  0.00    -0.019 C 
ATOM     25  C   UNL     1       1.831  -8.600  -0.436  0.00  0.00    -0.078 C 
ATOM     26  H   UNL     1       2.873  -7.404  -1.717  0.00  0.00    -0.081 HD
ENDBRANCH  13  20
BRANCH  18  27
ATOM     27  S   UNL     1       1.470   2.949  -4.173  0.00  0.00    +0.061 S 
ATOM     28  O   UNL     1       2.331   3.018  -3.046  0.00  0.00    -0.153 OA
ATOM     29  O   UNL     1       1.955   2.730  -5.491  0.00  0.00    -0.153 OA
BRANCH  27  30
ATOM     30  C   UNL     1       0.569   4.463  -4.213  0.00  0.00    +0.105 A 
ATOM     31  C   UNL     1       0.031   4.916  -5.403  0.00  0.00    +0.028 A 
ATOM     32  C   UNL     1      -0.675   6.104  -5.434  0.00  0.00    +0.002 A 
ATOM     33  C   UNL     1      -0.843   6.839  -4.276  0.00  0.00    +0.000 A 
ATOM     34  C   UNL     1      -0.305   6.386  -3.086  0.00  0.00    +0.002 A 
ATOM     35  C   UNL     1       0.397   5.196  -3.054  0.00  0.00    +0.028 A 
ENDBRANCH  27  30
ENDBRANCH  18  27
TORSDOF 3
