REMARK  Name = ZINC63994320
REMARK  5 active torsions:
REMARK  status: ('A' for Active; 'I' for Inactive)
REMARK    1  A    between atoms: C_1  and  C_2
REMARK    2  A    between atoms: C_15  and  C_17
REMARK    3  A    between atoms: C_17  and  O_18
REMARK    4  A    between atoms: O_18  and  C_19
REMARK    5  A    between atoms: C_19  and  C_21
REMARK                            x       y       z     vdW  Elec       q    Type
REMARK                         _______ _______ _______ _____ _____    ______ ____
ROOT
ATOM      1  C   UNL     1      -0.019   1.526   0.010  0.00  0.00    +0.029 C 
ATOM      2  C   UNL     1       0.002  -0.004   0.002  0.00  0.00    +0.087 C 
ATOM      3  C   UNL     1      -1.433  -0.532   0.009  0.00  0.00    +0.118 C 
ATOM      4  C   UNL     1      -1.448  -1.987   0.396  0.00  0.00    +0.219 C 
ATOM      5  O   UNL     1      -1.623  -2.835  -0.454  0.00  0.00    -0.275 OA
ATOM      6  N   UNL     1      -1.268  -2.354   1.683  0.00  0.00    -0.284 N 
ATOM      7  C   UNL     1      -0.970  -1.397   2.659  0.00  0.00    +0.055 A 
ATOM      8  C   UNL     1      -1.673  -1.354   3.851  0.00  0.00    +0.025 A 
ATOM      9  C   UNL     1      -1.345  -0.414   4.811  0.00  0.00    +0.002 A 
ATOM     10  C   UNL     1      -0.316   0.482   4.584  0.00  0.00    +0.002 A 
ATOM     11  C   UNL     1       0.385   0.452   3.393  0.00  0.00    +0.025 A 
ATOM     12  C   UNL     1       0.054  -0.479   2.422  0.00  0.00    +0.058 A 
ATOM     13  N   UNL     1       0.714  -0.487   1.187  0.00  0.00    -0.264 N 
ATOM     14  C   UNL     1       1.982  -0.932   1.091  0.00  0.00    +0.258 C 
ATOM     15  O   UNL     1       2.545  -0.934   0.017  0.00  0.00    -0.271 OA
ATOM     16  H   UNL     1      -1.347  -3.288   1.933  0.00  0.00    +0.155 HD
ENDROOT
BRANCH  14  17
ATOM     17  C   UNL     1       2.702  -1.427   2.320  0.00  0.00    +0.328 C 
BRANCH  17  18
ATOM     18  O   UNL     1       4.022  -1.841   1.964  0.00  0.00    -0.452 OA
BRANCH  18  19
ATOM     19  C   UNL     1       4.804  -2.314   2.957  0.00  0.00    +0.338 C 
ATOM     20  O   UNL     1       4.375  -2.372   4.093  0.00  0.00    -0.245 OA
BRANCH  19  21
ATOM     21  C   UNL     1       6.170  -2.757   2.665  0.00  0.00    +0.065 C 
ATOM     22  C   UNL     1       7.088  -3.267   3.558  0.00  0.00    +0.010 A 
ATOM     23  C   UNL     1       7.039  -3.519   4.952  0.00  0.00    +0.010 A 
ATOM     24  C   UNL     1       8.113  -4.036   5.588  0.00  0.00    +0.001 A 
ATOM     25  C   UNL     1       9.309  -4.344   4.919  0.00  0.00    +0.002 A 
ATOM     26  C   UNL     1       9.460  -4.141   3.592  0.00  0.00    +0.026 A 
ATOM     27  C   UNL     1       8.337  -3.582   2.822  0.00  0.00    +0.043 A 
ATOM     28  N   UNL     1       8.209  -3.289   1.559  0.00  0.00    -0.380 N 
ATOM     29  C   UNL     1       6.864  -2.757   1.321  0.00  0.00    +0.156 C 
ATOM     30  H   UNL     1       8.894  -3.408   0.882  0.00  0.00    +0.160 HD
ENDBRANCH  19  21
ENDBRANCH  18  19
ENDBRANCH  17  18
ENDBRANCH  14  17
TORSDOF 4
