REMARK  Name = ZINC04225556
REMARK  6 active torsions:
REMARK  status: ('A' for Active; 'I' for Inactive)
REMARK    1  A    between atoms: C_1  and  C_2
REMARK    2  A    between atoms: C_8  and  C_9
REMARK    3  A    between atoms: C_8  and  N_58
REMARK    4  A    between atoms: N_13  and  C_14
REMARK    5  A    between atoms: C_14  and  C_15
REMARK    6  A    between atoms: N_31  and  C_32
REMARK                            x       y       z     vdW  Elec       q    Type
REMARK                         _______ _______ _______ _____ _____    ______ ____
ROOT
ATOM      1  C   UNL     1      -2.623   5.036   0.428  0.00  0.00    +0.096 A 
ATOM      2  N   UNL     1      -1.712   5.364   1.309  0.00  0.00    -0.216 NA
ATOM      3  C   UNL     1      -2.135   5.045   2.535  0.00  0.00    +0.168 A 
ATOM      4  C   UNL     1      -3.397   4.481   2.403  0.00  0.00    +0.152 A 
ATOM      5  N   UNL     1      -3.685   4.492   1.053  0.00  0.00    -0.319 N 
ATOM      6  C   UNL     1      -4.083   4.050   3.559  0.00  0.00    +0.280 A 
ATOM      7  O   UNL     1      -5.190   3.551   3.468  0.00  0.00    -0.265 OA
ATOM      8  N   UNL     1      -3.497   4.196   4.765  0.00  0.00    -0.273 N 
ATOM      9  H   UNL     1      -3.978   3.892   5.587  0.00  0.00    +0.173 HD
ATOM     10  C   UNL     1      -2.275   4.744   4.879  0.00  0.00    +0.331 A 
ATOM     11  O   UNL     1      -1.778   4.861   5.983  0.00  0.00    -0.246 OA
ATOM     12  N   UNL     1      -1.587   5.168   3.802  0.00  0.00    -0.280 N 
ATOM     13  C   UNL     1      -0.257   5.760   3.970  0.00  0.00    +0.155 C 
ENDROOT
BRANCH   1  14
ATOM     14  C   UNL     1      -2.504   5.243  -1.060  0.00  0.00    -0.003 C 
BRANCH  14  21
ATOM     15  C   UNL     1      -3.049   4.360  -3.676  0.00  0.00    -0.013 C 
ATOM     16  C   UNL     1      -1.632   4.282  -3.104  0.00  0.00    -0.071 C 
ATOM     17  C   UNL     1      -0.913   3.063  -3.687  0.00  0.00    -0.016 C 
ATOM     18  C   UNL     1       0.497   2.978  -3.096  0.00  0.00    -0.003 C 
ATOM     19  C   UNL     1       0.401   2.901  -1.570  0.00  0.00    -0.019 C 
ATOM     20  C   UNL     1      -0.357   4.124  -1.049  0.00  0.00    -0.078 C 
ATOM     21  N   UNL     1      -1.714   4.135  -1.635  0.00  0.00    +0.386 N 
ATOM     22  H   UNL     1      -2.179   3.245  -1.416  0.00  0.00    -0.081 HD
ENDBRANCH  14  21
ENDBRANCH   1  14
BRANCH   5  23
ATOM     23  C   UNL     1      -4.912   4.001   0.419  0.00  0.00    +0.159 C 
BRANCH  23  24
ATOM     24  C   UNL     1      -4.819   2.509   0.233  0.00  0.00    -0.020 A 
ATOM     25  C   UNL     1      -3.874   1.980  -0.593  0.00  0.00    +0.006 A 
ATOM     26  C   UNL     1      -3.769   0.602  -0.772  0.00  0.00    +0.001 A 
ATOM     27  C   UNL     1      -4.615  -0.254  -0.137  0.00  0.00    +0.008 A 
ATOM     28  C   UNL     1      -5.607   0.255   0.718  0.00  0.00    -0.018 A 
ATOM     29  C   UNL     1      -5.710   1.656   0.906  0.00  0.00    -0.013 A 
ATOM     30  C   UNL     1      -6.702   2.166   1.761  0.00  0.00    +0.009 A 
ATOM     31  C   UNL     1      -7.549   1.309   2.396  0.00  0.00    +0.001 A 
ATOM     32  C   UNL     1      -7.447  -0.068   2.211  0.00  0.00    +0.001 A 
ATOM     33  C   UNL     1      -6.499  -0.598   1.391  0.00  0.00    +0.008 A 
ENDBRANCH  23  24
ENDBRANCH   5  23
TORSDOF 4
