REMARK  Name = ZINC12527381
REMARK  10 active torsions:
REMARK  status: ('A' for Active; 'I' for Inactive)
REMARK    1  A    between atoms: C_1  and  C_2
REMARK    2  A    between atoms: C_2  and  C_31
REMARK    3  A    between atoms: N_5  and  C_9
REMARK    4  A    between atoms: C_9  and  C_10
REMARK    5  A    between atoms: N_12  and  C_13
REMARK    6  A    between atoms: C_15  and  S_22
REMARK    7  A    between atoms: C_18  and  N_19
REMARK    8  A    between atoms: N_19  and  C_20
REMARK    9  A    between atoms: N_19  and  C_21
REMARK   10  A    between atoms: S_22  and  N_25
REMARK                            x       y       z     vdW  Elec       q    Type
REMARK                         _______ _______ _______ _____ _____    ______ ____
ROOT
ATOM      1  C   UNL     1      -2.401  -3.602   1.797  0.00  0.00    +0.235 C 
ATOM      2  O   UNL     1      -1.357  -4.162   1.538  0.00  0.00    -0.274 OA
ATOM      3  N   UNL     1      -3.573  -4.239   1.608  0.00  0.00    -0.283 N 
ATOM      4  H   UNL     1      -4.403  -3.822   1.890  0.00  0.00    +0.155 HD
ENDROOT
BRANCH   3   5
ATOM      5  C   UNL     1      -3.594  -5.503   1.003  0.00  0.00    +0.057 A 
ATOM      6  C   UNL     1      -2.565  -5.886   0.157  0.00  0.00    +0.053 A 
ATOM      7  C   UNL     1      -2.587  -7.134  -0.438  0.00  0.00    +0.107 A 
ATOM      8  C   UNL     1      -3.635  -8.002  -0.193  0.00  0.00    +0.030 A 
ATOM      9  C   UNL     1      -4.665  -7.629   0.649  0.00  0.00    +0.027 A 
ATOM     10  C   UNL     1      -4.647  -6.381   1.256  0.00  0.00    +0.051 A 
BRANCH  10  11
ATOM     11  N   UNL     1      -5.686  -6.003   2.113  0.00  0.00    -0.335 N 
ATOM     12  C   UNL     1      -5.593  -6.287   3.547  0.00  0.00    +0.129 C 
ATOM     13  C   UNL     1      -6.868  -5.324   1.576  0.00  0.00    +0.129 C 
ENDBRANCH  10  11
BRANCH   7  14
ATOM     14  S   UNL     1      -1.278  -7.618  -1.514  0.00  0.00    +0.061 S 
ATOM     15  O   UNL     1      -1.807  -8.619  -2.372  0.00  0.00    -0.153 OA
ATOM     16  O   UNL     1      -0.695  -6.420  -2.009  0.00  0.00    -0.153 OA
BRANCH  14  17
ATOM     17  N   UNL     1      -0.125  -8.355  -0.581  0.00  0.00    -0.177 NA
ATOM     18  C   UNL     1       0.957  -7.571   0.031  0.00  0.00    +0.109 C 
ATOM     19  C   UNL     1       0.981  -7.855   1.536  0.00  0.00    +0.017 C 
ATOM     20  C   UNL     1       1.092  -9.364   1.764  0.00  0.00    +0.003 C 
ATOM     21  C   UNL     1      -0.128 -10.064   1.161  0.00  0.00    +0.017 C 
ATOM     22  C   UNL     1      -0.169  -9.804  -0.343  0.00  0.00    +0.109 C 
ENDBRANCH  14  17
ENDBRANCH   7  14
ENDBRANCH   3   5
BRANCH   1  23
ATOM     23  C   UNL     1      -2.386  -2.193   2.332  0.00  0.00    +0.214 C 
BRANCH  23  28
ATOM     24  C   UNL     1       1.304   0.701   2.075  0.00  0.00    +0.047 C 
ATOM     25  C   UNL     1       1.046  -0.806   2.026  0.00  0.00    +0.135 C 
ATOM     26  C   UNL     1      -0.333  -1.092   1.464  0.00  0.00    +0.251 C 
ATOM     27  O   UNL     1      -0.747  -0.809   0.360  0.00  0.00    -0.272 OA
ATOM     28  N   UNL     1      -1.002  -1.728   2.446  0.00  0.00    -0.215 N 
ATOM     29  C   UNL     1      -0.246  -1.881   3.539  0.00  0.00    +0.310 C 
ATOM     30  O   UNL     1      -0.630  -2.426   4.556  0.00  0.00    -0.252 OA
ATOM     31  N   UNL     1       0.988  -1.366   3.387  0.00  0.00    -0.281 N 
ATOM     32  H   UNL     1       1.700  -1.364   4.046  0.00  0.00    +0.152 HD
BRANCH  25  33
ATOM     33  C   UNL     1       2.108  -1.499   1.212  0.00  0.00    -0.016 A 
ATOM     34  C   UNL     1       1.930  -1.679  -0.147  0.00  0.00    +0.006 A 
ATOM     35  C   UNL     1       2.904  -2.315  -0.893  0.00  0.00    +0.000 A 
ATOM     36  C   UNL     1       4.057  -2.770  -0.281  0.00  0.00    +0.000 A 
ATOM     37  C   UNL     1       4.236  -2.589   1.078  0.00  0.00    +0.000 A 
ATOM     38  C   UNL     1       3.263  -1.949   1.824  0.00  0.00    +0.006 A 
ENDBRANCH  25  33
ENDBRANCH  23  28
ENDBRANCH   1  23
TORSDOF 7
