REMARK  Name = ZINC67010448
REMARK  9 active torsions:
REMARK  status: ('A' for Active; 'I' for Inactive)
REMARK    1  A    between atoms: C_1  and  C_2
REMARK    2  A    between atoms: C_2  and  C_4
REMARK    3  A    between atoms: C_2  and  N_15
REMARK    4  A    between atoms: C_8  and  S_10
REMARK    5  A    between atoms: S_10  and  N_13
REMARK    6  A    between atoms: N_13  and  C_14
REMARK    7  A    between atoms: N_15  and  C_16
REMARK    8  A    between atoms: C_16  and  C_17
REMARK    9  A    between atoms: C_21  and  N_23
REMARK                            x       y       z     vdW  Elec       q    Type
REMARK                         _______ _______ _______ _____ _____    ______ ____
ROOT
ATOM      1  C   UNL     1      -0.019   1.526   0.010  0.00  0.00    -0.009 C 
ATOM      2  C   UNL     1       0.002  -0.004   0.002  0.00  0.00    -0.044 C 
ENDROOT
BRANCH   2   3
ATOM      3  C   UNL     1      -1.412  -0.526   0.013  0.00  0.00    -0.060 A 
ATOM      4  C   UNL     1      -2.123  -0.571   1.198  0.00  0.00    +0.002 A 
ATOM      5  C   UNL     1      -3.420  -1.049   1.207  0.00  0.00    +0.002 A 
ATOM      6  C   UNL     1      -4.006  -1.482   0.032  0.00  0.00    +0.028 A 
ATOM      7  C   UNL     1      -3.295  -1.436  -1.152  0.00  0.00    +0.105 A 
ATOM      8  C   UNL     1      -1.999  -0.954  -1.163  0.00  0.00    +0.030 A 
BRANCH   7   9
ATOM      9  S   UNL     1      -4.042  -1.988  -2.650  0.00  0.00    +0.058 S 
ATOM     10  O   UNL     1      -2.981  -2.351  -3.523  0.00  0.00    -0.153 OA
ATOM     11  O   UNL     1      -5.069  -2.898  -2.280  0.00  0.00    -0.153 OA
BRANCH   9  12
ATOM     12  N   UNL     1      -4.792  -0.680  -3.334  0.00  0.00    -0.193 NA
ATOM     13  C   UNL     1      -3.997   0.458  -3.803  0.00  0.00    +0.127 C 
ATOM     14  H   UNL     1      -5.757  -0.667  -3.425  0.00  0.00    +0.148 HD
ENDBRANCH   9  12
ENDBRANCH   7   9
ENDBRANCH   2   3
BRANCH   2  15
ATOM     15  N   UNL     1       0.713  -0.491   1.192  0.00  0.00    +0.386 N 
ATOM     16  H   UNL     1       0.290  -0.099   2.020  0.00  0.00    -0.085 HD
ATOM     17  H   UNL     1       0.655  -1.497   1.230  0.00  0.00    -0.085 HD
BRANCH  15  18
ATOM     18  C   UNL     1       2.122  -0.083   1.122  0.00  0.00    -0.046 C 
BRANCH  18  19
ATOM     19  C   UNL     1       2.851  -0.582   2.343  0.00  0.00    -0.062 A 
ATOM     20  C   UNL     1       2.914   0.204   3.479  0.00  0.00    +0.003 A 
ATOM     21  C   UNL     1       3.582  -0.254   4.599  0.00  0.00    +0.022 A 
ATOM     22  C   UNL     1       4.187  -1.498   4.583  0.00  0.00    +0.071 A 
ATOM     23  C   UNL     1       4.124  -2.283   3.446  0.00  0.00    +0.145 A 
ATOM     24  C   UNL     1       3.451  -1.827   2.328  0.00  0.00    +0.036 A 
ATOM     25 CL   UNL     1       5.027  -2.073   5.990  0.00  0.00    -0.081 Cl
BRANCH  23  26
ATOM     26  N   UNL     1       4.771  -3.614   3.429  0.00  0.00    +0.058 N 
ATOM     27  O   UNL     1       4.715  -4.301   2.435  0.00  0.00    -0.126 OA
ATOM     28  O   UNL     1       5.355  -4.015   4.408  0.00  0.00    -0.126 OA
ENDBRANCH  23  26
ENDBRANCH  18  19
ENDBRANCH  15  18
ENDBRANCH   2  15
TORSDOF 7
