REMARK  Name = ZINC62038927
REMARK  4 active torsions:
REMARK  status: ('A' for Active; 'I' for Inactive)
REMARK    1  A    between atoms: C_6  and  C_7
REMARK    2  A    between atoms: C_10  and  C_12
REMARK    3  A    between atoms: C_12  and  S_13
REMARK    4  A    between atoms: S_13  and  C_14
REMARK                            x       y       z     vdW  Elec       q    Type
REMARK                         _______ _______ _______ _____ _____    ______ ____
ROOT
ATOM      1  S   UNL     1      -4.076  -4.942   0.016  0.00  0.00    -0.078 S 
ENDROOT
BRANCH   1   2
ATOM      2  C   UNL     1      -3.880  -6.693   0.005  0.00  0.00    +0.171 A 
ATOM      3  N   UNL     1      -2.667  -7.204  -0.005  0.00  0.00    -0.185 NA
ATOM      4  C   UNL     1      -2.446  -8.523  -0.014  0.00  0.00    +0.282 A 
ATOM      5  O   UNL     1      -1.305  -8.958  -0.022  0.00  0.00    -0.265 OA
ATOM      6  C   UNL     1      -3.602  -9.449  -0.014  0.00  0.00    +0.075 A 
ATOM      7  C   UNL     1      -3.593 -10.920  -0.023  0.00  0.00    -0.023 A 
ATOM      8  C   UNL     1      -4.788 -11.534  -0.021  0.00  0.00    -0.004 A 
ATOM      9  S   UNL     1      -5.979 -10.213  -0.004  0.00  0.00    -0.075 S 
ATOM     10  C   UNL     1      -4.856  -8.843  -0.003  0.00  0.00    +0.092 A 
ATOM     11  N   UNL     1      -4.988  -7.487   0.011  0.00  0.00    -0.328 N 
ATOM     12  C   UNL     1      -4.657 -13.033  -0.036  0.00  0.00    +0.043 C 
ATOM     13  C   UNL     1      -3.201 -13.291  -0.482  0.00  0.00    +0.010 C 
ATOM     14  C   UNL     1      -2.501 -11.994  -0.031  0.00  0.00    +0.037 C 
ATOM     15  H   UNL     1      -5.871  -7.087   0.023  0.00  0.00    +0.168 HD
ENDBRANCH   1   2
BRANCH   1  16
ATOM     16  C   UNL     1      -2.376  -4.310   0.003  0.00  0.00    +0.173 C 
BRANCH  16  20
ATOM     17  C   UNL     1      -1.265  -0.763   0.011  0.00  0.00    +0.250 C 
ATOM     18  O   UNL     1      -2.327  -0.172   0.024  0.00  0.00    -0.270 OA
ATOM     19  N   UNL     1      -1.244  -2.111   0.003  0.00  0.00    -0.252 N 
ATOM     20  C   UNL     1      -2.400  -2.803   0.011  0.00  0.00    +0.230 C 
ATOM     21  O   UNL     1      -3.459  -2.214   0.025  0.00  0.00    -0.274 OA
ATOM     22  H   UNL     1      -0.396  -2.582  -0.008  0.00  0.00    +0.158 HD
BRANCH  17  28
ATOM     23  C   UNL     1      -0.017   1.392   0.010  0.00  0.00    +0.014 A 
ATOM     24  C   UNL     1       1.170   2.095   0.002  0.00  0.00    +0.016 A 
ATOM     25  C   UNL     1       2.378   1.419  -0.013  0.00  0.00    +0.018 A 
ATOM     26  C   UNL     1       2.404   0.034  -0.021  0.00  0.00    +0.016 A 
ATOM     27  C   UNL     1       1.224  -0.680  -0.013  0.00  0.00    +0.014 A 
ATOM     28  C   UNL     1       0.002  -0.004   0.002  0.00  0.00    +0.037 A 
ATOM     29 BR   UNL     1       4.000   2.391  -0.025  0.00  0.00    -0.050 Br
ENDBRANCH  17  28
ENDBRANCH  16  20
ENDBRANCH   1  16
TORSDOF 4
