REMARK  Name = ZINC37582181
REMARK  4 active torsions:
REMARK  status: ('A' for Active; 'I' for Inactive)
REMARK    1  A    between atoms: C_6  and  C_7
REMARK    2  A    between atoms: N_9  and  C_10
REMARK    3  A    between atoms: N_9  and  C_14
REMARK    4  A    between atoms: C_10  and  C_11
REMARK                            x       y       z     vdW  Elec       q    Type
REMARK                         _______ _______ _______ _____ _____    ______ ____
ROOT
ATOM      1  C   UNL     1      -1.187  -0.936   0.266  0.00  0.00    +0.264 C 
ATOM      2  O   UNL     1      -2.308  -0.464   0.302  0.00  0.00    -0.268 OA
ATOM      3  N   UNL     1      -1.009  -2.220  -0.101  0.00  0.00    -0.281 N 
ENDROOT
BRANCH   1   9
ATOM      4  C   UNL     1      -0.039   1.255   0.836  0.00  0.00    +0.047 A 
ATOM      5  C   UNL     1       1.272   1.629   1.149  0.00  0.00    +0.036 A 
ATOM      6  C   UNL     1       2.041   0.514   1.121  0.00  0.00    +0.098 A 
ATOM      7  N   UNL     1       1.262  -0.548   0.801  0.00  0.00    -0.356 N 
ATOM      8  H   UNL     1       1.563  -1.465   0.713  0.00  0.00    +0.165 HD
ATOM      9  C   UNL     1      -0.030  -0.107   0.621  0.00  0.00    +0.103 A 
ATOM     10 BR   UNL     1       1.865   3.381   1.543  0.00  0.00    -0.049 Br
ENDBRANCH   1   9
BRANCH   3  11
ATOM     11  C   UNL     1      -2.161  -3.040  -0.483  0.00  0.00    +0.099 C 
ATOM     12  C   UNL     1      -2.890  -2.390  -1.671  0.00  0.00    +0.047 C 
ATOM     13  C   UNL     1      -4.270  -3.060  -1.874  0.00  0.00    +0.168 C 
ATOM     14  S   UNL     1      -4.695  -3.632  -0.179  0.00  0.00    -0.029 S 
ATOM     15  O   UNL     1      -4.786  -5.050  -0.178  0.00  0.00    -0.174 OA
ATOM     16  O   UNL     1      -5.784  -2.862   0.310  0.00  0.00    -0.174 OA
ATOM     17  C   UNL     1      -3.159  -3.130   0.707  0.00  0.00    +0.188 C 
ENDBRANCH   3  11
BRANCH   3  18
ATOM     18  C   UNL     1       0.338  -2.797  -0.118  0.00  0.00    +0.233 C 
BRANCH  18  19
ATOM     19  C   UNL     1       0.717  -3.229   1.275  0.00  0.00    +0.373 C 
ATOM     20  O   UNL     1      -0.065  -3.070   2.196  0.00  0.00    -0.245 OA
ATOM     21  O   UNL     1       1.806  -3.738   1.480  0.00  0.00    -0.245 OA
ENDBRANCH  18  19
ENDBRANCH   3  18
TORSDOF 4
