REMARK  Name = ZINC09139727
REMARK  7 active torsions:
REMARK  status: ('A' for Active; 'I' for Inactive)
REMARK    1  A    between atoms: C_4  and  N_7
REMARK    2  A    between atoms: C_8  and  C_24
REMARK    3  A    between atoms: C_11  and  S_12
REMARK    4  A    between atoms: S_12  and  C_13
REMARK    5  A    between atoms: C_13  and  C_14
REMARK    6  A    between atoms: N_16  and  C_17
REMARK    7  A    between atoms: C_17  and  C_22
REMARK                            x       y       z     vdW  Elec       q    Type
REMARK                         _______ _______ _______ _____ _____    ______ ____
ROOT
ATOM      1  N   UNL     1       1.161   3.487   0.009  0.00  0.00    -0.269 N 
ATOM      2  C   UNL     1       1.625   4.322   1.005  0.00  0.00    +0.186 A 
ATOM      3  N   UNL     1       1.416   5.556   0.601  0.00  0.00    -0.126 NA
ATOM      4  N   UNL     1       0.862   5.551  -0.558  0.00  0.00    -0.122 NA
ATOM      5  C   UNL     1       0.688   4.315  -0.972  0.00  0.00    +0.197 A 
ENDROOT
BRANCH   2   6
ATOM      6  C   UNL     1       2.239   3.910   2.277  0.00  0.00    +0.085 A 
ATOM      7  C   UNL     1       2.431   4.717   3.354  0.00  0.00    +0.039 A 
ATOM      8  C   UNL     1       3.063   3.902   4.390  0.00  0.00    +0.000 A 
ATOM      9  C   UNL     1       3.495   4.161   5.694  0.00  0.00    +0.010 A 
ATOM     10  C   UNL     1       4.069   3.163   6.429  0.00  0.00    +0.001 A 
ATOM     11  C   UNL     1       4.228   1.893   5.890  0.00  0.00    +0.002 A 
ATOM     12  C   UNL     1       3.809   1.615   4.607  0.00  0.00    +0.026 A 
ATOM     13  C   UNL     1       3.221   2.616   3.840  0.00  0.00    +0.047 A 
ATOM     14  N   UNL     1       2.715   2.648   2.559  0.00  0.00    -0.352 N 
ATOM     15  H   UNL     1       2.695   1.895   1.948  0.00  0.00    +0.166 HD
ENDBRANCH   2   6
BRANCH   1  19
ATOM     16  C   UNL     1       1.208  -0.680  -0.014  0.00  0.00    +0.000 A 
ATOM     17  C   UNL     1       0.002  -0.004   0.002  0.00  0.00    +0.002 A 
ATOM     18  C   UNL     1      -0.017   1.377   0.010  0.00  0.00    +0.026 A 
ATOM     19  C   UNL     1       1.177   2.086   0.002  0.00  0.00    +0.051 A 
ATOM     20  C   UNL     1       2.386   1.404  -0.013  0.00  0.00    +0.026 A 
ATOM     21  C   UNL     1       2.398   0.023  -0.021  0.00  0.00    +0.002 A 
ENDBRANCH   1  19
BRANCH   5  22
ATOM     22  S   UNL     1      -0.026   3.817  -2.504  0.00  0.00    -0.076 S 
BRANCH  22  23
ATOM     23  C   UNL     1      -0.388   5.438  -3.224  0.00  0.00    +0.173 C 
BRANCH  23  24
ATOM     24  C   UNL     1      -1.023   5.255  -4.579  0.00  0.00    +0.224 C 
ATOM     25  O   UNL     1      -1.212   4.140  -5.014  0.00  0.00    -0.275 OA
ATOM     26  N   UNL     1      -1.380   6.332  -5.306  0.00  0.00    -0.297 N 
ATOM     27  H   UNL     1      -1.229   7.225  -4.957  0.00  0.00    +0.150 HD
BRANCH  26  28
ATOM     28  C   UNL     1      -1.998   6.155  -6.623  0.00  0.00    +0.121 C 
ATOM     29  C   UNL     1      -1.019   5.434  -7.572  0.00  0.00    +0.041 C 
ATOM     30  C   UNL     1      -1.259   6.108  -8.947  0.00  0.00    +0.003 C 
ATOM     31  C   UNL     1      -1.486   7.592  -8.566  0.00  0.00    +0.003 C 
ATOM     32  C   UNL     1      -2.295   7.527  -7.254  0.00  0.00    +0.041 C 
BRANCH  28  33
ATOM     33  C   UNL     1      -3.241   5.378  -6.496  0.00  0.00    +0.088 C 
ATOM     34  N   UNL     1      -4.201   4.779  -6.397  0.00  0.00    -0.194 NA
ENDBRANCH  28  33
ENDBRANCH  26  28
ENDBRANCH  23  24
ENDBRANCH  22  23
ENDBRANCH   5  22
TORSDOF 7
