REMARK  Name = ZINC31810050
REMARK  2 active torsions:
REMARK  status: ('A' for Active; 'I' for Inactive)
REMARK    1  A    between atoms: C_1  and  C_2
REMARK    2  A    between atoms: C_21  and  C_23
REMARK                            x       y       z     vdW  Elec       q    Type
REMARK                         _______ _______ _______ _____ _____    ______ ____
ROOT
ATOM      1  C   UNL     1      -0.018   1.503   0.010  0.00  0.00    +0.068 C 
ATOM      2  C   UNL     1       0.002  -0.004   0.002  0.00  0.00    +0.066 A 
ATOM      3  C   UNL     1       0.008  -0.810  -1.127  0.00  0.00    +0.023 A 
ATOM      4  C   UNL     1       0.033  -2.116  -0.715  0.00  0.00    +0.134 A 
ATOM      5  N   UNL     1       0.033  -2.117   0.636  0.00  0.00    -0.197 N 
ATOM      6  N   UNL     1       0.023  -0.778   1.062  0.00  0.00    -0.168 NA
ATOM      7  C   UNL     1       0.047  -3.241   1.458  0.00  0.00    +0.187 A 
ATOM      8  C   UNL     1       0.040  -3.110   2.855  0.00  0.00    +0.152 A 
ATOM      9  C   UNL     1       0.053  -4.282   3.633  0.00  0.00    +0.163 A 
ATOM     10  N   UNL     1       0.042  -3.867   4.941  0.00  0.00    -0.329 N 
ATOM     11  H   UNL     1       0.048  -4.439   5.724  0.00  0.00    +0.168 HD
ATOM     12  C   UNL     1       0.023  -2.504   4.937  0.00  0.00    +0.198 A 
ATOM     13  N   UNL     1       0.022  -2.062   3.713  0.00  0.00    -0.231 NA
ATOM     14  N   UNL     1       0.072  -5.461   3.022  0.00  0.00    -0.216 NA
ATOM     15  C   UNL     1       0.079  -5.535   1.708  0.00  0.00    +0.226 A 
ATOM     16  N   UNL     1       0.060  -4.463   0.937  0.00  0.00    -0.214 NA
ATOM     17  N   UNL     1       0.065  -3.175  -1.620  0.00  0.00    -0.270 N 
ATOM     18  C   UNL     1       0.275  -2.891  -2.923  0.00  0.00    +0.219 C 
ATOM     19  O   UNL     1       0.119  -3.767  -3.748  0.00  0.00    -0.275 OA
ATOM     20  C   UNL     1       0.694  -1.524  -3.384  0.00  0.00    +0.109 C 
ATOM     21  C   UNL     1      -0.014  -0.426  -2.585  0.00  0.00    +0.064 C 
ATOM     22  H   UNL     1      -0.061  -4.089  -1.323  0.00  0.00    +0.156 HD
ENDROOT
BRANCH  21  23
ATOM     23  C   UNL     1       0.705   0.885  -2.775  0.00  0.00    -0.021 A 
ATOM     24  C   UNL     1       2.039   0.998  -2.428  0.00  0.00    +0.007 A 
ATOM     25  C   UNL     1       2.699   2.200  -2.602  0.00  0.00    +0.020 A 
ATOM     26  C   UNL     1       2.026   3.290  -3.124  0.00  0.00    +0.042 A 
ATOM     27  C   UNL     1       0.692   3.177  -3.472  0.00  0.00    +0.040 A 
ATOM     28  C   UNL     1       0.033   1.973  -3.302  0.00  0.00    +0.046 A 
ATOM     29 CL   UNL     1      -1.640   1.829  -3.744  0.00  0.00    -0.083 Cl
ATOM     30 CL   UNL     1       2.855   4.800  -3.342  0.00  0.00    -0.083 Cl
ENDBRANCH  21  23
TORSDOF 1
