REMARK  Name = ZINC20531754
REMARK  9 active torsions:
REMARK  status: ('A' for Active; 'I' for Inactive)
REMARK    1  A    between atoms: C_1  and  C_2
REMARK    2  A    between atoms: C_2  and  N_3
REMARK    3  A    between atoms: C_9  and  C_15
REMARK    4  A    between atoms: C_10  and  C_14
REMARK    5  A    between atoms: N_17  and  C_18
REMARK    6  A    between atoms: C_18  and  C_19
REMARK    7  A    between atoms: C_19  and  C_20
REMARK    8  A    between atoms: C_20  and  N_21
REMARK    9  A    between atoms: C_25  and  C_28
REMARK                            x       y       z     vdW  Elec       q    Type
REMARK                         _______ _______ _______ _____ _____    ______ ____
ROOT
ATOM      1  N   UNL     1      -2.899   4.294   5.061  0.00  0.00    +0.380 N 
ATOM      2  C   UNL     1      -3.729   3.584   4.079  0.00  0.00    -0.075 C 
ATOM      3  C   UNL     1      -3.011   3.555   2.728  0.00  0.00    +0.034 C 
ATOM      4  C   UNL     1      -1.658   2.862   2.890  0.00  0.00    +0.141 C 
ATOM      5  C   UNL     1      -0.832   3.579   3.958  0.00  0.00    +0.034 C 
ATOM      6  C   UNL     1      -1.618   3.607   5.271  0.00  0.00    -0.075 C 
ATOM      7  C   UNL     1      -0.912   2.860   1.579  0.00  0.00    +0.067 C 
ATOM      8  C   UNL     1      -0.718   1.572   1.248  0.00  0.00    +0.045 C 
ATOM      9  C   UNL     1      -1.298   0.711   2.292  0.00  0.00    +0.336 C 
ATOM     10  O   UNL     1      -1.281  -0.503   2.283  0.00  0.00    -0.245 OA
ATOM     11  O   UNL     1      -1.851   1.470   3.257  0.00  0.00    -0.450 OA
ATOM     12  C   UNL     1      -0.013   1.086   0.008  0.00  0.00    +0.052 C 
ATOM     13  H   UNL     1      -2.680   5.292   4.654  0.00  0.00    -0.082 HD
ENDROOT
BRANCH   7  14
ATOM     14  C   UNL     1      -0.481   4.043   0.807  0.00  0.00    +0.244 C 
ATOM     15  O   UNL     1       0.114   3.900  -0.243  0.00  0.00    -0.270 OA
ATOM     16  N   UNL     1      -0.748   5.281   1.268  0.00  0.00    -0.312 N 
ATOM     17  H   UNL     1      -1.286   5.410   2.218  0.00  0.00    +0.149 HD
BRANCH  16  18
ATOM     18  C   UNL     1      -0.321   6.455   0.502  0.00  0.00    +0.102 C 
BRANCH  18  19
ATOM     19  C   UNL     1      -0.744   7.727   1.240  0.00  0.00    +0.000 C 
BRANCH  19  20
ATOM     20  C   UNL     1      -0.298   8.953   0.441  0.00  0.00    -0.077 C 
BRANCH  20  21
ATOM     21  N   UNL     1      -0.705  10.174   1.149  0.00  0.00    +0.380 N 
ATOM     22  C   UNL     1      -2.168  10.293   1.194  0.00  0.00    -0.079 C 
ATOM     23  C   UNL     1      -2.556  11.493   2.060  0.00  0.00    -0.018 C 
ATOM     24  C   UNL     1      -1.940  12.764   1.469  0.00  0.00    -0.001 C 
ATOM     25  C   UNL     1      -0.420  12.595   1.388  0.00  0.00    -0.031 C 
ATOM     26  C   UNL     1      -0.093  11.363   0.541  0.00  0.00    -0.076 C 
ATOM     27  C   UNL     1       0.200  13.836   0.744  0.00  0.00    +0.005 C 
ATOM     28  H   UNL     1      -0.342  10.102   2.185  0.00  0.00    -0.082 HD
ENDBRANCH  20  21
ENDBRANCH  19  20
ENDBRANCH  18  19
ENDBRANCH  16  18
ENDBRANCH   7  14
BRANCH   1  30
ATOM     29  C   UNL     1      -2.648   4.981   7.398  0.00  0.00    -0.017 C 
ATOM     30  C   UNL     1      -3.617   4.469   6.330  0.00  0.00    -0.082 C 
ENDBRANCH   1  30
TORSDOF 6
