REMARK  Name = ZINC36024697
REMARK  15 active torsions:
REMARK  status: ('A' for Active; 'I' for Inactive)
REMARK    1  A    between atoms: C_1  and  C_2
REMARK    2  A    between atoms: C_2  and  C_3
REMARK    3  A    between atoms: C_2  and  C_4
REMARK    4  A    between atoms: C_2  and  C_5
REMARK    5  A    between atoms: C_7  and  C_16
REMARK    6  A    between atoms: C_9  and  C_12
REMARK    7  A    between atoms: C_10  and  O_11
REMARK    8  A    between atoms: C_12  and  C_13
REMARK    9  A    between atoms: C_12  and  C_14
REMARK   10  A    between atoms: C_12  and  C_15
REMARK   11  A    between atoms: N_17  and  N_18
REMARK   12  A    between atoms: C_19  and  C_21
REMARK   13  A    between atoms: C_21  and  O_22
REMARK   14  A    between atoms: O_22  and  C_23
REMARK   15  A    between atoms: C_26  and  N_30
REMARK                            x       y       z     vdW  Elec       q    Type
REMARK                         _______ _______ _______ _____ _____    ______ ____
ROOT
ATOM      1  C   UNL     1       2.437   0.934  -4.244  0.00  0.00    +0.138 C 
ATOM      2  N   UNL     1       3.103   0.516  -5.277  0.00  0.00    -0.188 NA
ENDROOT
BRANCH   1   5
ATOM      3  C   UNL     1       1.264  -0.424  -0.950  0.00  0.00    +0.000 A 
ATOM      4  C   UNL     1       1.371   0.377  -2.066  0.00  0.00    +0.017 A 
ATOM      5  C   UNL     1       2.320   0.080  -3.048  0.00  0.00    -0.005 A 
ATOM      6  C   UNL     1       3.157  -1.028  -2.893  0.00  0.00    +0.017 A 
ATOM      7  C   UNL     1       3.043  -1.823  -1.773  0.00  0.00    +0.000 A 
ATOM      8  C   UNL     1       2.102  -1.522  -0.797  0.00  0.00    +0.124 A 
BRANCH   3  10
ATOM      9  C   UNL     1      -0.545   1.141  -0.299  0.00  0.00    +0.015 C 
ATOM     10  C   UNL     1       0.241  -0.106   0.110  0.00  0.00    -0.009 C 
ATOM     11  C   UNL     1       0.949   0.151   1.441  0.00  0.00    +0.015 C 
ATOM     12  C   UNL     1      -0.720  -1.287   0.263  0.00  0.00    +0.015 C 
ENDBRANCH   3  10
BRANCH   7  13
ATOM     13  C   UNL     1       3.945  -3.018  -1.605  0.00  0.00    -0.009 C 
ATOM     14  C   UNL     1       4.886  -3.121  -2.808  0.00  0.00    +0.015 C 
ATOM     15  C   UNL     1       4.769  -2.859  -0.326  0.00  0.00    +0.015 C 
ATOM     16  C   UNL     1       3.097  -4.288  -1.511  0.00  0.00    +0.015 C 
ENDBRANCH   7  13
BRANCH   8  17
ATOM     17  O   UNL     1       1.998  -2.305   0.308  0.00  0.00    -0.506 OA
ATOM     18  H   UNL     1       1.377  -3.040   0.211  0.00  0.00    +0.292 HD
ENDBRANCH   8  17
ENDBRANCH   1   5
BRANCH   2  19
ATOM     19  N   UNL     1       3.244  -0.858  -5.511  0.00  0.00    -0.204 N 
ATOM     20  C   UNL     1       4.043  -1.294  -6.505  0.00  0.00    +0.270 C 
ATOM     21  O   UNL     1       4.640  -0.497  -7.197  0.00  0.00    -0.270 OA
ATOM     22  H   UNL     1       2.767  -1.495  -4.957  0.00  0.00    +0.177 HD
BRANCH  20  23
ATOM     23  C   UNL     1       4.194  -2.772  -6.756  0.00  0.00    +0.326 C 
BRANCH  23  24
ATOM     24  O   UNL     1       5.086  -2.980  -7.853  0.00  0.00    -0.482 OA
BRANCH  24  25
ATOM     25  C   UNL     1       5.332  -4.268  -8.213  0.00  0.00    +0.135 A 
ATOM     26  C   UNL     1       4.724  -5.309  -7.527  0.00  0.00    +0.049 A 
ATOM     27  C   UNL     1       4.976  -6.617  -7.894  0.00  0.00    +0.036 A 
ATOM     28  C   UNL     1       5.834  -6.888  -8.945  0.00  0.00    +0.127 A 
ATOM     29  C   UNL     1       6.442  -5.853  -9.629  0.00  0.00    +0.051 A 
ATOM     30  C   UNL     1       6.189  -4.542  -9.270  0.00  0.00    +0.062 A 
ATOM     31 BR   UNL     1       7.015  -3.126 -10.211  0.00  0.00    -0.046 Br
BRANCH  28  32
ATOM     32  N   UNL     1       6.102  -8.290  -9.336  0.00  0.00    +0.056 N 
ATOM     33  O   UNL     1       5.571  -9.197  -8.737  0.00  0.00    -0.126 OA
ATOM     34  O   UNL     1       6.851  -8.529 -10.254  0.00  0.00    -0.126 OA
ENDBRANCH  28  32
ENDBRANCH  24  25
ENDBRANCH  23  24
ENDBRANCH  20  23
ENDBRANCH   2  19
TORSDOF 9
