REMARK  Name = ZINC65918976
REMARK  4 active torsions:
REMARK  status: ('A' for Active; 'I' for Inactive)
REMARK    1  A    between atoms: C_4  and  N_6
REMARK    2  A    between atoms: N_9  and  N_10
REMARK    3  A    between atoms: C_11  and  C_13
REMARK    4  A    between atoms: C_15  and  C_19
REMARK                            x       y       z     vdW  Elec       q    Type
REMARK                         _______ _______ _______ _____ _____    ______ ____
ROOT
ATOM      1  N   UNL     1       2.081  -3.795   2.398  0.00  0.00    -0.228 N 
ATOM      2  C   UNL     1       2.270  -4.889   3.162  0.00  0.00    +0.279 C 
ATOM      3  O   UNL     1       2.175  -5.998   2.671  0.00  0.00    -0.267 OA
ATOM      4  H   UNL     1       2.156  -2.911   2.789  0.00  0.00    +0.173 HD
ENDROOT
BRANCH   2   5
ATOM      5  C   UNL     1       2.590  -4.742   4.590  0.00  0.00    +0.136 A 
ATOM      6  C   UNL     1       2.817  -5.760   5.501  0.00  0.00    +0.071 A 
ATOM      7  C   UNL     1       3.078  -5.119   6.715  0.00  0.00    +0.081 A 
ATOM      8  N   UNL     1       3.006  -3.828   6.511  0.00  0.00    -0.177 NA
ATOM      9  N   UNL     1       2.730  -3.572   5.284  0.00  0.00    -0.271 N 
ATOM     10  H   UNL     1       2.632  -2.683   4.907  0.00  0.00    +0.189 HD
ATOM     11 BR   UNL     1       2.779  -7.622   5.172  0.00  0.00    -0.046 Br
BRANCH   7  12
ATOM     12  C   UNL     1       3.388  -5.794   8.026  0.00  0.00    +0.041 C 
ATOM     13  C   UNL     1       3.445  -4.915   9.277  0.00  0.00    +0.010 C 
ATOM     14  C   UNL     1       4.735  -5.481   8.681  0.00  0.00    +0.010 C 
ENDBRANCH   7  12
ENDBRANCH   2   5
BRANCH   1  18
ATOM     15  N   UNL     1       1.692  -1.613   0.817  0.00  0.00    -0.295 N 
ATOM     16  C   UNL     1       1.587  -2.842   0.273  0.00  0.00    +0.316 C 
ATOM     17  O   UNL     1       1.322  -2.964  -0.907  0.00  0.00    -0.251 OA
ATOM     18  N   UNL     1       1.776  -3.936   1.038  0.00  0.00    -0.218 N 
ATOM     19  H   UNL     1       1.903  -1.516   1.758  0.00  0.00    +0.151 HD
ATOM     20  H   UNL     1       1.701  -4.820   0.646  0.00  0.00    +0.174 HD
BRANCH  15  24
ATOM     21  C   UNL     1      -0.019   1.534   0.011  0.00  0.00    +0.002 C 
ATOM     22  C   UNL     1       1.453   1.995  -0.001  0.00  0.00    +0.002 C 
ATOM     23  C   UNL     1       2.232   0.792   0.586  0.00  0.00    +0.022 C 
ATOM     24  C   UNL     1       1.486  -0.425  -0.014  0.00  0.00    +0.074 C 
ATOM     25  C   UNL     1       0.002  -0.004   0.002  0.00  0.00    +0.022 C 
ENDBRANCH  15  24
ENDBRANCH   1  18
TORSDOF 4
