REMARK  Name = ZINC39660694
REMARK  6 active torsions:
REMARK  status: ('A' for Active; 'I' for Inactive)
REMARK    1  A    between atoms: C_1  and  C_2
REMARK    2  A    between atoms: C_2  and  O_3
REMARK    3  A    between atoms: O_3  and  C_4
REMARK    4  A    between atoms: C_9  and  C_10
REMARK    5  A    between atoms: C_14  and  C_23
REMARK    6  A    between atoms: N_25  and  C_26
REMARK                            x       y       z     vdW  Elec       q    Type
REMARK                         _______ _______ _______ _____ _____    ______ ____
ROOT
ATOM      1  C   UNL     1       2.215  -1.214   3.525  0.00  0.00    +0.250 C 
ATOM      2  O   UNL     1       2.273  -0.004   3.432  0.00  0.00    -0.270 OA
ATOM      3  N   UNL     1       2.710  -1.831   4.616  0.00  0.00    -0.296 N 
ATOM      4  C   UNL     1       2.828  -3.288   4.862  0.00  0.00    +0.121 C 
ATOM      5  C   UNL     1       4.189  -3.455   5.574  0.00  0.00    +0.100 C 
ATOM      6  C   UNL     1       4.466  -2.086   6.217  0.00  0.00    -0.004 C 
ATOM      7  C   UNL     1       3.266  -1.205   5.840  0.00  0.00    +0.115 C 
ATOM      8  C   UNL     1       4.565  -2.225   7.733  0.00  0.00    -0.010 C 
ATOM      9  C   UNL     1       4.898  -0.862   8.345  0.00  0.00    -0.082 C 
ATOM     10  N   UNL     1       6.168  -0.373   7.795  0.00  0.00    +0.379 N 
ATOM     11  C   UNL     1       6.036  -0.154   6.349  0.00  0.00    -0.082 C 
ATOM     12  C   UNL     1       5.751  -1.488   5.653  0.00  0.00    -0.010 C 
ATOM     13  H   UNL     1       6.416   0.495   8.244  0.00  0.00    -0.086 HD
ATOM     14  H   UNL     1       6.892  -1.056   7.965  0.00  0.00    -0.086 HD
ENDROOT
BRANCH   1  20
ATOM     15  C   UNL     1       1.726  -1.595   1.109  0.00  0.00    +0.133 A 
ATOM     16  C   UNL     1       1.151  -2.353   0.099  0.00  0.00    +0.046 A 
ATOM     17  C   UNL     1       0.457  -3.506   0.408  0.00  0.00    +0.004 A 
ATOM     18  C   UNL     1       0.329  -3.914   1.726  0.00  0.00    +0.001 A 
ATOM     19  C   UNL     1       0.894  -3.174   2.742  0.00  0.00    +0.017 A 
ATOM     20  C   UNL     1       1.603  -2.009   2.443  0.00  0.00    +0.078 A 
BRANCH  15  21
ATOM     21  O   UNL     1       2.408  -0.462   0.807  0.00  0.00    -0.491 OA
BRANCH  21  23
ATOM     22  C   UNL     1       3.291   1.193  -0.717  0.00  0.00    +0.048 C 
ATOM     23  C   UNL     1       2.490  -0.103  -0.574  0.00  0.00    +0.226 C 
ENDBRANCH  21  23
ENDBRANCH  15  21
ENDBRANCH   1  20
BRANCH   5  24
ATOM     24  C   UNL     1       5.265  -3.796   4.575  0.00  0.00    +0.219 C 
ATOM     25  O   UNL     1       5.184  -3.393   3.434  0.00  0.00    -0.275 OA
ATOM     26  N   UNL     1       6.318  -4.548   4.950  0.00  0.00    -0.302 N 
ATOM     27  H   UNL     1       6.384  -4.871   5.863  0.00  0.00    +0.150 HD
BRANCH  26  28
ATOM     28  C   UNL     1       7.365  -4.880   3.980  0.00  0.00    +0.185 C 
ATOM     29  C   UNL     1       8.692  -5.219   4.706  0.00  0.00    +0.075 C 
ATOM     30  C   UNL     1       8.644  -6.771   4.684  0.00  0.00    +0.234 C 
ATOM     31  O   UNL     1       8.007  -7.051   3.419  0.00  0.00    -0.463 OA
ATOM     32  C   UNL     1       7.015  -6.153   3.235  0.00  0.00    +0.328 C 
ATOM     33  O   UNL     1       6.013  -6.334   2.585  0.00  0.00    -0.249 OA
ENDBRANCH  26  28
ENDBRANCH   5  24
TORSDOF 5
