REMARK  Name = ZINC38797281
REMARK  7 active torsions:
REMARK  status: ('A' for Active; 'I' for Inactive)
REMARK    1  A    between atoms: C_1  and  C_2
REMARK    2  A    between atoms: C_5  and  C_8
REMARK    3  A    between atoms: N_10  and  C_11
REMARK    4  A    between atoms: N_10  and  S_19
REMARK    5  A    between atoms: C_14  and  O_17
REMARK    6  A    between atoms: O_17  and  C_18
REMARK    7  A    between atoms: S_19  and  C_22
REMARK                            x       y       z     vdW  Elec       q    Type
REMARK                         _______ _______ _______ _____ _____    ______ ____
ROOT
ATOM      1  C   UNL     1      -0.416  -4.352  -0.034  0.00  0.00    +0.270 C 
ATOM      2  O   UNL     1      -0.417  -3.143  -0.157  0.00  0.00    -0.268 OA
ATOM      3  N   UNL     1      -0.020  -4.910   1.127  0.00  0.00    -0.135 N 
ENDROOT
BRANCH   1   8
ATOM      4  C   UNL     1      -2.099  -7.693  -4.406  0.00  0.00    +0.044 C 
ATOM      5  C   UNL     1      -1.658  -6.818  -3.261  0.00  0.00    -0.050 A 
ATOM      6  C   UNL     1      -1.275  -5.510  -3.501  0.00  0.00    +0.004 A 
ATOM      7  C   UNL     1      -0.871  -4.704  -2.457  0.00  0.00    +0.013 A 
ATOM      8  C   UNL     1      -0.848  -5.210  -1.157  0.00  0.00    +0.039 A 
ATOM      9  C   UNL     1      -1.236  -6.530  -0.921  0.00  0.00    +0.013 A 
ATOM     10  C   UNL     1      -1.643  -7.324  -1.974  0.00  0.00    +0.004 A 
ENDBRANCH   1   8
BRANCH   3  11
ATOM     11  C   UNL     1       0.094  -6.302   1.232  0.00  0.00    +0.060 A 
ATOM     12  C   UNL     1      -0.527  -6.973   2.277  0.00  0.00    +0.029 A 
ATOM     13  C   UNL     1      -0.415  -8.346   2.380  0.00  0.00    +0.047 A 
ATOM     14  C   UNL     1       0.318  -9.054   1.439  0.00  0.00    +0.120 A 
ATOM     15  C   UNL     1       0.939  -8.384   0.394  0.00  0.00    +0.047 A 
ATOM     16  C   UNL     1       0.822  -7.013   0.287  0.00  0.00    +0.029 A 
BRANCH  14  17
ATOM     17  O   UNL     1       0.428 -10.406   1.540  0.00  0.00    -0.495 OA
ATOM     18  C   UNL     1       1.198 -11.071   0.537  0.00  0.00    +0.277 C 
ENDBRANCH  14  17
ENDBRANCH   3  11
BRANCH   3  19
ATOM     19  S   UNL     1       0.332  -3.951   2.430  0.00  0.00    +0.081 S 
ATOM     20  O   UNL     1       1.082  -4.751   3.333  0.00  0.00    -0.149 OA
ATOM     21  O   UNL     1       0.825  -2.724   1.910  0.00  0.00    -0.149 OA
BRANCH  19  22
ATOM     22  C   UNL     1      -1.193  -3.582   3.232  0.00  0.00    +0.111 A 
ATOM     23  C   UNL     1      -2.002  -2.474   2.737  0.00  0.00    +0.031 A 
ATOM     24  C   UNL     1      -3.180  -2.138   3.306  0.00  0.00    +0.027 A 
ATOM     25  C   UNL     1      -3.671  -2.900   4.452  0.00  0.00    +0.056 A 
ATOM     26  N   UNL     1      -4.735  -2.842   5.213  0.00  0.00    -0.268 N 
ATOM     27  C   UNL     1      -4.650  -3.840   6.155  0.00  0.00    +0.308 C 
ATOM     28  O   UNL     1      -5.477  -4.061   7.014  0.00  0.00    -0.252 OA
ATOM     29  N   UNL     1      -3.487  -4.551   5.976  0.00  0.00    -0.267 N 
ATOM     30  C   UNL     1      -2.840  -4.038   4.960  0.00  0.00    +0.058 A 
ATOM     31  C   UNL     1      -1.580  -4.337   4.283  0.00  0.00    +0.054 A 
ATOM     32  H   UNL     1      -3.195  -5.305   6.513  0.00  0.00    +0.156 HD
ATOM     33  H   UNL     1      -5.460  -2.203   5.127  0.00  0.00    +0.156 HD
ENDBRANCH  19  22
ENDBRANCH   3  19
TORSDOF 5
