REMARK  Name = ZINC00924971
REMARK  10 active torsions:
REMARK  status: ('A' for Active; 'I' for Inactive)
REMARK    1  A    between atoms: C_1  and  C_2
REMARK    2  A    between atoms: C_7  and  C_15
REMARK    3  A    between atoms: C_13  and  C_14
REMARK    4  A    between atoms: C_15  and  N_16
REMARK    5  A    between atoms: N_16  and  C_17
REMARK    6  A    between atoms: N_16  and  S_26
REMARK    7  A    between atoms: C_17  and  C_18
REMARK    8  A    between atoms: C_21  and  O_24
REMARK    9  A    between atoms: O_24  and  C_25
REMARK   10  A    between atoms: S_26  and  C_29
REMARK                            x       y       z     vdW  Elec       q    Type
REMARK                         _______ _______ _______ _____ _____    ______ ____
ROOT
ATOM      1  N   UNL     1      -0.770   1.416  -1.195  0.00  0.00    -0.168 NA
ENDROOT
BRANCH   1   2
ATOM      2  S   UNL     1      -0.548   2.728  -2.180  0.00  0.00    +0.064 S 
ATOM      3  O   UNL     1      -1.792   2.968  -2.823  0.00  0.00    -0.153 OA
ATOM      4  O   UNL     1       0.110   3.716  -1.399  0.00  0.00    -0.153 OA
BRANCH   2   5
ATOM      5  C   UNL     1       0.586   2.247  -3.441  0.00  0.00    +0.134 A 
ATOM      6  C   UNL     1       0.181   2.196  -4.732  0.00  0.00    +0.031 A 
ATOM      7  C   UNL     1       1.051   1.819  -5.755  0.00  0.00    +0.004 A 
ATOM      8  C   UNL     1       2.340   1.488  -5.503  0.00  0.00    +0.031 A 
ATOM      9  C   UNL     1       2.834   1.518  -4.173  0.00  0.00    +0.102 A 
ATOM     10  C   UNL     1       1.925   1.918  -3.103  0.00  0.00    +0.126 A 
ATOM     11  N   UNL     1       2.520   1.909  -1.912  0.00  0.00    -0.189 NA
ATOM     12  S   UNL     1       4.001   1.464  -2.166  0.00  0.00    +0.117 S 
ATOM     13  N   UNL     1       4.051   1.233  -3.715  0.00  0.00    -0.191 NA
ENDBRANCH   2   5
ENDBRANCH   1   2
BRANCH   1  14
ATOM     14  C   UNL     1      -1.746   0.385  -1.557  0.00  0.00    +0.150 C 
BRANCH  14  21
ATOM     15  C   UNL     1       1.873  -6.705  -2.073  0.00  0.00    +0.044 C 
ATOM     16  C   UNL     1       1.147  -5.423  -1.753  0.00  0.00    -0.046 A 
ATOM     17  C   UNL     1       0.645  -5.219  -0.475  0.00  0.00    +0.004 A 
ATOM     18  C   UNL     1      -0.016  -4.065  -0.164  0.00  0.00    +0.010 A 
ATOM     19  C   UNL     1      -0.188  -3.079  -1.142  0.00  0.00    -0.001 A 
ATOM     20  C   UNL     1      -0.886  -1.828  -0.842  0.00  0.00    +0.020 A 
ATOM     21  C   UNL     1      -1.028  -0.912  -1.831  0.00  0.00    +0.033 A 
ATOM     22  C   UNL     1      -0.500  -1.165  -3.116  0.00  0.00    +0.254 A 
ATOM     23  O   UNL     1      -0.635  -0.326  -3.990  0.00  0.00    -0.268 OA
ATOM     24  N   UNL     1       0.146  -2.309  -3.400  0.00  0.00    -0.322 N 
ATOM     25  H   UNL     1       0.507  -2.456  -4.321  0.00  0.00    +0.169 HD
ATOM     26  C   UNL     1       0.320  -3.283  -2.439  0.00  0.00    +0.052 A 
ATOM     27  C   UNL     1       0.989  -4.467  -2.732  0.00  0.00    -0.024 A 
ATOM     28  C   UNL     1       1.538  -4.702  -4.116  0.00  0.00    +0.046 C 
ENDBRANCH  14  21
ENDBRANCH   1  14
BRANCH   1  29
ATOM     29  C   UNL     1       0.009   1.286   0.039  0.00  0.00    +0.145 C 
BRANCH  29  30
ATOM     30  C   UNL     1      -0.816   1.765   1.206  0.00  0.00    -0.031 A 
ATOM     31  C   UNL     1      -0.678   3.063   1.662  0.00  0.00    +0.008 A 
ATOM     32  C   UNL     1      -1.437   3.506   2.728  0.00  0.00    +0.046 A 
ATOM     33  C   UNL     1      -2.329   2.644   3.349  0.00  0.00    +0.120 A 
ATOM     34  C   UNL     1      -2.462   1.340   2.893  0.00  0.00    +0.046 A 
ATOM     35  C   UNL     1      -1.705   0.904   1.823  0.00  0.00    +0.008 A 
BRANCH  33  36
ATOM     36  O   UNL     1      -3.073   3.076   4.401  0.00  0.00    -0.495 OA
ATOM     37  C   UNL     1      -2.885   4.430   4.816  0.00  0.00    +0.277 C 
ENDBRANCH  33  36
ENDBRANCH  29  30
ENDBRANCH   1  29
TORSDOF 7
