REMARK  Name = ZINC12636655
REMARK  10 active torsions:
REMARK  status: ('A' for Active; 'I' for Inactive)
REMARK    1  A    between atoms: C_1  and  C_2
REMARK    2  A    between atoms: C_2  and  C_3
REMARK    3  A    between atoms: C_2  and  C_4
REMARK    4  A    between atoms: C_2  and  C_5
REMARK    5  A    between atoms: C_8  and  O_11
REMARK    6  A    between atoms: O_11  and  C_12
REMARK    7  A    between atoms: C_12  and  C_13
REMARK    8  A    between atoms: N_15  and  N_16
REMARK    9  A    between atoms: C_24  and  C_26
REMARK   10  A    between atoms: C_26  and  N_27
REMARK                            x       y       z     vdW  Elec       q    Type
REMARK                         _______ _______ _______ _____ _____    ______ ____
ROOT
ATOM      1  N   UNL     1      -0.491   4.228  -0.887  0.00  0.00    -0.248 N 
ATOM      2  C   UNL     1       0.876   4.426  -0.807  0.00  0.00    +0.147 A 
ATOM      3  C   UNL     1       1.748   3.458  -0.231  0.00  0.00    +0.052 A 
ATOM      4  C   UNL     1       1.379   2.173   0.338  0.00  0.00    -0.025 A 
ATOM      5  C   UNL     1       2.386   1.415   0.830  0.00  0.00    -0.004 A 
ATOM      6  S   UNL     1       3.861   2.367   0.562  0.00  0.00    -0.073 S 
ATOM      7  C   UNL     1       3.130   3.776  -0.207  0.00  0.00    +0.114 A 
ATOM      8  N   UNL     1       3.623   4.901  -0.684  0.00  0.00    -0.223 NA
ATOM      9  C   UNL     1       2.756   5.760  -1.208  0.00  0.00    +0.146 A 
ATOM     10  N   UNL     1       1.458   5.533  -1.264  0.00  0.00    -0.214 NA
ATOM     11  C   UNL     1       2.278   0.063   1.464  0.00  0.00    +0.043 C 
ATOM     12  C   UNL     1       0.805  -0.194   1.814  0.00  0.00    +0.005 C 
ATOM     13  C   UNL     1      -0.057   0.160   0.598  0.00  0.00    +0.005 C 
ATOM     14  C   UNL     1      -0.063   1.675   0.391  0.00  0.00    +0.037 C 
ATOM     15  H   UNL     1      -0.972   3.455  -0.270  0.00  0.00    +0.172 HD
ENDROOT
BRANCH   1  18
ATOM     16  C   UNL     1      -2.594   4.820  -1.832  0.00  0.00    +0.267 C 
ATOM     17  O   UNL     1      -3.124   3.968  -1.151  0.00  0.00    -0.271 OA
ATOM     18  N   UNL     1      -1.262   5.012  -1.754  0.00  0.00    -0.233 N 
ATOM     19  H   UNL     1      -0.781   5.785  -2.372  0.00  0.00    +0.173 HD
BRANCH  16  20
ATOM     20  C   UNL     1      -3.424   5.663  -2.765  0.00  0.00    +0.326 C 
BRANCH  20  21
ATOM     21  O   UNL     1      -4.795   5.272  -2.669  0.00  0.00    -0.483 OA
BRANCH  21  25
ATOM     22  C   UNL     1      -7.493   7.297  -5.044  0.00  0.00    -0.042 A 
ATOM     23  C   UNL     1      -7.932   6.290  -4.204  0.00  0.00    +0.008 A 
ATOM     24  C   UNL     1      -7.031   5.611  -3.408  0.00  0.00    +0.046 A 
ATOM     25  C   UNL     1      -5.684   5.939  -3.451  0.00  0.00    +0.121 A 
ATOM     26  C   UNL     1      -5.246   6.953  -4.290  0.00  0.00    +0.046 A 
ATOM     27  C   UNL     1      -6.151   7.625  -5.089  0.00  0.00    +0.008 A 
BRANCH  22  29
ATOM     28  C   UNL     1      -9.522   8.722  -5.027  0.00  0.00    +0.015 C 
ATOM     29  C   UNL     1      -8.478   8.037  -5.912  0.00  0.00    -0.013 C 
ATOM     30  C   UNL     1      -7.739   9.091  -6.738  0.00  0.00    +0.015 C 
ATOM     31  C   UNL     1      -9.174   7.048  -6.850  0.00  0.00    +0.015 C 
ENDBRANCH  22  29
ENDBRANCH  21  25
ENDBRANCH  20  21
ENDBRANCH  16  20
ENDBRANCH   1  18
BRANCH   9  32
ATOM     32  C   UNL     1       3.280   7.058  -1.764  0.00  0.00    +0.160 C 
BRANCH  32  33
ATOM     33  N   UNL     1       3.610   6.884  -3.185  0.00  0.00    -0.291 NA
ATOM     34  C   UNL     1       4.738   5.957  -3.355  0.00  0.00    +0.113 C 
ATOM     35  C   UNL     1       5.009   5.759  -4.848  0.00  0.00    +0.175 C 
ATOM     36  O   UNL     1       5.256   7.030  -5.456  0.00  0.00    -0.377 OA
ATOM     37  C   UNL     1       4.177   7.958  -5.310  0.00  0.00    +0.175 C 
ATOM     38  C   UNL     1       3.898   8.178  -3.821  0.00  0.00    +0.113 C 
ENDBRANCH  32  33
ENDBRANCH   9  32
TORSDOF 7
