REMARK  Name = ZINC63735453
REMARK  6 active torsions:
REMARK  status: ('A' for Active; 'I' for Inactive)
REMARK    1  A    between atoms: C_1  and  N_2
REMARK    2  A    between atoms: N_2  and  C_3
REMARK    3  A    between atoms: C_4  and  C_6
REMARK    4  A    between atoms: N_10  and  C_12
REMARK    5  A    between atoms: C_12  and  N_13
REMARK    6  A    between atoms: C_17  and  C_19
REMARK                            x       y       z     vdW  Elec       q    Type
REMARK                         _______ _______ _______ _____ _____    ______ ____
ROOT
ATOM      1  N   UNL     1      -0.107  -6.267  -3.530  0.00  0.00    -0.240 N 
ATOM      2  C   UNL     1       0.855  -7.202  -3.685  0.00  0.00    +0.265 A 
ATOM      3  S   UNL     1       2.507  -6.909  -4.022  0.00  0.00    +0.011 S 
ATOM      4  O   UNL     1       0.277  -8.405  -3.525  0.00  0.00    -0.412 OA
ATOM      5  C   UNL     1      -1.038  -8.228  -3.271  0.00  0.00    +0.247 A 
ATOM      6  N   UNL     1      -1.301  -6.953  -3.261  0.00  0.00    -0.131 NA
ENDROOT
BRANCH   5   7
ATOM      7  C   UNL     1      -2.019  -9.308  -3.035  0.00  0.00    +0.042 A 
ATOM      8  C   UNL     1      -3.357  -8.996  -2.789  0.00  0.00    +0.017 A 
ATOM      9  C   UNL     1      -4.271 -10.005  -2.570  0.00  0.00    +0.050 A 
ATOM     10  C   UNL     1      -3.866 -11.332  -2.594  0.00  0.00    +0.166 A 
ATOM     11  C   UNL     1      -2.531 -11.650  -2.839  0.00  0.00    +0.167 A 
ATOM     12  C   UNL     1      -1.611 -10.642  -3.065  0.00  0.00    +0.062 A 
ATOM     13  O   UNL     1      -2.394 -13.008  -2.810  0.00  0.00    -0.453 OA
ATOM     14  C   UNL     1      -3.571 -13.498  -2.142  0.00  0.00    +0.466 C 
ATOM     15  O   UNL     1      -4.564 -12.491  -2.412  0.00  0.00    -0.453 OA
ENDBRANCH   5   7
BRANCH   1  16
ATOM     16  C   UNL     1       0.065  -4.815  -3.619  0.00  0.00    +0.073 C 
BRANCH  16  21
ATOM     17  C   UNL     1      -0.025  -2.160  -0.968  0.00  0.00    +0.059 C 
ATOM     18  C   UNL     1       1.146  -2.651  -0.111  0.00  0.00    +0.009 C 
ATOM     19  C   UNL     1       1.135  -4.182  -0.078  0.00  0.00    -0.018 C 
ATOM     20  C   UNL     1       1.199  -4.718  -1.509  0.00  0.00    -0.076 C 
ATOM     21  N   UNL     1       0.040  -4.235  -2.269  0.00  0.00    +0.393 N 
ATOM     22  C   UNL     1       0.083  -2.771  -2.367  0.00  0.00    -0.064 C 
ATOM     23  H   UNL     1      -0.809  -4.516  -1.801  0.00  0.00    -0.079 HD
BRANCH  17  27
ATOM     24  C   UNL     1      -0.648   1.556  -0.304  0.00  0.00    +0.131 C 
ATOM     25  N   UNL     1      -0.596   0.101  -0.144  0.00  0.00    -0.307 N 
ATOM     26  C   UNL     1      -1.216  -0.530   1.024  0.00  0.00    +0.131 C 
ATOM     27  C   UNL     1       0.022  -0.657  -1.071  0.00  0.00    +0.216 C 
ATOM     28  O   UNL     1       0.616  -0.130  -1.987  0.00  0.00    -0.275 OA
ENDBRANCH  17  27
ENDBRANCH  16  21
ENDBRANCH   1  16
TORSDOF 4
