REMARK  Name = ZINC59960805
REMARK  8 active torsions:
REMARK  status: ('A' for Active; 'I' for Inactive)
REMARK    1  A    between atoms: C_1  and  C_2
REMARK    2  A    between atoms: C_5  and  N_8
REMARK    3  A    between atoms: C_21  and  S_22
REMARK    4  A    between atoms: S_22  and  C_23
REMARK    5  A    between atoms: C_23  and  C_24
REMARK    6  A    between atoms: C_26  and  C_29
REMARK    7  A    between atoms: C_29  and  C_30
REMARK    8  A    between atoms: C_29  and  C_31
REMARK                            x       y       z     vdW  Elec       q    Type
REMARK                         _______ _______ _______ _____ _____    ______ ____
ROOT
ATOM      1  N   UNL     1       0.059  -4.170  -0.021  0.00  0.00    -0.245 N 
ATOM      2  C   UNL     1      -0.034  -4.830  -1.194  0.00  0.00    +0.268 A 
ATOM      3  O   UNL     1      -0.135  -4.218  -2.241  0.00  0.00    -0.267 OA
ATOM      4  C   UNL     1      -0.012  -6.304  -1.188  0.00  0.00    +0.064 A 
ATOM      5  C   UNL     1      -0.105  -7.034  -2.371  0.00  0.00    +0.015 A 
ATOM      6  C   UNL     1      -0.081  -8.412  -2.326  0.00  0.00    +0.001 A 
ATOM      7  C   UNL     1       0.035  -9.071  -1.112  0.00  0.00    +0.002 A 
ATOM      8  C   UNL     1       0.128  -8.359   0.068  0.00  0.00    +0.027 A 
ATOM      9  C   UNL     1       0.105  -6.973   0.041  0.00  0.00    +0.064 A 
ATOM     10  N   UNL     1       0.197  -6.229   1.211  0.00  0.00    -0.255 N 
ATOM     11  C   UNL     1       0.180  -4.859   1.176  0.00  0.00    +0.245 A 
ATOM     12  N   UNL     1       0.289  -4.446   2.417  0.00  0.00    -0.109 NA
ATOM     13  N   UNL     1       0.377  -5.452   3.212  0.00  0.00    -0.120 NA
ATOM     14  C   UNL     1       0.319  -6.571   2.530  0.00  0.00    +0.198 A 
ENDROOT
BRANCH   1  19
ATOM     15  C   UNL     1      -0.017   1.503   0.011  0.00  0.00    +0.044 C 
ATOM     16  C   UNL     1       0.003  -0.004   0.003  0.00  0.00    -0.050 A 
ATOM     17  C   UNL     1      -1.181  -0.711   0.106  0.00  0.00    +0.005 A 
ATOM     18  C   UNL     1      -1.166  -2.092   0.098  0.00  0.00    +0.026 A 
ATOM     19  C   UNL     1       0.041  -2.771  -0.013  0.00  0.00    +0.053 A 
ATOM     20  C   UNL     1       1.228  -2.058  -0.116  0.00  0.00    +0.026 A 
ATOM     21  C   UNL     1       1.206  -0.677  -0.113  0.00  0.00    +0.005 A 
ENDBRANCH   1  19
BRANCH  14  22
ATOM     22  S   UNL     1       0.400  -8.204   3.187  0.00  0.00    -0.078 S 
BRANCH  22  23
ATOM     23  C   UNL     1       0.555  -7.950   4.977  0.00  0.00    +0.157 C 
BRANCH  23  24
ATOM     24  C   UNL     1       0.635  -9.287   5.668  0.00  0.00    +0.182 A 
ATOM     25  N   UNL     1      -0.408  -9.995   6.117  0.00  0.00    -0.195 NA
ATOM     26  C   UNL     1       0.006 -11.103   6.665  0.00  0.00    +0.230 A 
ATOM     27  O   UNL     1       1.341 -11.139   6.582  0.00  0.00    -0.338 OA
ATOM     28  N   UNL     1       1.730  -9.943   5.923  0.00  0.00    -0.060 NA
BRANCH  26  29
ATOM     29  C   UNL     1      -0.870 -12.162   7.284  0.00  0.00    +0.072 C 
ATOM     30  C   UNL     1      -0.663 -13.488   6.548  0.00  0.00    +0.017 C 
ATOM     31  C   UNL     1      -0.497 -12.334   8.758  0.00  0.00    +0.017 C 
ENDBRANCH  26  29
ENDBRANCH  23  24
ENDBRANCH  22  23
ENDBRANCH  14  22
TORSDOF 5
