REMARK  Name = ZINC65858990
REMARK  5 active torsions:
REMARK  status: ('A' for Active; 'I' for Inactive)
REMARK    1  A    between atoms: C_7  and  C_11
REMARK    2  A    between atoms: C_17  and  C_19
REMARK    3  A    between atoms: C_19  and  N_20
REMARK    4  A    between atoms: N_20  and  C_21
REMARK    5  A    between atoms: C_26  and  N_27
REMARK                            x       y       z     vdW  Elec       q    Type
REMARK                         _______ _______ _______ _____ _____    ______ ____
ROOT
ATOM      1  C   UNL     1       1.089  -4.894   0.399  0.00  0.00    -0.039 C 
ATOM      2  C   UNL     1       0.375  -5.035   1.491  0.00  0.00    -0.004 C 
ATOM      3  C   UNL     1      -0.787  -5.983   1.604  0.00  0.00    +0.135 C 
ATOM      4  N   UNL     1      -1.130  -6.487   0.267  0.00  0.00    -0.296 N 
ATOM      5  C   UNL     1      -0.016  -6.881  -0.613  0.00  0.00    +0.113 C 
ATOM      6  C   UNL     1       0.835  -5.635  -0.880  0.00  0.00    +0.054 C 
ATOM      7  C   UNL     1      -2.411  -6.586  -0.138  0.00  0.00    +0.233 C 
ATOM      8  O   UNL     1      -2.667  -7.005  -1.247  0.00  0.00    -0.274 OA
ENDROOT
BRANCH   1  15
ATOM      9  C   UNL     1       1.315  -0.225   0.314  0.00  0.00    +0.001 A 
ATOM     10  C   UNL     1       2.618   0.248   0.364  0.00  0.00    +0.002 A 
ATOM     11  C   UNL     1       3.680  -0.627   0.430  0.00  0.00    +0.026 A 
ATOM     12  C   UNL     1       3.446  -1.999   0.448  0.00  0.00    +0.047 A 
ATOM     13  C   UNL     1       2.123  -2.470   0.397  0.00  0.00    +0.007 A 
ATOM     14  C   UNL     1       1.063  -1.568   0.330  0.00  0.00    +0.010 A 
ATOM     15  C   UNL     1       2.215  -3.940   0.431  0.00  0.00    +0.003 A 
ATOM     16  C   UNL     1       3.536  -4.246   0.497  0.00  0.00    +0.091 A 
ATOM     17  N   UNL     1       4.274  -3.098   0.508  0.00  0.00    -0.360 N 
ATOM     18  H   UNL     1       5.243  -3.062   0.551  0.00  0.00    +0.165 HD
ENDBRANCH   1  15
BRANCH   7  19
ATOM     19  C   UNL     1      -3.527  -6.175   0.788  0.00  0.00    +0.197 C 
BRANCH  19  20
ATOM     20  N   UNL     1      -4.815  -6.376   0.119  0.00  0.00    -0.334 N 
ATOM     21  H   UNL     1      -4.843  -6.726  -0.785  0.00  0.00    +0.147 HD
BRANCH  20  22
ATOM     22  C   UNL     1      -6.003  -6.063   0.783  0.00  0.00    +0.058 A 
ATOM     23  C   UNL     1      -5.974  -5.677   2.118  0.00  0.00    +0.025 A 
ATOM     24  C   UNL     1      -7.151  -5.368   2.772  0.00  0.00    +0.002 A 
ATOM     25  C   UNL     1      -8.357  -5.442   2.099  0.00  0.00    +0.002 A 
ATOM     26  C   UNL     1      -8.390  -5.826   0.771  0.00  0.00    +0.034 A 
ATOM     27  C   UNL     1      -7.216  -6.131   0.110  0.00  0.00    +0.147 A 
BRANCH  27  28
ATOM     28  N   UNL     1      -7.252  -6.536  -1.313  0.00  0.00    +0.058 N 
ATOM     29  O   UNL     1      -6.379  -6.173  -2.067  0.00  0.00    -0.126 OA
ATOM     30  O   UNL     1      -8.154  -7.230  -1.722  0.00  0.00    -0.126 OA
ENDBRANCH  27  28
ENDBRANCH  20  22
ENDBRANCH  19  20
ENDBRANCH   7  19
TORSDOF 5
