REMARK  Name = ZINC28118006
REMARK  8 active torsions:
REMARK  status: ('A' for Active; 'I' for Inactive)
REMARK    1  A    between atoms: C_1  and  C_2
REMARK    2  A    between atoms: C_2  and  C_3
REMARK    3  A    between atoms: C_2  and  C_4
REMARK    4  A    between atoms: C_7  and  S_10
REMARK    5  A    between atoms: S_10  and  N_13
REMARK    6  A    between atoms: N_13  and  C_14
REMARK    7  A    between atoms: C_27  and  C_29
REMARK    8  A    between atoms: C_33  and  N_35
REMARK                            x       y       z     vdW  Elec       q    Type
REMARK                         _______ _______ _______ _____ _____    ______ ____
ROOT
ATOM      1  N   UNL     1       0.936   5.480   0.064  0.00  0.00    -0.135 N 
ATOM      2  C   UNL     1       0.412   4.478   0.796  0.00  0.00    +0.270 C 
ATOM      3  O   UNL     1       0.918   3.373   0.765  0.00  0.00    -0.268 OA
ENDROOT
BRANCH   1   4
ATOM      4  C   UNL     1       0.436   6.781   0.197  0.00  0.00    +0.061 A 
ATOM      5  C   UNL     1       1.301   7.832   0.496  0.00  0.00    +0.029 A 
ATOM      6  C   UNL     1       0.823   9.116   0.629  0.00  0.00    +0.049 A 
ATOM      7  C   UNL     1      -0.532   9.376   0.465  0.00  0.00    +0.136 A 
ATOM      8  C   UNL     1      -1.408   8.318   0.164  0.00  0.00    +0.025 A 
ATOM      9  C   UNL     1      -0.916   7.021   0.025  0.00  0.00    +0.037 A 
ATOM     10  C   UNL     1      -2.731   8.931   0.062  0.00  0.00    +0.001 A 
ATOM     11  C   UNL     1      -2.568  10.244   0.296  0.00  0.00    +0.109 A 
ATOM     12  O   UNL     1      -1.272  10.504   0.534  0.00  0.00    -0.459 OA
ATOM     13  C   UNL     1      -3.703  11.242   0.283  0.00  0.00    +0.075 C 
ATOM     14  C   UNL     1      -4.901  10.608  -0.433  0.00  0.00    +0.008 C 
ATOM     15  C   UNL     1      -5.178   9.224   0.160  0.00  0.00    +0.005 C 
ATOM     16  C   UNL     1      -4.048   8.267  -0.240  0.00  0.00    +0.039 C 
ENDBRANCH   1   4
BRANCH   2  17
ATOM     17  C   UNL     1      -0.779   4.722   1.637  0.00  0.00    +0.041 A 
ATOM     18  C   UNL     1      -1.038   6.002   2.131  0.00  0.00    +0.013 A 
ATOM     19  C   UNL     1      -2.151   6.223   2.915  0.00  0.00    +0.003 A 
ATOM     20  C   UNL     1      -3.010   5.180   3.213  0.00  0.00    +0.033 A 
ATOM     21  C   UNL     1      -2.756   3.908   2.732  0.00  0.00    +0.127 A 
ATOM     22  C   UNL     1      -1.649   3.674   1.941  0.00  0.00    +0.045 A 
BRANCH  21  23
ATOM     23  N   UNL     1      -3.676   2.796   3.061  0.00  0.00    +0.056 N 
ATOM     24  O   UNL     1      -4.656   3.002   3.755  0.00  0.00    -0.126 OA
ATOM     25  O   UNL     1      -3.454   1.676   2.638  0.00  0.00    -0.126 OA
ENDBRANCH  21  23
ENDBRANCH   2  17
BRANCH   1  26
ATOM     26  S   UNL     1       2.173   5.173  -0.994  0.00  0.00    +0.081 S 
ATOM     27  O   UNL     1       1.952   3.867  -1.509  0.00  0.00    -0.149 OA
ATOM     28  O   UNL     1       2.283   6.314  -1.833  0.00  0.00    -0.149 OA
BRANCH  26  32
ATOM     29  C   UNL     1       5.991   4.978   1.431  0.00  0.00    -0.045 A 
ATOM     30  C   UNL     1       5.087   3.933   1.479  0.00  0.00    +0.006 A 
ATOM     31  C   UNL     1       3.921   3.992   0.738  0.00  0.00    +0.029 A 
ATOM     32  C   UNL     1       3.659   5.097  -0.050  0.00  0.00    +0.109 A 
ATOM     33  C   UNL     1       4.565   6.140  -0.102  0.00  0.00    +0.029 A 
ATOM     34  C   UNL     1       5.729   6.082   0.641  0.00  0.00    +0.006 A 
BRANCH  29  36
ATOM     35  C   UNL     1       8.467   4.991   1.300  0.00  0.00    +0.012 C 
ATOM     36  C   UNL     1       7.261   4.914   2.239  0.00  0.00    +0.013 C 
ATOM     37  C   UNL     1       7.302   6.087   3.220  0.00  0.00    +0.012 C 
ENDBRANCH  29  36
ENDBRANCH  26  32
ENDBRANCH   1  26
TORSDOF 6
