REMARK  Name = ZINC13959438
REMARK  7 active torsions:
REMARK  status: ('A' for Active; 'I' for Inactive)
REMARK    1  A    between atoms: C_1  and  C_2
REMARK    2  A    between atoms: C_6  and  C_41
REMARK    3  A    between atoms: C_7  and  N_8
REMARK    4  A    between atoms: N_17  and  C_20
REMARK    5  A    between atoms: C_20  and  C_21
REMARK    6  A    between atoms: C_24  and  C_35
REMARK    7  A    between atoms: C_27  and  C_29
REMARK                            x       y       z     vdW  Elec       q    Type
REMARK                         _______ _______ _______ _____ _____    ______ ____
ROOT
ATOM      1  C   UNL     1      -2.444   3.043   4.153  0.00  0.00    +0.226 C 
ENDROOT
BRANCH   1   9
ATOM      2  N   UNL     1       0.025  -0.013   2.419  0.00  0.00    -0.206 N 
ATOM      3  C   UNL     1       1.151   0.365   3.035  0.00  0.00    +0.255 C 
ATOM      4  O   UNL     1       2.275   0.159   2.628  0.00  0.00    -0.272 OA
ATOM      5  C   UNL     1       0.804   1.088   4.317  0.00  0.00    +0.246 C 
ATOM      6  C   UNL     1      -0.748   1.054   4.338  0.00  0.00    +0.216 C 
ATOM      7  C   UNL     1      -1.099   0.329   3.059  0.00  0.00    +0.251 C 
ATOM      8  O   UNL     1      -2.224   0.092   2.674  0.00  0.00    -0.273 OA
ATOM      9  N   UNL     1      -1.093   2.480   4.200  0.00  0.00    -0.214 N 
ATOM     10  N   UNL     1       0.102   3.196   4.122  0.00  0.00    -0.082 NA
ATOM     11  N   UNL     1       1.136   2.512   4.186  0.00  0.00    -0.156 NA
BRANCH   2  18
ATOM     12  C   UNL     1      -0.018   1.503   0.010  0.00  0.00    +0.046 C 
ATOM     13  C   UNL     1       0.002  -0.004   0.002  0.00  0.00    -0.028 A 
ATOM     14  C   UNL     1       0.006  -0.689  -1.198  0.00  0.00    +0.005 A 
ATOM     15  C   UNL     1       0.025  -2.071  -1.206  0.00  0.00    +0.001 A 
ATOM     16  C   UNL     1       0.040  -2.773  -0.014  0.00  0.00    +0.005 A 
ATOM     17  C   UNL     1       0.037  -2.093   1.188  0.00  0.00    -0.028 A 
ATOM     18  C   UNL     1       0.023  -0.705   1.200  0.00  0.00    +0.050 A 
ATOM     19  C   UNL     1       0.054  -2.858   2.487  0.00  0.00    +0.046 C 
ENDBRANCH   2  18
ENDBRANCH   1   9
BRANCH   1  20
ATOM     20  C   UNL     1      -2.899   3.376   5.551  0.00  0.00    +0.254 C 
ATOM     21  O   UNL     1      -2.166   3.163   6.494  0.00  0.00    -0.272 OA
ATOM     22  N   UNL     1      -4.120   3.910   5.753  0.00  0.00    -0.184 N 
ATOM     23  C   UNL     1      -4.684   4.285   7.059  0.00  0.00    +0.137 C 
ATOM     24  C   UNL     1      -6.080   4.834   6.706  0.00  0.00    +0.087 C 
ATOM     25  C   UNL     1      -6.152   4.704   5.201  0.00  0.00    +0.069 C 
ATOM     26  N   UNL     1      -5.052   4.201   4.759  0.00  0.00    -0.181 NA
BRANCH  25  27
ATOM     27  C   UNL     1      -7.303   5.098   4.367  0.00  0.00    -0.002 A 
ATOM     28  C   UNL     1      -8.444   5.645   4.959  0.00  0.00    +0.010 A 
ATOM     29  C   UNL     1      -9.517   6.011   4.173  0.00  0.00    +0.001 A 
ATOM     30  C   UNL     1      -9.465   5.837   2.801  0.00  0.00    +0.000 A 
ATOM     31  C   UNL     1      -8.338   5.295   2.208  0.00  0.00    +0.001 A 
ATOM     32  C   UNL     1      -7.255   4.930   2.981  0.00  0.00    +0.010 A 
ENDBRANCH  25  27
BRANCH  23  33
ATOM     33  C   UNL     1      -4.796   3.079   7.956  0.00  0.00    -0.025 A 
ATOM     34  C   UNL     1      -5.171   1.858   7.428  0.00  0.00    +0.005 A 
ATOM     35  C   UNL     1      -5.274   0.751   8.250  0.00  0.00    +0.000 A 
ATOM     36  C   UNL     1      -5.000   0.866   9.600  0.00  0.00    +0.000 A 
ATOM     37  C   UNL     1      -4.624   2.086  10.128  0.00  0.00    +0.000 A 
ATOM     38  C   UNL     1      -4.517   3.192   9.305  0.00  0.00    +0.005 A 
ENDBRANCH  23  33
ENDBRANCH   1  20
TORSDOF 5
