REMARK  Name = ZINC36040318
REMARK  11 active torsions:
REMARK  status: ('A' for Active; 'I' for Inactive)
REMARK    1  A    between atoms: C_1  and  C_2
REMARK    2  A    between atoms: C_2  and  C_3
REMARK    3  A    between atoms: C_2  and  C_4
REMARK    4  A    between atoms: C_2  and  C_5
REMARK    5  A    between atoms: C_8  and  C_11
REMARK    6  A    between atoms: C_14  and  C_16
REMARK    7  A    between atoms: N_18  and  N_19
REMARK    8  A    between atoms: C_20  and  C_21
REMARK    9  A    between atoms: C_23  and  O_29
REMARK   10  A    between atoms: C_24  and  O_28
REMARK   11  A    between atoms: O_29  and  C_30
REMARK                            x       y       z     vdW  Elec       q    Type
REMARK                         _______ _______ _______ _____ _____    ______ ____
ROOT
ATOM      1  C   UNL     1       3.593   0.688  -5.029  0.00  0.00    +0.236 C 
ATOM      2  O   UNL     1       2.629   0.866  -4.314  0.00  0.00    -0.274 OA
ATOM      3  N   UNL     1       4.065   1.697  -5.787  0.00  0.00    -0.207 N 
ATOM      4  H   UNL     1       4.836   1.555  -6.359  0.00  0.00    +0.177 HD
ENDROOT
BRANCH   1   7
ATOM      5  C   UNL     1       3.678  -1.767  -4.186  0.00  0.00    +0.032 C 
ATOM      6  C   UNL     1       5.013  -1.117  -3.816  0.00  0.00    +0.022 C 
ATOM      7  C   UNL     1       4.262  -0.662  -5.070  0.00  0.00    +0.085 C 
BRANCH   5  11
ATOM      8  C   UNL     1       0.278  -0.790  -1.793  0.00  0.00    -0.042 A 
ATOM      9  C   UNL     1       0.192  -1.795  -2.738  0.00  0.00    +0.004 A 
ATOM     10  C   UNL     1       1.292  -2.111  -3.513  0.00  0.00    +0.004 A 
ATOM     11  C   UNL     1       2.478  -1.422  -3.343  0.00  0.00    -0.044 A 
ATOM     12  C   UNL     1       2.564  -0.416  -2.398  0.00  0.00    +0.004 A 
ATOM     13  C   UNL     1       1.462  -0.098  -1.626  0.00  0.00    +0.004 A 
BRANCH   8  15
ATOM     14  C   UNL     1      -1.311   1.015  -1.186  0.00  0.00    +0.015 C 
ATOM     15  C   UNL     1      -0.922  -0.446  -0.948  0.00  0.00    -0.013 C 
ATOM     16  C   UNL     1      -0.580  -0.648   0.530  0.00  0.00    +0.015 C 
ATOM     17  C   UNL     1      -2.092  -1.354  -1.330  0.00  0.00    +0.015 C 
ENDBRANCH   8  15
ENDBRANCH   5  11
ENDBRANCH   1   7
BRANCH   3  18
ATOM     18  N   UNL     1       3.443   2.952  -5.750  0.00  0.00    -0.188 NA
ATOM     19  C   UNL     1       3.822   3.888  -6.564  0.00  0.00    +0.138 C 
BRANCH  19  20
ATOM     20  C   UNL     1       4.530   3.540  -7.809  0.00  0.00    -0.001 A 
ATOM     21  C   UNL     1       5.189   4.532  -8.541  0.00  0.00    +0.059 A 
ATOM     22  C   UNL     1       5.852   4.201  -9.708  0.00  0.00    +0.163 A 
ATOM     23  C   UNL     1       5.862   2.880 -10.153  0.00  0.00    +0.172 A 
ATOM     24  C   UNL     1       5.208   1.895  -9.427  0.00  0.00    +0.059 A 
ATOM     25  C   UNL     1       4.550   2.218  -8.258  0.00  0.00    +0.027 A 
ATOM     26  I   UNL     1       5.227  -0.088 -10.103  0.00  0.00    -0.040 I 
BRANCH  23  27
ATOM     27  O   UNL     1       6.514   2.556 -11.301  0.00  0.00    -0.503 OA
ATOM     28  H   UNL     1       7.441   2.313 -11.171  0.00  0.00    +0.292 HD
ENDBRANCH  23  27
BRANCH  22  29
ATOM     29  O   UNL     1       6.494   5.164 -10.422  0.00  0.00    -0.491 OA
ATOM     30  C   UNL     1       6.442   6.496  -9.908  0.00  0.00    +0.277 C 
ENDBRANCH  22  29
ENDBRANCH  19  20
ENDBRANCH   3  18
TORSDOF 7
