REMARK  Name = ZINC09347692
REMARK  6 active torsions:
REMARK  status: ('A' for Active; 'I' for Inactive)
REMARK    1  A    between atoms: C_1  and  C_2
REMARK    2  A    between atoms: C_7  and  C_8
REMARK    3  A    between atoms: C_8  and  O_9
REMARK    4  A    between atoms: O_9  and  C_10
REMARK    5  A    between atoms: C_13  and  C_16
REMARK    6  A    between atoms: C_26  and  C_28
REMARK                            x       y       z     vdW  Elec       q    Type
REMARK                         _______ _______ _______ _____ _____    ______ ____
ROOT
ATOM      1  C   UNL     1       0.069   1.217   8.757  0.00  0.00    +0.024 C 
ATOM      2  C   UNL     1      -0.008   0.375   9.844  0.00  0.00    +0.081 C 
ATOM      3  C   UNL     1      -0.122   0.897  11.235  0.00  0.00    +0.153 C 
ATOM      4  N   UNL     1      -0.752   2.000  11.538  0.00  0.00    -0.283 NA
ATOM      5  N   UNL     1       0.519   0.082  12.193  0.00  0.00    -0.152 N 
ATOM      6  C   UNL     1       0.710  -1.245  11.873  0.00  0.00    +0.181 C 
ATOM      7  N   UNL     1       0.453  -1.837  10.734  0.00  0.00    -0.152 NA
ATOM      8  C   UNL     1       0.011  -1.101   9.692  0.00  0.00    +0.273 C 
ATOM      9  O   UNL     1      -0.356  -1.631   8.656  0.00  0.00    -0.268 OA
ATOM     10  S   UNL     1       1.397  -1.897  13.373  0.00  0.00    -0.033 S 
ATOM     11  C   UNL     1       1.479  -0.360  14.282  0.00  0.00    +0.130 C 
ATOM     12  N   UNL     1       0.963   0.494  13.431  0.00  0.00    -0.164 NA
ATOM     13  H   UNL     1      -0.797   2.296  12.461  0.00  0.00    +0.188 HD
ENDROOT
BRANCH  11  14
ATOM     14  C   UNL     1       1.996  -0.115  15.646  0.00  0.00    +0.012 A 
ATOM     15  C   UNL     1       1.965   1.172  16.185  0.00  0.00    +0.014 A 
ATOM     16  C   UNL     1       2.447   1.399  17.457  0.00  0.00    +0.050 A 
ATOM     17  C   UNL     1       2.963   0.351  18.205  0.00  0.00    +0.166 A 
ATOM     18  C   UNL     1       2.996  -0.937  17.673  0.00  0.00    +0.167 A 
ATOM     19  C   UNL     1       2.509  -1.171  16.400  0.00  0.00    +0.060 A 
ATOM     20  O   UNL     1       3.545  -1.777  18.598  0.00  0.00    -0.453 OA
ATOM     21  C   UNL     1       4.221  -0.923  19.539  0.00  0.00    +0.466 C 
ATOM     22  O   UNL     1       3.492   0.316  19.463  0.00  0.00    -0.453 OA
ENDBRANCH  11  14
BRANCH   1  26
ATOM     23  C   UNL     1       0.916  -0.350   4.923  0.00  0.00    +0.121 A 
ATOM     24  C   UNL     1       0.023   0.708   5.057  0.00  0.00    +0.046 A 
ATOM     25  C   UNL     1      -0.255   1.218   6.293  0.00  0.00    +0.011 A 
ATOM     26  C   UNL     1       0.362   0.674   7.429  0.00  0.00    -0.024 A 
ATOM     27  C   UNL     1       1.261  -0.393   7.287  0.00  0.00    +0.011 A 
ATOM     28  C   UNL     1       1.527  -0.898   6.046  0.00  0.00    +0.046 A 
BRANCH  23  29
ATOM     29  O   UNL     1       1.188  -0.853   3.693  0.00  0.00    -0.487 OA
BRANCH  29  30
ATOM     30  C   UNL     1       0.526  -0.244   2.582  0.00  0.00    +0.264 C 
BRANCH  30  37
ATOM     31  C   UNL     1      -0.546   0.632   0.046  0.00  0.00    +0.044 C 
ATOM     32  C   UNL     1       0.435  -0.511   0.095  0.00  0.00    -0.044 A 
ATOM     33  C   UNL     1       0.827  -1.136  -1.074  0.00  0.00    +0.004 A 
ATOM     34  C   UNL     1       1.727  -2.184  -1.029  0.00  0.00    +0.000 A 
ATOM     35  C   UNL     1       2.236  -2.607   0.185  0.00  0.00    +0.000 A 
ATOM     36  C   UNL     1       1.845  -1.981   1.354  0.00  0.00    +0.007 A 
ATOM     37  C   UNL     1       0.948  -0.930   1.308  0.00  0.00    -0.007 A 
ENDBRANCH  30  37
ENDBRANCH  29  30
ENDBRANCH  23  29
ENDBRANCH   1  26
TORSDOF 5
