REMARK  Name = ZINC58949599
REMARK  5 active torsions:
REMARK  status: ('A' for Active; 'I' for Inactive)
REMARK    1  A    between atoms: C_1  and  C_2
REMARK    2  A    between atoms: C_3  and  C_20
REMARK    3  A    between atoms: C_4  and  C_13
REMARK    4  A    between atoms: C_6  and  C_10
REMARK    5  A    between atoms: C_7  and  N_9
REMARK                            x       y       z     vdW  Elec       q    Type
REMARK                         _______ _______ _______ _____ _____    ______ ____
ROOT
ATOM      1  C   UNL     1      -0.022   1.503  -0.010  0.00  0.00    +0.087 C 
ATOM      2  C   UNL     1       0.000  -0.004  -0.008  0.00  0.00    +0.113 C 
ATOM      3  C   UNL     1      -1.159  -0.670   0.029  0.00  0.00    +0.064 C 
ATOM      4  C   UNL     1      -1.195  -2.174   0.033  0.00  0.00    +0.099 C 
ATOM      5  C   UNL     1       0.163  -2.718   0.387  0.00  0.00    +0.083 C 
ATOM      6  C   UNL     1       1.264  -1.928   0.330  0.00  0.00    +0.193 C 
ATOM      7  O   UNL     1       1.183  -0.638  -0.048  0.00  0.00    -0.446 OA
ENDROOT
BRANCH   4   8
ATOM      8  C   UNL     1      -1.588  -2.668  -1.335  0.00  0.00    -0.017 A 
ATOM      9  C   UNL     1      -0.808  -2.358  -2.433  0.00  0.00    +0.006 A 
ATOM     10  C   UNL     1      -1.169  -2.811  -3.688  0.00  0.00    +0.000 A 
ATOM     11  C   UNL     1      -2.311  -3.575  -3.846  0.00  0.00    +0.001 A 
ATOM     12  C   UNL     1      -3.092  -3.885  -2.749  0.00  0.00    +0.020 A 
ATOM     13  C   UNL     1      -2.728  -3.436  -1.492  0.00  0.00    +0.045 A 
ATOM     14 CL   UNL     1      -3.705  -3.831  -0.113  0.00  0.00    -0.083 Cl
ENDBRANCH   4   8
BRANCH   5  15
ATOM     15  C   UNL     1       0.291  -4.061   0.782  0.00  0.00    +0.243 C 
ATOM     16  O   UNL     1      -0.005  -4.394   1.917  0.00  0.00    -0.271 OA
ATOM     17  N   UNL     1       0.741  -4.982  -0.094  0.00  0.00    -0.325 N 
ATOM     18  H   UNL     1       0.976  -4.718  -0.997  0.00  0.00    +0.145 HD
ATOM     19  H   UNL     1       0.829  -5.908   0.179  0.00  0.00    +0.145 HD
ENDBRANCH   5  15
BRANCH   3  20
ATOM     20  C   UNL     1      -2.415   0.077   0.067  0.00  0.00    +0.242 C 
ATOM     21  O   UNL     1      -2.399   1.294   0.065  0.00  0.00    -0.271 OA
ATOM     22  N   UNL     1      -3.590  -0.582   0.105  0.00  0.00    -0.325 N 
ATOM     23  H   UNL     1      -3.603  -1.551   0.107  0.00  0.00    +0.145 HD
ATOM     24  H   UNL     1      -4.424  -0.086   0.130  0.00  0.00    +0.145 HD
ENDBRANCH   3  20
BRANCH   6  25
ATOM     25  N   UNL     1       2.485  -2.455   0.659  0.00  0.00    -0.329 N 
ATOM     26  H   UNL     1       2.567  -3.401   0.855  0.00  0.00    +0.145 HD
ATOM     27  H   UNL     1       3.267  -1.882   0.695  0.00  0.00    +0.145 HD
ENDBRANCH   6  25
TORSDOF 4
