REMARK  Name = ZINC60318908
REMARK  5 active torsions:
REMARK  status: ('A' for Active; 'I' for Inactive)
REMARK    1  A    between atoms: C_1  and  N_2
REMARK    2  A    between atoms: C_11  and  C_13
REMARK    3  A    between atoms: N_15  and  C_16
REMARK    4  A    between atoms: C_21  and  N_22
REMARK    5  A    between atoms: N_22  and  C_23
REMARK                            x       y       z     vdW  Elec       q    Type
REMARK                         _______ _______ _______ _____ _____    ______ ____
ROOT
ATOM      1  C   UNL     1       0.550  -3.244   7.072  0.00  0.00    +0.055 A 
ATOM      2  C   UNL     1      -0.038  -4.500   7.060  0.00  0.00    +0.025 A 
ATOM      3  C   UNL     1      -0.144  -5.225   8.232  0.00  0.00    +0.002 A 
ATOM      4  C   UNL     1       0.335  -4.701   9.419  0.00  0.00    +0.002 A 
ATOM      5  C   UNL     1       0.922  -3.450   9.441  0.00  0.00    +0.025 A 
ATOM      6  C   UNL     1       1.038  -2.719   8.268  0.00  0.00    +0.049 A 
ENDROOT
BRANCH   1   9
ATOM      7  C   UNL     1       0.679  -3.144   4.697  0.00  0.00    +0.248 C 
ATOM      8  O   UNL     1       0.699  -4.360   4.658  0.00  0.00    -0.270 OA
ATOM      9  N   UNL     1       0.659  -2.508   5.885  0.00  0.00    -0.280 N 
ATOM     10  H   UNL     1       0.720  -1.541   5.918  0.00  0.00    +0.155 HD
BRANCH   7  21
ATOM     11  C   UNL     1       0.043   1.137  -0.197  0.00  0.00    +0.130 C 
ATOM     12  N   UNL     1       0.681  -0.179  -0.102  0.00  0.00    -0.323 N 
ATOM     13  C   UNL     1       1.351  -0.782  -1.264  0.00  0.00    +0.200 C 
ATOM     14  C   UNL     1       0.998  -2.246  -1.330  0.00  0.00    +0.235 C 
ATOM     15  O   UNL     1       0.971  -2.808  -2.405  0.00  0.00    -0.274 OA
ATOM     16  N   UNL     1       0.714  -2.936  -0.210  0.00  0.00    -0.283 N 
ATOM     17  C   UNL     1       0.691  -2.297   1.036  0.00  0.00    +0.055 A 
ATOM     18  C   UNL     1       0.676  -0.896   1.095  0.00  0.00    +0.051 A 
ATOM     19  C   UNL     1       0.654  -0.241   2.318  0.00  0.00    +0.026 A 
ATOM     20  C   UNL     1       0.654  -0.970   3.488  0.00  0.00    +0.015 A 
ATOM     21  C   UNL     1       0.677  -2.366   3.443  0.00  0.00    +0.039 A 
ATOM     22  C   UNL     1       0.689  -3.032   2.205  0.00  0.00    +0.038 A 
ATOM     23  H   UNL     1       0.522  -3.885  -0.266  0.00  0.00    +0.155 HD
ENDBRANCH   7  21
ENDBRANCH   1   9
BRANCH   6  24
ATOM     24  N   UNL     1       1.638  -1.455   8.286  0.00  0.00    -0.337 N 
ATOM     25  H   UNL     1       1.647  -0.911   7.483  0.00  0.00    +0.147 HD
BRANCH  24  26
ATOM     26  C   UNL     1       2.252  -0.953   9.518  0.00  0.00    +0.033 C 
ATOM     27  C   UNL     1       3.296  -1.956  10.013  0.00  0.00    +0.029 C 
ATOM     28  C   UNL     1       3.937  -1.432  11.299  0.00  0.00    -0.008 C 
ATOM     29  C   UNL     1       4.613  -0.088  11.021  0.00  0.00    +0.007 C 
ATOM     30  C   UNL     1       3.570   0.915  10.526  0.00  0.00    -0.008 C 
ATOM     31  C   UNL     1       2.928   0.391   9.240  0.00  0.00    +0.029 C 
ATOM     32  C   UNL     1       2.491   1.098  11.596  0.00  0.00    +0.007 C 
ATOM     33  C   UNL     1       1.815  -0.246  11.874  0.00  0.00    -0.008 C 
ATOM     34  C   UNL     1       2.859  -1.249  12.369  0.00  0.00    +0.007 C 
ATOM     35  C   UNL     1       1.174  -0.770  10.587  0.00  0.00    +0.029 C 
ENDBRANCH  24  26
ENDBRANCH   6  24
TORSDOF 4
