REMARK  Name = ZINC63686549
REMARK  9 active torsions:
REMARK  status: ('A' for Active; 'I' for Inactive)
REMARK    1  A    between atoms: C_1  and  C_2
REMARK    2  A    between atoms: C_4  and  C_32
REMARK    3  A    between atoms: C_11  and  C_13
REMARK    4  A    between atoms: C_13  and  S_14
REMARK    5  A    between atoms: S_14  and  C_15
REMARK    6  A    between atoms: C_19  and  C_23
REMARK    7  A    between atoms: N_21  and  C_22
REMARK    8  A    between atoms: C_23  and  O_24
REMARK    9  A    between atoms: O_24  and  C_25
REMARK                            x       y       z     vdW  Elec       q    Type
REMARK                         _______ _______ _______ _____ _____    ______ ____
ROOT
ATOM      1  C   UNL     1      -1.369  -8.701   0.667  0.00  0.00    +0.200 C 
ATOM      2  N   UNL     1      -0.404  -9.141  -0.365  0.00  0.00    -0.229 NA
ATOM      3  N   UNL     1       0.265 -10.308   0.230  0.00  0.00    -0.234 NA
ATOM      4  C   UNL     1       0.398  -9.927   1.660  0.00  0.00    +0.178 C 
ATOM      5  N   UNL     1      -0.859  -9.201   1.961  0.00  0.00    -0.261 NA
ATOM      6  C   UNL     1      -1.838 -10.087   2.606  0.00  0.00    +0.109 C 
ATOM      7  H   UNL     1      -0.877  -9.392  -1.220  0.00  0.00    +0.143 HD
ATOM      8  H   UNL     1       1.170 -10.459  -0.190  0.00  0.00    +0.142 HD
ENDROOT
BRANCH   1   9
ATOM      9  S   UNL     1      -1.468  -6.890   0.696  0.00  0.00    -0.119 S 
BRANCH   9  10
ATOM     10  C   UNL     1       0.237  -6.363   1.021  0.00  0.00    +0.125 C 
BRANCH  10  21
ATOM     11  C   UNL     1       0.435   1.491  -0.121  0.00  0.00    +0.044 C 
ATOM     12  C   UNL     1       0.379  -0.015  -0.108  0.00  0.00    -0.049 A 
ATOM     13  C   UNL     1       0.255  -0.709  -1.303  0.00  0.00    +0.008 A 
ATOM     14  C   UNL     1       0.202  -2.086  -1.314  0.00  0.00    -0.026 A 
ATOM     15  C   UNL     1       0.276  -2.789  -0.115  0.00  0.00    +0.053 A 
ATOM     16  C   UNL     1       0.402  -2.079   1.092  0.00  0.00    +0.045 A 
ATOM     17  C   UNL     1       0.458  -0.685   1.081  0.00  0.00    +0.017 A 
ATOM     18  C   UNL     1       0.478  -2.842   2.350  0.00  0.00    +0.190 A 
ATOM     19  O   UNL     1       0.587  -2.275   3.425  0.00  0.00    -0.287 OA
ATOM     20  C   UNL     1       0.418  -4.253   2.271  0.00  0.00    +0.073 A 
ATOM     21  C   UNL     1       0.297  -4.858   1.071  0.00  0.00    +0.030 A 
ATOM     22  N   UNL     1       0.226  -4.164  -0.091  0.00  0.00    -0.357 N 
ATOM     23  C   UNL     1       0.066  -2.828  -2.619  0.00  0.00    +0.046 C 
ATOM     24  H   UNL     1       0.138  -4.649  -0.927  0.00  0.00    +0.166 HD
ENDBRANCH  10  21
ENDBRANCH   9  10
ENDBRANCH   1   9
BRANCH   4  25
ATOM     25  C   UNL     1       0.522 -11.174   2.538  0.00  0.00    +0.265 C 
BRANCH  25  26
ATOM     26  O   UNL     1       1.746 -11.848   2.237  0.00  0.00    -0.488 OA
BRANCH  26  27
ATOM     27  C   UNL     1       2.012 -12.984   2.934  0.00  0.00    +0.139 A 
ATOM     28  C   UNL     1       1.112 -13.443   3.884  0.00  0.00    +0.047 A 
ATOM     29  C   UNL     1       1.384 -14.599   4.590  0.00  0.00    +0.004 A 
ATOM     30  C   UNL     1       2.554 -15.297   4.353  0.00  0.00    +0.002 A 
ATOM     31  C   UNL     1       3.454 -14.841   3.407  0.00  0.00    +0.023 A 
ATOM     32  C   UNL     1       3.183 -13.689   2.693  0.00  0.00    +0.083 A 
ATOM     33 CL   UNL     1       4.310 -13.121   1.500  0.00  0.00    -0.080 Cl
ENDBRANCH  26  27
ENDBRANCH  25  26
ENDBRANCH   4  25
TORSDOF 6
