REMARK  Name = ZINC08429589
REMARK  11 active torsions:
REMARK  status: ('A' for Active; 'I' for Inactive)
REMARK    1  A    between atoms: C_1  and  C_2
REMARK    2  A    between atoms: N_5  and  S_11
REMARK    3  A    between atoms: C_7  and  C_10
REMARK    4  A    between atoms: S_11  and  C_14
REMARK    5  A    between atoms: C_17  and  C_20
REMARK    6  A    between atoms: N_22  and  CA_23
REMARK    7  A    between atoms: CA_23  and  CB_25
REMARK    8  A    between atoms: CA_23  and  C_29
REMARK    9  A    between atoms: CB_25  and  CG_26
REMARK   10  A    between atoms: CG_26  and  CD1_27
REMARK   11  A    between atoms: CG_26  and  CD2_28
REMARK                            x       y       z     vdW  Elec       q    Type
REMARK                         _______ _______ _______ _____ _____    ______ ____
ROOT
ATOM      1  C   UNK A   0       1.071   0.964  -3.106  0.00  0.00    +0.106 A 
ATOM      2  C   UNK A   0       2.292   0.314  -3.111  0.00  0.00    +0.029 A 
ATOM      3  C   UNK A   0       2.581  -0.611  -4.094  0.00  0.00    +0.015 A 
ATOM      4  C   UNK A   0       1.642  -0.882  -5.090  0.00  0.00    +0.037 A 
ATOM      5  C   UNK A   0       0.414  -0.218  -5.083  0.00  0.00    +0.015 A 
ATOM      6  C   UNK A   0       0.136   0.700  -4.091  0.00  0.00    +0.029 A 
ENDROOT
BRANCH   4   7
ATOM      7  C   UNK A   0       1.947  -1.867  -6.150  0.00  0.00    +0.245 C 
ATOM      8  O   UNK A   0       1.127  -2.100  -7.017  0.00  0.00    -0.270 OA
ATOM      9  N   LEU A   1       3.133  -2.506  -6.154  0.00  0.00    -0.298 N 
ATOM     10  H   LEU A   1       3.787  -2.320  -5.463  0.00  0.00    +0.150 HD
BRANCH   9  11
ATOM     11  CA  LEU A   1       3.436  -3.482  -7.204  0.00  0.00    +0.187 C 
BRANCH  11  12
ATOM     12  C   LEU A   1       2.877  -4.827  -6.816  0.00  0.00    +0.376 C 
ATOM     13  O   LEU A   1       2.286  -4.956  -5.770  0.00  0.00    -0.244 OA
ATOM     14  OXT LEU A   1       3.034  -5.880  -7.633  0.00  0.00    -0.244 OA
ENDBRANCH  11  12
BRANCH  11  15
ATOM     15  CB  LEU A   1       4.952  -3.591  -7.378  0.00  0.00    +0.037 C 
BRANCH  15  16
ATOM     16  CG  LEU A   1       5.509  -2.247  -7.853  0.00  0.00    -0.015 C 
ATOM     17  CD1 LEU A   1       7.037  -2.312  -7.887  0.00  0.00    +0.007 C 
ATOM     18  CD2 LEU A   1       4.980  -1.943  -9.256  0.00  0.00    +0.007 C 
ENDBRANCH  15  16
ENDBRANCH  11  15
ENDBRANCH   9  11
ENDBRANCH   4   7
BRANCH   1  19
ATOM     19  S   UNK A   0       0.707   2.138  -1.844  0.00  0.00    +0.061 S 
ATOM     20  O   UNK A   0      -0.280   3.012  -2.374  0.00  0.00    -0.153 OA
ATOM     21  O   UNK A   0       1.956   2.607  -1.354  0.00  0.00    -0.153 OA
BRANCH  19  25
ATOM     22  C   UNK A   0      -3.441   1.221   0.991  0.00  0.00    +0.039 C 
ATOM     23  C   UNK A   0      -1.959   1.569   0.841  0.00  0.00    +0.131 C 
ATOM     24  C   UNK A   0      -1.470   1.141  -0.548  0.00  0.00    +0.140 C 
ATOM     25  N   UNK A   0      -0.010   1.313  -0.600  0.00  0.00    -0.172 NA
ATOM     26  C   UNK A   0       0.794   0.731   0.486  0.00  0.00    +0.140 C 
ATOM     27  C   UNK A   0       0.197   1.179   1.825  0.00  0.00    +0.131 C 
ATOM     28  O   UNK A   0      -1.202   0.879   1.839  0.00  0.00    -0.371 OA
ATOM     29  C   UNK A   0       0.891   0.436   2.968  0.00  0.00    +0.039 C 
ENDBRANCH  19  25
ENDBRANCH   1  19
TORSDOF 7
