REMARK  Name = ZINC01875385
REMARK  12 active torsions:
REMARK  status: ('A' for Active; 'I' for Inactive)
REMARK    1  A    between atoms: C_1  and  N_2
REMARK    2  A    between atoms: N_2  and  C_3
REMARK    3  A    between atoms: N_2  and  C_31
REMARK    4  A    between atoms: C_3  and  C_4
REMARK    5  A    between atoms: C_5  and  C_15
REMARK    6  A    between atoms: N_17  and  N_18
REMARK    7  A    between atoms: C_19  and  C_20
REMARK    8  A    between atoms: C_22  and  O_29
REMARK    9  A    between atoms: C_23  and  O_28
REMARK   10  A    between atoms: C_24  and  O_26
REMARK   11  A    between atoms: O_26  and  C_27
REMARK   12  A    between atoms: O_29  and  C_30
REMARK                            x       y       z     vdW  Elec       q    Type
REMARK                         _______ _______ _______ _____ _____    ______ ____
ROOT
ATOM      1  C   UNL     1       3.121  -2.200  -0.045  0.00  0.00    +0.063 A 
ATOM      2  C   UNL     1       3.084  -3.566  -0.049  0.00  0.00    +0.170 A 
ATOM      3  N   UNL     1       1.798  -3.957  -0.039  0.00  0.00    -0.124 NA
ATOM      4  N   UNL     1       1.032  -2.922  -0.025  0.00  0.00    -0.058 NA
ATOM      5  N   UNL     1       1.838  -1.775  -0.025  0.00  0.00    -0.194 N 
ATOM      6  C   UNL     1       1.399  -0.446  -0.014  0.00  0.00    +0.240 A 
ATOM      7  C   UNL     1       0.002  -0.004   0.002  0.00  0.00    +0.206 A 
ATOM      8  N   UNL     1      -0.016   1.300   0.009  0.00  0.00    -0.032 NA
ATOM      9  O   UNL     1       1.327   1.753  -0.001  0.00  0.00    -0.239 OA
ATOM     10  N   UNL     1       2.164   0.609  -0.015  0.00  0.00    -0.027 NA
ATOM     11  N   UNL     1      -1.114  -0.833   0.009  0.00  0.00    -0.337 N 
ATOM     12  H   UNL     1      -2.123  -0.397   0.021  0.00  0.00    +0.144 HD
ATOM     13  H   UNL     1      -0.987  -1.926   0.002  0.00  0.00    +0.144 HD
ENDROOT
BRANCH   2  14
ATOM     14  C   UNL     1       4.256  -4.460  -0.066  0.00  0.00    +0.285 C 
ATOM     15  O   UNL     1       5.379  -3.991  -0.074  0.00  0.00    -0.267 OA
ATOM     16  N   UNL     1       4.085  -5.797  -0.073  0.00  0.00    -0.202 N 
ATOM     17  H   UNL     1       3.070  -6.221  -0.065  0.00  0.00    +0.178 HD
BRANCH  16  18
ATOM     18  N   UNL     1       5.199  -6.646  -0.090  0.00  0.00    -0.187 NA
ATOM     19  C   UNL     1       5.033  -7.933  -0.096  0.00  0.00    +0.138 C 
BRANCH  19  20
ATOM     20  C   UNL     1       6.205  -8.827  -0.114  0.00  0.00    +0.002 A 
ATOM     21  C   UNL     1       7.495  -8.290  -0.129  0.00  0.00    +0.059 A 
ATOM     22  C   UNL     1       8.593  -9.132  -0.141  0.00  0.00    +0.166 A 
ATOM     23  C   UNL     1       8.414 -10.511  -0.148  0.00  0.00    +0.201 A 
ATOM     24  C   UNL     1       7.130 -11.049  -0.138  0.00  0.00    +0.166 A 
ATOM     25  C   UNL     1       6.029 -10.213  -0.121  0.00  0.00    +0.059 A 
BRANCH  24  26
ATOM     26  O   UNL     1       6.959 -12.398  -0.145  0.00  0.00    -0.491 OA
ATOM     27  C   UNL     1       5.615 -12.882  -0.135  0.00  0.00    +0.277 C 
ENDBRANCH  24  26
BRANCH  23  28
ATOM     28  O   UNL     1       9.495 -11.336  -0.164  0.00  0.00    -0.501 OA
ATOM     29  H   UNL     1       9.355 -12.427  -0.170  0.00  0.00    +0.292 HD
ENDBRANCH  23  28
BRANCH  22  30
ATOM     30  O   UNL     1       9.849  -8.609  -0.152  0.00  0.00    -0.491 OA
ATOM     31  C   UNL     1       9.959  -7.185  -0.144  0.00  0.00    +0.277 C 
ENDBRANCH  22  30
ENDBRANCH  19  20
ENDBRANCH  16  18
ENDBRANCH   2  14
BRANCH   1  32
ATOM     32  C   UNL     1       4.355  -1.335  -0.059  0.00  0.00    -0.020 C 
BRANCH  32  34
ATOM     33  C   UNL     1       5.218  -2.290   1.992  0.00  0.00    -0.095 C 
ATOM     34  N   UNL     1       4.775  -1.060   1.322  0.00  0.00    +0.383 N 
ATOM     35  H   UNL     1       3.903  -0.672   1.869  0.00  0.00    -0.081 HD
BRANCH  34  36
ATOM     36  C   UNL     1       5.825  -0.033   1.358  0.00  0.00    -0.068 C 
ATOM     37  C   UNL     1       7.083  -0.566   0.670  0.00  0.00    -0.015 C 
ATOM     38  C   UNL     1       8.177   0.504   0.708  0.00  0.00    -0.002 C 
ATOM     39  C   UNL     1       8.499   0.852   2.162  0.00  0.00    -0.000 C 
ATOM     40  C   UNL     1       7.241   1.385   2.850  0.00  0.00    -0.002 C 
ATOM     41  C   UNL     1       6.148   0.315   2.813  0.00  0.00    -0.015 C 
ENDBRANCH  34  36
ENDBRANCH  32  34
ENDBRANCH   1  32
TORSDOF 9
