REMARK  Name = ZINC40056646
REMARK  12 active torsions:
REMARK  status: ('A' for Active; 'I' for Inactive)
REMARK    1  A    between atoms: C_1  and  C_2
REMARK    2  A    between atoms: N_16  and  C_30
REMARK    3  A    between atoms: C_17  and  C_19
REMARK    4  A    between atoms: C_22  and  O_25
REMARK    5  A    between atoms: O_25  and  C_26
REMARK    6  A    between atoms: C_26  and  C_27
REMARK    7  A    between atoms: C_30  and  C_31
REMARK    8  A    between atoms: C_31  and  C_32
REMARK    9  A    between atoms: C_32  and  O_33
REMARK   10  A    between atoms: O_33  and  C_34
REMARK   11  A    between atoms: C_34  and  C_35
REMARK   12  A    between atoms: C_34  and  C_36
REMARK                            x       y       z     vdW  Elec       q    Type
REMARK                         _______ _______ _______ _____ _____    ______ ____
ROOT
ATOM      1  C   UNL     1      -0.018   1.503   0.010  0.00  0.00    +0.045 C 
ATOM      2  C   UNL     1       0.002  -0.004   0.002  0.00  0.00    -0.029 A 
ATOM      3  C   UNL     1       0.006  -0.677  -1.199  0.00  0.00    +0.051 A 
ATOM      4  C   UNL     1       0.026  -2.071  -1.222  0.00  0.00    +0.140 A 
ATOM      5  C   UNL     1       0.047  -2.767  -0.001  0.00  0.00    +0.066 A 
ATOM      6  C   UNL     1       0.040  -2.075   1.209  0.00  0.00    +0.035 A 
ATOM      7  C   UNL     1       0.023  -0.696   1.206  0.00  0.00    +0.045 A 
ATOM      8 CL   UNL     1       0.021   0.175   2.707  0.00  0.00    -0.083 Cl
ATOM      9  C   UNL     1       0.085  -4.251  -0.018  0.00  0.00    +0.199 A 
ATOM     10  O   UNL     1      -0.063  -4.933   0.980  0.00  0.00    -0.287 OA
ATOM     11  C   UNL     1       0.317  -4.817  -1.351  0.00  0.00    +0.072 A 
ATOM     12  C   UNL     1       0.278  -4.030  -2.467  0.00  0.00    +0.199 A 
ATOM     13  O   UNL     1       0.021  -2.708  -2.416  0.00  0.00    -0.450 OA
ATOM     14  C   UNL     1       0.555  -4.877  -3.640  0.00  0.00    +0.283 C 
ATOM     15  O   UNL     1       0.599  -4.483  -4.788  0.00  0.00    -0.267 OA
ATOM     16  N   UNL     1       0.754  -6.154  -3.253  0.00  0.00    -0.284 N 
ATOM     17  C   UNL     1       0.617  -6.213  -1.789  0.00  0.00    +0.144 C 
ENDROOT
BRANCH  17  18
ATOM     18  C   UNL     1      -0.515  -7.132  -1.409  0.00  0.00    -0.022 A 
ATOM     19  C   UNL     1      -1.666  -7.161  -2.174  0.00  0.00    +0.009 A 
ATOM     20  C   UNL     1      -2.706  -8.003  -1.828  0.00  0.00    +0.046 A 
ATOM     21  C   UNL     1      -2.594  -8.819  -0.712  0.00  0.00    +0.121 A 
ATOM     22  C   UNL     1      -1.437  -8.788   0.054  0.00  0.00    +0.046 A 
ATOM     23  C   UNL     1      -0.399  -7.948  -0.299  0.00  0.00    +0.009 A 
BRANCH  21  24
ATOM     24  O   UNL     1      -3.615  -9.647  -0.369  0.00  0.00    -0.483 OA
BRANCH  24  25
ATOM     25  C   UNL     1      -3.430 -10.459   0.792  0.00  0.00    +0.324 C 
BRANCH  25  26
ATOM     26  C   UNL     1      -4.657 -11.305   1.015  0.00  0.00    +0.248 C 
ATOM     27  O   UNL     1      -5.598 -11.221   0.253  0.00  0.00    -0.272 OA
ATOM     28  N   UNL     1      -4.710 -12.155   2.059  0.00  0.00    -0.327 N 
ATOM     29  H   UNL     1      -3.958 -12.222   2.668  0.00  0.00    +0.145 HD
ATOM     30  H   UNL     1      -5.500 -12.699   2.203  0.00  0.00    +0.145 HD
ENDBRANCH  25  26
ENDBRANCH  24  25
ENDBRANCH  21  24
ENDBRANCH  17  18
BRANCH  16  31
ATOM     31  C   UNL     1       1.053  -7.284  -4.136  0.00  0.00    +0.111 C 
BRANCH  31  32
ATOM     32  C   UNL     1       2.568  -7.415  -4.302  0.00  0.00    +0.047 C 
BRANCH  32  33
ATOM     33  C   UNL     1       2.881  -8.595  -5.224  0.00  0.00    +0.161 C 
BRANCH  33  34
ATOM     34  O   UNL     1       4.296  -8.718  -5.378  0.00  0.00    -0.377 OA
BRANCH  34  35
ATOM     35  C   UNL     1       4.697  -9.796  -6.226  0.00  0.00    +0.112 C 
ATOM     36  C   UNL     1       4.792  -9.302  -7.670  0.00  0.00    +0.037 C 
ATOM     37  C   UNL     1       6.062 -10.319  -5.775  0.00  0.00    +0.037 C 
ENDBRANCH  34  35
ENDBRANCH  33  34
ENDBRANCH  32  33
ENDBRANCH  31  32
ENDBRANCH  16  31
TORSDOF 9
