REMARK  Name = ZINC12832861
REMARK  17 active torsions:
REMARK  status: ('A' for Active; 'I' for Inactive)
REMARK    1  A    between atoms: C_1  and  C_2
REMARK    2  A    between atoms: C_2  and  O_3
REMARK    3  A    between atoms: O_3  and  C_4
REMARK    4  A    between atoms: C_4  and  C_6
REMARK    5  A    between atoms: C_6  and  N_7
REMARK    6  A    between atoms: C_8  and  C_12
REMARK    7  A    between atoms: C_12  and  N_70
REMARK    8  A    between atoms: C_13  and  C_14
REMARK    9  A    between atoms: C_13  and  N_70
REMARK   10  A    between atoms: C_14  and  C_15
REMARK   11  A    between atoms: C_18  and  O_23
REMARK   12  A    between atoms: C_19  and  O_21
REMARK   13  A    between atoms: O_21  and  C_22
REMARK   14  A    between atoms: O_23  and  C_24
REMARK   15  A    between atoms: C_25  and  C_26
REMARK   16  A    between atoms: C_25  and  N_70
REMARK   17  A    between atoms: C_31  and  C_38
REMARK                            x       y       z     vdW  Elec       q    Type
REMARK                         _______ _______ _______ _____ _____    ______ ____
ROOT
ATOM      1  N   UNL     1      -0.044   1.788  -2.440  0.00  0.00    +0.387 N 
ATOM      2  H   UNL     1       0.282   0.837  -2.650  0.00  0.00    -0.081 HD
ENDROOT
BRANCH   1   3
ATOM      3  C   UNL     1      -1.045   2.188  -3.451  0.00  0.00    +0.001 C 
BRANCH   3   5
ATOM      4  N   UNL     1      -2.030   0.001  -4.318  0.00  0.00    -0.220 N 
ATOM      5  C   UNL     1      -2.090   1.107  -3.553  0.00  0.00    +0.136 A 
ATOM      6  N   UNL     1      -3.236   1.064  -2.919  0.00  0.00    -0.115 NA
ATOM      7  N   UNL     1      -3.847  -0.014  -3.272  0.00  0.00    -0.023 NA
ATOM      8  N   UNL     1      -3.119  -0.660  -4.115  0.00  0.00    -0.043 NA
BRANCH   4   9
ATOM      9  C   UNL     1      -0.933  -0.381  -5.211  0.00  0.00    +0.267 C 
BRANCH   9  10
ATOM     10  C   UNL     1      -0.004  -1.323  -4.490  0.00  0.00    +0.329 C 
ATOM     11  O   UNL     1      -0.252  -1.668  -3.359  0.00  0.00    -0.249 OA
BRANCH  10  12
ATOM     12  O   UNL     1       1.099  -1.778  -5.104  0.00  0.00    -0.464 OA
BRANCH  12  14
ATOM     13  C   UNL     1       3.148  -3.091  -5.207  0.00  0.00    +0.048 C 
ATOM     14  C   UNL     1       1.949  -2.682  -4.349  0.00  0.00    +0.229 C 
ENDBRANCH  12  14
ENDBRANCH  10  12
ENDBRANCH   9  10
ENDBRANCH   4   9
ENDBRANCH   3   5
ENDBRANCH   1   3
BRANCH   1  15
ATOM     15  C   UNL     1      -0.653   1.799  -1.093  0.00  0.00    -0.073 C 
BRANCH  15  16
ATOM     16  C   UNL     1       0.329   1.172  -0.102  0.00  0.00    +0.017 C 
BRANCH  16  17
ATOM     17  C   UNL     1      -0.287   1.156   1.274  0.00  0.00    -0.045 A 
ATOM     18  C   UNL     1      -0.097   2.228   2.127  0.00  0.00    +0.007 A 
ATOM     19  C   UNL     1      -0.664   2.221   3.387  0.00  0.00    +0.049 A 
ATOM     20  C   UNL     1      -1.417   1.134   3.802  0.00  0.00    +0.161 A 
ATOM     21  C   UNL     1      -1.603   0.053   2.946  0.00  0.00    +0.162 A 
ATOM     22  C   UNL     1      -1.036   0.069   1.682  0.00  0.00    +0.053 A 
BRANCH  21  23
ATOM     23  O   UNL     1      -2.341  -1.016   3.349  0.00  0.00    -0.491 OA
ATOM     24  C   UNL     1      -2.491  -2.089   2.417  0.00  0.00    +0.277 C 
ENDBRANCH  21  23
BRANCH  20  25
ATOM     25  O   UNL     1      -1.971   1.123   5.044  0.00  0.00    -0.491 OA
ATOM     26  C   UNL     1      -1.738   2.266   5.869  0.00  0.00    +0.277 C 
ENDBRANCH  20  25
ENDBRANCH  16  17
ENDBRANCH  15  16
ENDBRANCH   1  15
BRANCH   1  27
ATOM     27  C   UNL     1       1.111   2.710  -2.480  0.00  0.00    -0.037 C 
BRANCH  27  28
ATOM     28  C   UNL     1       1.925   2.413  -3.713  0.00  0.00    +0.001 A 
ATOM     29  C   UNL     1       1.747   3.155  -4.834  0.00  0.00    +0.017 A 
ATOM     30  C   UNL     1       2.554   2.841  -6.015  0.00  0.00    -0.001 A 
ATOM     31  C   UNL     1       2.415   3.571  -7.200  0.00  0.00    +0.010 A 
ATOM     32  C   UNL     1       3.183   3.254  -8.284  0.00  0.00    +0.004 A 
ATOM     33  C   UNL     1       4.100   2.213  -8.221  0.00  0.00    -0.048 A 
ATOM     34  C   UNL     1       4.253   1.481  -7.064  0.00  0.00    +0.029 A 
ATOM     35  C   UNL     1       3.482   1.786  -5.947  0.00  0.00    +0.049 A 
ATOM     36  N   UNL     1       3.615   1.070  -4.776  0.00  0.00    -0.322 N 
ATOM     37  H   UNL     1       4.255   0.343  -4.730  0.00  0.00    +0.169 HD
ATOM     38  C   UNL     1       2.873   1.369  -3.695  0.00  0.00    +0.251 A 
ATOM     39  O   UNL     1       3.021   0.718  -2.675  0.00  0.00    -0.268 OA
ATOM     40  C   UNL     1       4.936   1.881  -9.430  0.00  0.00    +0.044 C 
ENDBRANCH  27  28
ENDBRANCH   1  27
TORSDOF 13
