REMARK  Name = ZINC04721105
REMARK  7 active torsions:
REMARK  status: ('A' for Active; 'I' for Inactive)
REMARK    1  A    between atoms: C_1  and  C_2
REMARK    2  A    between atoms: C_2  and  O_3
REMARK    3  A    between atoms: O_3  and  C_4
REMARK    4  A    between atoms: C_4  and  C_6
REMARK    5  A    between atoms: C_9  and  N_12
REMARK    6  A    between atoms: C_16  and  N_60
REMARK    7  A    between atoms: C_23  and  C_26
REMARK                            x       y       z     vdW  Elec       q    Type
REMARK                         _______ _______ _______ _____ _____    ______ ____
ROOT
ATOM      1  N   UNL     1      -1.683   3.276   7.254  0.00  0.00    -0.212 N 
ATOM      2  C   UNL     1      -1.133   3.040   8.452  0.00  0.00    +0.225 C 
ATOM      3  O   UNL     1      -0.037   2.557   8.638  0.00  0.00    -0.275 OA
ATOM      4  C   UNL     1      -2.096   3.471   9.536  0.00  0.00    +0.090 C 
ATOM      5  C   UNL     1      -3.311   4.003   8.749  0.00  0.00    +0.029 C 
ATOM      6  C   UNL     1      -2.905   3.822   7.303  0.00  0.00    +0.213 C 
ATOM      7  O   UNL     1      -3.579   4.121   6.341  0.00  0.00    -0.277 OA
ENDROOT
BRANCH   5  13
ATOM      8  C   UNL     1      -2.430   6.249   8.551  0.00  0.00    -0.078 C 
ATOM      9  C   UNL     1      -2.766   7.729   8.748  0.00  0.00    -0.018 C 
ATOM     10  C   UNL     1      -3.003   8.000  10.236  0.00  0.00    +0.009 C 
ATOM     11  C   UNL     1      -4.130   7.094  10.739  0.00  0.00    +0.059 C 
ATOM     12  C   UNL     1      -3.754   5.632  10.485  0.00  0.00    -0.065 C 
ATOM     13  N   UNL     1      -3.563   5.431   9.033  0.00  0.00    +0.388 N 
ATOM     14  H   UNL     1      -4.417   5.723   8.542  0.00  0.00    -0.081 HD
BRANCH  11  15
ATOM     15  C   UNL     1      -4.330   7.313  12.217  0.00  0.00    +0.217 C 
ATOM     16  O   UNL     1      -3.370   7.457  12.944  0.00  0.00    -0.275 OA
ATOM     17  N   UNL     1      -5.576   7.348  12.730  0.00  0.00    -0.301 N 
ATOM     18  C   UNL     1      -6.817   7.091  11.985  0.00  0.00    +0.108 C 
ATOM     19  C   UNL     1      -7.989   7.268  12.973  0.00  0.00    +0.020 C 
ATOM     20  C   UNL     1      -7.379   8.174  14.074  0.00  0.00    +0.020 C 
ATOM     21  C   UNL     1      -5.920   7.657  14.129  0.00  0.00    +0.108 C 
ENDBRANCH  11  15
ENDBRANCH   5  13
BRANCH   1  25
ATOM     22  C   UNL     1       0.256   2.401   3.669  0.00  0.00    +0.059 A 
ATOM     23  C   UNL     1      -0.683   1.509   4.194  0.00  0.00    +0.017 A 
ATOM     24  C   UNL     1      -1.318   1.799   5.381  0.00  0.00    +0.025 A 
ATOM     25  C   UNL     1      -1.033   2.983   6.052  0.00  0.00    +0.044 A 
ATOM     26  C   UNL     1      -0.103   3.876   5.531  0.00  0.00    +0.025 A 
ATOM     27  C   UNL     1       0.539   3.591   4.347  0.00  0.00    +0.017 A 
BRANCH  22  28
ATOM     28  C   UNL     1       0.941   2.092   2.400  0.00  0.00    +0.339 C 
ATOM     29  O   UNL     1       1.753   2.872   1.942  0.00  0.00    -0.245 OA
BRANCH  28  30
ATOM     30  O   UNL     1       0.666   0.946   1.748  0.00  0.00    -0.461 OA
BRANCH  30  32
ATOM     31  C   UNL     1       0.938  -0.634  -0.086  0.00  0.00    +0.048 C 
ATOM     32  C   UNL     1       1.378   0.707   0.505  0.00  0.00    +0.229 C 
ENDBRANCH  30  32
ENDBRANCH  28  30
ENDBRANCH  22  28
ENDBRANCH   1  25
TORSDOF 6
