REMARK  Name = ZINC13064999
REMARK  14 active torsions:
REMARK  status: ('A' for Active; 'I' for Inactive)
REMARK    1  A    between atoms: C_1  and  C_2
REMARK    2  A    between atoms: C_2  and  C_3
REMARK    3  A    between atoms: C_3  and  C_5
REMARK    4  A    between atoms: C_3  and  N_69
REMARK    5  A    between atoms: N_9  and  C_10
REMARK    6  A    between atoms: C_10  and  C_11
REMARK    7  A    between atoms: C_11  and  O_12
REMARK    8  A    between atoms: O_12  and  C_13
REMARK    9  A    between atoms: C_14  and  C_15
REMARK   10  A    between atoms: C_14  and  N_69
REMARK   11  A    between atoms: C_24  and  C_25
REMARK   12  A    between atoms: C_24  and  N_69
REMARK   13  A    between atoms: C_28  and  C_38
REMARK   14  A    between atoms: C_30  and  C_37
REMARK                            x       y       z     vdW  Elec       q    Type
REMARK                         _______ _______ _______ _____ _____    ______ ____
ROOT
ATOM      1  N   UNL     1       4.947  -0.446   3.586  0.00  0.00    +0.392 N 
ATOM      2  H   UNL     1       4.332  -0.997   4.196  0.00  0.00    -0.080 HD
ENDROOT
BRANCH   1   3
ATOM      3  C   UNL     1       6.311  -0.444   4.154  0.00  0.00    +0.003 C 
BRANCH   3   4
ATOM      4  C   UNL     1       6.911  -1.818   4.002  0.00  0.00    +0.138 A 
ATOM      5  N   UNL     1       6.318  -2.962   4.244  0.00  0.00    -0.115 NA
ATOM      6  N   UNL     1       7.157  -3.906   3.993  0.00  0.00    -0.023 NA
ATOM      7  N   UNL     1       8.273  -3.395   3.605  0.00  0.00    -0.044 NA
ATOM      8  N   UNL     1       8.161  -2.110   3.597  0.00  0.00    -0.229 N 
BRANCH   8   9
ATOM      9  C   UNL     1       9.199  -1.148   3.219  0.00  0.00    +0.175 C 
BRANCH   9  10
ATOM     10  C   UNL     1      10.015  -0.766   4.456  0.00  0.00    +0.183 C 
BRANCH  10  11
ATOM     11  O   UNL     1      11.028   0.173   4.087  0.00  0.00    -0.381 OA
ATOM     12  C   UNL     1      11.851   0.597   5.175  0.00  0.00    +0.194 C 
ENDBRANCH  10  11
ENDBRANCH   9  10
ENDBRANCH   8   9
ENDBRANCH   3   4
BRANCH   3  14
ATOM     13  C   UNL     1       5.394  -1.142   6.371  0.00  0.00    +0.002 C 
ATOM     14  C   UNL     1       6.226  -0.087   5.640  0.00  0.00    -0.011 C 
ENDBRANCH   3  14
ENDBRANCH   1   3
BRANCH   1  15
ATOM     15  C   UNL     1       4.961  -1.056   2.240  0.00  0.00    -0.041 C 
BRANCH  15  16
ATOM     16  C   UNL     1       3.554  -1.456   1.876  0.00  0.00    -0.060 A 
ATOM     17  C   UNL     1       3.122  -2.748   2.110  0.00  0.00    +0.005 A 
ATOM     18  C   UNL     1       1.833  -3.119   1.778  0.00  0.00    +0.050 A 
ATOM     19  C   UNL     1       0.970  -2.197   1.209  0.00  0.00    +0.166 A 
ATOM     20  C   UNL     1       1.405  -0.895   0.973  0.00  0.00    +0.166 A 
ATOM     21  C   UNL     1       2.699  -0.530   1.309  0.00  0.00    +0.051 A 
ATOM     22  O   UNL     1       0.382  -0.187   0.411  0.00  0.00    -0.453 OA
ATOM     23  C   UNL     1      -0.808  -0.952   0.682  0.00  0.00    +0.466 C 
ATOM     24  O   UNL     1      -0.326  -2.304   0.795  0.00  0.00    -0.453 OA
ENDBRANCH  15  16
ENDBRANCH   1  15
BRANCH   1  25
ATOM     25  C   UNL     1       4.431   0.937   3.508  0.00  0.00    -0.036 C 
BRANCH  25  26
ATOM     26  C   UNL     1       5.334   1.791   2.655  0.00  0.00    +0.001 A 
ATOM     27  C   UNL     1       5.065   1.950   1.336  0.00  0.00    +0.017 A 
ATOM     28  C   UNL     1       5.962   2.786   0.535  0.00  0.00    +0.002 A 
ATOM     29  C   UNL     1       5.736   2.987  -0.831  0.00  0.00    -0.041 A 
ATOM     30  C   UNL     1       6.591   3.773  -1.550  0.00  0.00    +0.007 A 
ATOM     31  C   UNL     1       7.683   4.374  -0.937  0.00  0.00    -0.048 A 
ATOM     32  C   UNL     1       7.925   4.189   0.407  0.00  0.00    +0.029 A 
ATOM     33  C   UNL     1       7.067   3.393   1.160  0.00  0.00    +0.050 A 
ATOM     34  N   UNL     1       7.285   3.192   2.506  0.00  0.00    -0.322 N 
ATOM     35  H   UNL     1       8.047   3.611   2.935  0.00  0.00    +0.169 HD
ATOM     36  C   UNL     1       6.453   2.427   3.235  0.00  0.00    +0.251 A 
ATOM     37  O   UNL     1       6.673   2.275   4.423  0.00  0.00    -0.268 OA
ATOM     38  C   UNL     1       8.613   5.237  -1.750  0.00  0.00    +0.044 C 
ATOM     39  C   UNL     1       4.554   2.340  -1.506  0.00  0.00    +0.044 C 
ENDBRANCH  25  26
ENDBRANCH   1  25
TORSDOF 10
