REMARK  Name = ZINC65502688
REMARK  9 active torsions:
REMARK  status: ('A' for Active; 'I' for Inactive)
REMARK    1  A    between atoms: C_1  and  C_2
REMARK    2  A    between atoms: C_4  and  C_9
REMARK    3  A    between atoms: C_5  and  C_8
REMARK    4  A    between atoms: C_9  and  C_11
REMARK    5  A    between atoms: C_9  and  N_12
REMARK    6  A    between atoms: N_12  and  C_13
REMARK    7  A    between atoms: N_12  and  C_14
REMARK    8  A    between atoms: C_14  and  C_15
REMARK    9  A    between atoms: C_16  and  C_17
REMARK                            x       y       z     vdW  Elec       q    Type
REMARK                         _______ _______ _______ _____ _____    ______ ____
ROOT
ATOM      1  N   UNL     1       0.178   1.111  -3.001  0.00  0.00    +0.384 N 
ATOM      2  C   UNL     1       1.546   1.644  -2.948  0.00  0.00    -0.095 C 
ATOM      3  H   UNL     1      -0.397   1.592  -2.325  0.00  0.00    -0.081 HD
ENDROOT
BRANCH   1   4
ATOM      4  C   UNL     1       0.200  -0.325  -2.692  0.00  0.00    -0.041 C 
ATOM      5  C   UNL     1      -1.219  -0.889  -2.788  0.00  0.00    -0.009 C 
BRANCH   4   8
ATOM      6  C   UNL     1       0.207   1.554  -0.000  0.00  0.00    +0.039 C 
ATOM      7  C   UNL     1       0.173   0.024   0.006  0.00  0.00    +0.151 C 
ATOM      8  C   UNL     1       0.727  -0.530  -1.295  0.00  0.00    -0.035 C 
ATOM      9  C   UNL     1       1.790  -1.242  -0.914  0.00  0.00    +0.060 C 
ATOM     10  N   UNL     1       1.947  -1.190   0.428  0.00  0.00    -0.159 NA
ATOM     11  N   UNL     1       1.097  -0.513   1.019  0.00  0.00    -0.180 NA
ATOM     12  C   UNL     1       2.693  -2.001  -1.852  0.00  0.00    +0.067 C 
ENDBRANCH   4   8
ENDBRANCH   1   4
BRANCH   1  13
ATOM     13  C   UNL     1      -0.375   1.314  -4.346  0.00  0.00    -0.051 C 
BRANCH  13  14
ATOM     14  C   UNL     1      -0.512   2.790  -4.616  0.00  0.00    -0.042 C 
ATOM     15  C   UNL     1       0.058   3.325  -5.692  0.00  0.00    +0.040 C 
BRANCH  15  16
ATOM     16  C   UNL     1      -0.075   4.766  -5.955  0.00  0.00    +0.127 A 
ATOM     17  C   UNL     1       0.451   5.437  -7.017  0.00  0.00    +0.049 A 
ATOM     18  C   UNL     1       0.079   6.787  -6.868  0.00  0.00    +0.042 A 
ATOM     19  C   UNL     1      -0.648   6.875  -5.737  0.00  0.00    +0.195 A 
ATOM     20  O   UNL     1      -0.745   5.651  -5.191  0.00  0.00    -0.464 OA
ENDBRANCH  15  16
ENDBRANCH  13  14
ENDBRANCH   1  13
TORSDOF 5
