REMARK  Name = ZINC12465134
REMARK  9 active torsions:
REMARK  status: ('A' for Active; 'I' for Inactive)
REMARK    1  A    between atoms: C_1  and  O_2
REMARK    2  A    between atoms: O_2  and  C_3
REMARK    3  A    between atoms: C_3  and  C_4
REMARK    4  A    between atoms: C_4  and  N_5
REMARK    5  A    between atoms: C_9  and  N_31
REMARK    6  A    between atoms: N_14  and  C_15
REMARK    7  A    between atoms: C_15  and  C_17
REMARK    8  A    between atoms: N_22  and  S_23
REMARK    9  A    between atoms: S_23  and  C_26
REMARK                            x       y       z     vdW  Elec       q    Type
REMARK                         _______ _______ _______ _____ _____    ______ ____
ROOT
ATOM      1  N   UNL     1       5.901   7.923   2.256  0.00  0.00    -0.319 N 
ATOM      2  C   UNL     1       6.631   8.855   1.542  0.00  0.00    +0.058 A 
ATOM      3  C   UNL     1       6.841  10.211   1.839  0.00  0.00    +0.029 A 
ATOM      4  C   UNL     1       7.602  11.002   1.013  0.00  0.00    +0.035 A 
ATOM      5  C   UNL     1       8.185  10.490  -0.135  0.00  0.00    +0.127 A 
ATOM      6  C   UNL     1       7.995   9.157  -0.452  0.00  0.00    +0.050 A 
ATOM      7  C   UNL     1       7.233   8.365   0.374  0.00  0.00    +0.041 A 
ATOM      8  S   UNL     1       6.752   6.656   0.355  0.00  0.00    -0.052 S 
ATOM      9  C   UNL     1       5.809   6.643   1.811  0.00  0.00    +0.167 A 
ATOM     10  N   UNL     1       5.158   5.621   2.363  0.00  0.00    -0.155 NA
ENDROOT
BRANCH   5  11
ATOM     11  N   UNL     1       9.001  11.360  -1.012  0.00  0.00    +0.056 N 
ATOM     12  O   UNL     1       9.163  12.532  -0.726  0.00  0.00    -0.126 OA
ATOM     13  O   UNL     1       9.510  10.902  -2.019  0.00  0.00    -0.126 OA
ENDBRANCH   5  11
BRANCH  10  14
ATOM     14  C   UNL     1       5.179   4.427   1.780  0.00  0.00    +0.257 C 
ATOM     15  O   UNL     1       5.793   4.267   0.743  0.00  0.00    -0.272 OA
BRANCH  14  16
ATOM     16  C   UNL     1       4.441   3.271   2.405  0.00  0.00    +0.168 C 
ATOM     17  C   UNL     1       5.028   2.962   3.799  0.00  0.00    +0.031 C 
ATOM     18  C   UNL     1       4.996   1.411   3.855  0.00  0.00    +0.019 C 
ATOM     19  C   UNL     1       5.305   1.040   2.384  0.00  0.00    +0.110 C 
ATOM     20  N   UNL     1       4.612   2.065   1.582  0.00  0.00    -0.164 NA
BRANCH  20  21
ATOM     21  S   UNL     1       4.116   1.890   0.012  0.00  0.00    +0.068 S 
ATOM     22  O   UNL     1       4.932   0.877  -0.561  0.00  0.00    -0.152 OA
ATOM     23  O   UNL     1       4.029   3.198  -0.535  0.00  0.00    -0.152 OA
BRANCH  21  24
ATOM     24  C   UNL     1       2.475   1.250   0.053  0.00  0.00    +0.143 A 
ATOM     25  C   UNL     1       1.298   1.922   0.083  0.00  0.00    +0.036 A 
ATOM     26  C   UNL     1       0.117   1.204   0.112  0.00  0.00    +0.010 A 
ATOM     27  C   UNL     1       0.171  -0.151   0.108  0.00  0.00    +0.047 A 
ATOM     28  S   UNL     1       1.931  -0.450   0.063  0.00  0.00    -0.077 S 
ENDBRANCH  21  24
ENDBRANCH  20  21
ENDBRANCH  14  16
ENDBRANCH  10  14
BRANCH   1  29
ATOM     29  C   UNL     1       5.226   8.317   3.495  0.00  0.00    +0.152 C 
BRANCH  29  30
ATOM     30  C   UNL     1       3.886   7.585   3.600  0.00  0.00    +0.181 C 
BRANCH  30  32
ATOM     31  C   UNL     1       1.895   7.447   4.927  0.00  0.00    +0.194 C 
ATOM     32  O   UNL     1       3.167   8.068   4.737  0.00  0.00    -0.381 OA
ENDBRANCH  30  32
ENDBRANCH  29  30
ENDBRANCH   1  29
TORSDOF 8
