REMARK  Name = ZINC22137993
REMARK  11 active torsions:
REMARK  status: ('A' for Active; 'I' for Inactive)
REMARK    1  A    between atoms: C_1  and  N_2
REMARK    2  A    between atoms: N_2  and  C_3
REMARK    3  A    between atoms: N_2  and  C_4
REMARK    4  A    between atoms: C_4  and  C_5
REMARK    5  A    between atoms: C_5  and  C_6
REMARK    6  A    between atoms: C_6  and  N_7
REMARK    7  A    between atoms: C_16  and  S_17
REMARK    8  A    between atoms: S_17  and  C_18
REMARK    9  A    between atoms: C_18  and  C_19
REMARK   10  A    between atoms: N_21  and  C_22
REMARK   11  A    between atoms: C_22  and  C_28
REMARK                            x       y       z     vdW  Elec       q    Type
REMARK                         _______ _______ _______ _____ _____    ______ ____
ROOT
ATOM      1  N   UNL     1      -0.698   1.558   1.213  0.00  0.00    -0.287 N 
ATOM      2  C   UNL     1      -1.671   0.804   1.758  0.00  0.00    +0.263 A 
ATOM      3  O   UNL     1      -1.982  -0.262   1.254  0.00  0.00    -0.267 OA
ATOM      4  C   UNL     1      -2.336   1.272   2.935  0.00  0.00    +0.076 A 
ATOM      5  C   UNL     1      -3.411   0.622   3.688  0.00  0.00    -0.023 A 
ATOM      6  C   UNL     1      -3.875   1.270   4.775  0.00  0.00    -0.004 A 
ATOM      7  S   UNL     1      -2.924   2.763   4.862  0.00  0.00    -0.073 S 
ATOM      8  C   UNL     1      -1.902   2.512   3.433  0.00  0.00    +0.117 A 
ATOM      9  N   UNL     1      -0.934   3.207   2.848  0.00  0.00    -0.216 NA
ATOM     10  C   UNL     1      -0.335   2.752   1.766  0.00  0.00    +0.173 A 
ATOM     11  C   UNL     1      -4.961   0.821   5.705  0.00  0.00    +0.043 C 
ATOM     12  C   UNL     1      -5.734  -0.322   5.032  0.00  0.00    +0.005 C 
ATOM     13  C   UNL     1      -4.728  -1.333   4.473  0.00  0.00    +0.005 C 
ATOM     14  C   UNL     1      -3.993  -0.728   3.277  0.00  0.00    +0.037 C 
ENDROOT
BRANCH   1  15
ATOM     15  C   UNL     1      -0.013   1.086   0.008  0.00  0.00    +0.125 C 
BRANCH  15  16
ATOM     16  C   UNL     1      -0.753   1.593  -1.232  0.00  0.00    +0.003 C 
BRANCH  16  17
ATOM     17  C   UNL     1      -0.037   1.099  -2.490  0.00  0.00    -0.078 C 
BRANCH  17  19
ATOM     18  C   UNL     1      -0.664   3.049  -3.782  0.00  0.00    -0.097 C 
ATOM     19  N   UNL     1      -0.747   1.586  -3.680  0.00  0.00    +0.376 N 
ATOM     20  C   UNL     1      -0.235   0.944  -4.898  0.00  0.00    -0.097 C 
ATOM     21  H   UNL     1      -1.808   1.314  -3.575  0.00  0.00    -0.083 HD
ENDBRANCH  17  19
ENDBRANCH  16  17
ENDBRANCH  15  16
ENDBRANCH   1  15
BRANCH  10  22
ATOM     22  S   UNL     1       0.950   3.699   1.020  0.00  0.00    -0.078 S 
BRANCH  22  23
ATOM     23  C   UNL     1       0.989   5.117   2.145  0.00  0.00    +0.173 C 
BRANCH  23  24
ATOM     24  C   UNL     1       2.046   6.090   1.691  0.00  0.00    +0.224 C 
ATOM     25  O   UNL     1       2.709   5.849   0.704  0.00  0.00    -0.275 OA
ATOM     26  N   UNL     1       2.256   7.228   2.381  0.00  0.00    -0.297 N 
ATOM     27  H   UNL     1       1.655   7.447   3.277  0.00  0.00    +0.150 HD
BRANCH  26  28
ATOM     28  C   UNL     1       3.284   8.174   1.940  0.00  0.00    +0.121 C 
ATOM     29  C   UNL     1       4.649   7.483   1.944  0.00  0.00    +0.041 C 
ATOM     30  C   UNL     1       5.722   8.470   1.483  0.00  0.00    +0.003 C 
ATOM     31  C   UNL     1       5.755   9.669   2.433  0.00  0.00    +0.000 C 
ATOM     32  C   UNL     1       4.390  10.360   2.430  0.00  0.00    +0.003 C 
ATOM     33  C   UNL     1       3.317   9.372   2.891  0.00  0.00    +0.041 C 
BRANCH  28  34
ATOM     34  C   UNL     1       2.972   8.637   0.578  0.00  0.00    +0.088 C 
ATOM     35  N   UNL     1       2.732   8.994  -0.473  0.00  0.00    -0.194 NA
ENDBRANCH  28  34
ENDBRANCH  26  28
ENDBRANCH  23  24
ENDBRANCH  22  23
ENDBRANCH  10  22
TORSDOF 9
