REMARK  Name = ZINC02073785
REMARK  4 active torsions:
REMARK  status: ('A' for Active; 'I' for Inactive)
REMARK    1  A    between atoms: C_1  and  C_2
REMARK    2  A    between atoms: C_14  and  S_17
REMARK    3  A    between atoms: S_17  and  C_18
REMARK    4  A    between atoms: C_18  and  C_19
REMARK                            x       y       z     vdW  Elec       q    Type
REMARK                         _______ _______ _______ _____ _____    ______ ____
ROOT
ATOM      1  C   UNL     1      -0.684   5.832   2.359  0.00  0.00    +0.074 C 
ATOM      2  C   UNL     1       0.403   5.913   1.285  0.00  0.00    +0.259 C 
ATOM      3  N   UNL     1      -0.071   5.245   0.077  0.00  0.00    -0.309 N 
ATOM      4  C   UNL     1      -0.075   3.847   0.039  0.00  0.00    +0.039 A 
ATOM      5  C   UNL     1      -1.256   3.130   0.037  0.00  0.00    +0.023 A 
ATOM      6  C   UNL     1      -1.223   1.747   0.017  0.00  0.00    +0.002 A 
ATOM      7  C   UNL     1      -0.013   1.076   0.008  0.00  0.00    +0.001 A 
ATOM      8  C   UNL     1       1.177   1.778   0.000  0.00  0.00    +0.012 A 
ATOM      9  C   UNL     1       1.158   3.167   0.013  0.00  0.00    +0.028 A 
ATOM     10  C   UNL     1       2.405   3.959  -0.013  0.00  0.00    +0.156 A 
ATOM     11  C   UNL     1       2.572   5.031   0.893  0.00  0.00    +0.248 A 
ATOM     12  N   UNL     1       3.691   5.732   0.848  0.00  0.00    -0.184 NA
ATOM     13  C   UNL     1       4.627   5.408  -0.039  0.00  0.00    +0.213 A 
ATOM     14  N   UNL     1       4.453   4.395  -0.878  0.00  0.00    -0.122 NA
ATOM     15  N   UNL     1       3.377   3.687  -0.871  0.00  0.00    -0.141 NA
ATOM     16  O   UNL     1       1.595   5.317   1.786  0.00  0.00    -0.453 OA
ATOM     17  H   UNL     1      -0.377   5.761  -0.685  0.00  0.00    +0.150 HD
ENDROOT
BRANCH  13  18
ATOM     18  S   UNL     1       6.122   6.339  -0.102  0.00  0.00    -0.080 S 
BRANCH  18  19
ATOM     19  C   UNL     1       6.975   5.474  -1.444  0.00  0.00    +0.104 C 
BRANCH  19  20
ATOM     20  C   UNL     1       8.318   6.115  -1.682  0.00  0.00    -0.023 C 
ATOM     21  C   UNL     1       9.416   5.440  -1.452  0.00  0.00    +0.005 C 
ENDBRANCH  19  20
ENDBRANCH  18  19
ENDBRANCH  13  18
TORSDOF 3
