REMARK  Name = ZINC60391061
REMARK  10 active torsions:
REMARK  status: ('A' for Active; 'I' for Inactive)
REMARK    1  A    between atoms: C_1  and  C_2
REMARK    2  A    between atoms: C_2  and  C_3
REMARK    3  A    between atoms: C_2  and  C_4
REMARK    4  A    between atoms: C_4  and  N_5
REMARK    5  A    between atoms: N_5  and  C_6
REMARK    6  A    between atoms: C_7  and  N_22
REMARK    7  A    between atoms: N_8  and  C_15
REMARK    8  A    between atoms: C_15  and  C_16
REMARK    9  A    between atoms: C_23  and  C_25
REMARK   10  A    between atoms: C_25  and  C_26
REMARK                            x       y       z     vdW  Elec       q    Type
REMARK                         _______ _______ _______ _____ _____    ______ ____
ROOT
ATOM      1  C   UNL     1      -0.957  -0.970   2.905  0.00  0.00    +0.140 A 
ATOM      2  C   UNL     1      -0.805  -1.306   4.234  0.00  0.00    +0.128 A 
ATOM      3  N   UNL     1      -1.695  -2.183   4.811  0.00  0.00    -0.276 N 
ATOM      4  C   UNL     1      -2.700  -2.707   4.087  0.00  0.00    +0.331 A 
ATOM      5  O   UNL     1      -3.476  -3.480   4.615  0.00  0.00    -0.246 OA
ATOM      6  N   UNL     1      -2.864  -2.390   2.790  0.00  0.00    -0.273 N 
ATOM      7  H   UNL     1      -3.597  -2.781   2.290  0.00  0.00    +0.173 HD
ATOM      8  C   UNL     1      -2.024  -1.532   2.179  0.00  0.00    +0.277 A 
ATOM      9  O   UNL     1      -2.184  -1.248   1.004  0.00  0.00    -0.266 OA
ENDROOT
BRANCH   1  10
ATOM     10  N   UNL     1      -0.061  -0.073   2.285  0.00  0.00    -0.264 N 
ATOM     11  C   UNL     1       0.003   1.210   2.697  0.00  0.00    +0.224 C 
ATOM     12  O   UNL     1      -0.651   1.573   3.652  0.00  0.00    -0.275 OA
BRANCH  10  13
ATOM     13  C   UNL     1       0.800  -0.536   1.193  0.00  0.00    +0.117 C 
BRANCH  13  15
ATOM     14  C   UNL     1       1.850  -2.315   2.598  0.00  0.00    +0.009 C 
ATOM     15  C   UNL     1       2.118  -1.057   1.769  0.00  0.00    +0.001 C 
ATOM     16  C   UNL     1       3.077  -1.394   0.625  0.00  0.00    +0.009 C 
ENDBRANCH  13  15
ENDBRANCH  10  13
BRANCH  11  17
ATOM     17  C   UNL     1       0.886   2.192   1.971  0.00  0.00    +0.131 C 
BRANCH  17  18
ATOM     18  C   UNL     1       0.874   3.512   2.698  0.00  0.00    -0.039 A 
ATOM     19  C   UNL     1      -0.070   4.469   2.377  0.00  0.00    +0.005 A 
ATOM     20  C   UNL     1      -0.082   5.679   3.044  0.00  0.00    +0.020 A 
ATOM     21  C   UNL     1       0.853   5.933   4.033  0.00  0.00    +0.041 A 
ATOM     22  C   UNL     1       1.797   4.975   4.353  0.00  0.00    +0.020 A 
ATOM     23  C   UNL     1       1.804   3.762   3.690  0.00  0.00    +0.005 A 
ATOM     24 CL   UNL     1       0.839   7.454   4.870  0.00  0.00    -0.084 Cl
ENDBRANCH  17  18
ENDBRANCH  11  17
ENDBRANCH   1  10
BRANCH   2  25
ATOM     25  N   UNL     1       0.222  -0.771   4.974  0.00  0.00    -0.343 N 
ATOM     26  H   UNL     1       0.809  -0.107   4.580  0.00  0.00    +0.144 HD
ATOM     27  H   UNL     1       0.361  -1.059   5.890  0.00  0.00    +0.144 HD
ENDBRANCH   2  25
BRANCH   3  28
ATOM     28  C   UNL     1      -1.546  -2.548   6.222  0.00  0.00    +0.163 C 
BRANCH  28  29
ATOM     29  C   UNL     1      -2.328  -1.585   7.076  0.00  0.00    -0.028 A 
ATOM     30  C   UNL     1      -1.727  -0.431   7.545  0.00  0.00    +0.005 A 
ATOM     31  C   UNL     1      -2.445   0.453   8.329  0.00  0.00    +0.000 A 
ATOM     32  C   UNL     1      -3.764   0.184   8.643  0.00  0.00    +0.000 A 
ATOM     33  C   UNL     1      -4.366  -0.969   8.173  0.00  0.00    +0.000 A 
ATOM     34  C   UNL     1      -3.649  -1.851   7.386  0.00  0.00    +0.005 A 
ENDBRANCH  28  29
ENDBRANCH   3  28
TORSDOF 8
