REMARK  Name = ZINC35300573
REMARK  11 active torsions:
REMARK  status: ('A' for Active; 'I' for Inactive)
REMARK    1  A    between atoms: C_1  and  C_2
REMARK    2  A    between atoms: C_2  and  C_3
REMARK    3  A    between atoms: C_3  and  C_5
REMARK    4  A    between atoms: C_3  and  C_6
REMARK    5  A    between atoms: C_6  and  C_8
REMARK    6  A    between atoms: C_6  and  N_25
REMARK    7  A    between atoms: C_14  and  C_16
REMARK    8  A    between atoms: C_19  and  N_22
REMARK    9  A    between atoms: N_22  and  C_23
REMARK   10  A    between atoms: N_22  and  C_24
REMARK   11  A    between atoms: C_26  and  C_28
REMARK                            x       y       z     vdW  Elec       q    Type
REMARK                         _______ _______ _______ _____ _____    ______ ____
ROOT
ATOM      1  C   UNL     1      -0.746  -2.434  -1.417  0.00  0.00    +0.239 C 
ATOM      2  O   UNL     1       0.244  -3.136  -1.406  0.00  0.00    -0.273 OA
ATOM      3  N   UNL     1      -1.252  -2.002  -2.589  0.00  0.00    -0.262 N 
ATOM      4  C   UNL     1      -0.640  -2.359  -3.785  0.00  0.00    +0.188 A 
ATOM      5  N   UNL     1       0.431  -3.111  -4.003  0.00  0.00    -0.125 NA
ATOM      6  N   UNL     1       0.859  -3.340  -5.167  0.00  0.00    -0.140 NA
ATOM      7  C   UNL     1       0.264  -2.841  -6.243  0.00  0.00    +0.134 A 
ATOM      8  S   UNL     1      -1.078  -1.943  -5.470  0.00  0.00    -0.030 S 
ATOM      9  H   UNL     1      -2.043  -1.440  -2.598  0.00  0.00    +0.157 HD
ENDROOT
BRANCH   7  10
ATOM     10  C   UNL     1       0.607  -2.991  -7.673  0.00  0.00    +0.009 A 
ATOM     11  C   UNL     1      -0.169  -2.362  -8.648  0.00  0.00    +0.012 A 
ATOM     12  C   UNL     1       0.154  -2.503  -9.980  0.00  0.00    +0.024 A 
ATOM     13  C   UNL     1       1.251  -3.271 -10.354  0.00  0.00    +0.029 A 
ATOM     14  C   UNL     1       2.026  -3.899  -9.385  0.00  0.00    +0.024 A 
ATOM     15  C   UNL     1       1.712  -3.756  -8.051  0.00  0.00    +0.012 A 
BRANCH  13  16
ATOM     16  N   UNL     1       1.575  -3.413 -11.704  0.00  0.00    -0.336 N 
ATOM     17  C   UNL     1       0.690  -2.858 -12.732  0.00  0.00    +0.129 C 
ATOM     18  C   UNL     1       2.800  -4.115 -12.094  0.00  0.00    +0.129 C 
ENDBRANCH  13  16
ENDBRANCH   7  10
BRANCH   1  19
ATOM     19  C   UNL     1      -1.409  -2.046  -0.121  0.00  0.00    +0.162 C 
BRANCH  19  20
ATOM     20  N   UNL     1      -0.674  -2.638   1.000  0.00  0.00    -0.300 N 
ATOM     21  C   UNL     1      -1.302  -2.873   2.169  0.00  0.00    +0.245 C 
ATOM     22  O   UNL     1      -2.478  -2.593   2.294  0.00  0.00    -0.270 OA
ATOM     23  H   UNL     1       0.265  -2.861   0.900  0.00  0.00    +0.150 HD
BRANCH  21  24
ATOM     24  C   UNL     1      -0.560  -3.470   3.300  0.00  0.00    +0.037 A 
ATOM     25  C   UNL     1       0.792  -3.787   3.161  0.00  0.00    +0.014 A 
ATOM     26  C   UNL     1       1.479  -4.343   4.220  0.00  0.00    +0.016 A 
ATOM     27  C   UNL     1       0.829  -4.588   5.418  0.00  0.00    +0.018 A 
ATOM     28  C   UNL     1      -0.512  -4.276   5.561  0.00  0.00    +0.016 A 
ATOM     29  C   UNL     1      -1.208  -3.713   4.512  0.00  0.00    +0.014 A 
ATOM     30 BR   UNL     1       1.778  -5.353   6.864  0.00  0.00    -0.050 Br
ENDBRANCH  21  24
ENDBRANCH  19  20
BRANCH  19  31
ATOM     31  C   UNL     1      -1.408  -0.523   0.017  0.00  0.00    +0.015 C 
ATOM     32  C   UNL     1      -2.081  -0.129   1.333  0.00  0.00    +0.010 C 
BRANCH  31  34
ATOM     33  C   UNL     1       0.032   1.519   0.020  0.00  0.00    +0.004 C 
ATOM     34  C   UNL     1       0.034  -0.011   0.008  0.00  0.00    +0.002 C 
ENDBRANCH  31  34
ENDBRANCH  19  31
ENDBRANCH   1  19
TORSDOF 7
