REMARK  Name = ZINC07981703
REMARK  6 active torsions:
REMARK  status: ('A' for Active; 'I' for Inactive)
REMARK    1  A    between atoms: C_1  and  N_2
REMARK    2  A    between atoms: N_2  and  S_3
REMARK    3  A    between atoms: S_3  and  C_6
REMARK    4  A    between atoms: C_9  and  N_15
REMARK    5  A    between atoms: C_10  and  N_12
REMARK    6  A    between atoms: C_19  and  C_21
REMARK                            x       y       z     vdW  Elec       q    Type
REMARK                         _______ _______ _______ _____ _____    ______ ____
ROOT
ATOM      1  C   UNL     1      -1.431   2.170   0.255  0.00  0.00    +0.108 A 
ATOM      2  C   UNL     1      -1.354   3.547   0.154  0.00  0.00    +0.030 A 
ATOM      3  C   UNL     1      -0.123   4.169   0.091  0.00  0.00    +0.027 A 
ATOM      4  C   UNL     1       1.040   3.410   0.136  0.00  0.00    +0.061 A 
ATOM      5  C   UNL     1       0.959   2.027   0.243  0.00  0.00    +0.149 A 
ATOM      6  C   UNL     1      -0.276   1.412   0.305  0.00  0.00    +0.063 A 
ENDROOT
BRANCH   4   7
ATOM      7  N   UNL     1       2.287   4.036   0.073  0.00  0.00    -0.321 N 
ATOM      8  C   UNL     1       2.411   5.075   1.117  0.00  0.00    +0.106 C 
ATOM      9  C   UNL     1       3.288   6.179   0.474  0.00  0.00    +0.021 C 
ATOM     10  C   UNL     1       2.788   6.160  -0.995  0.00  0.00    +0.029 C 
ATOM     11  C   UNL     1       2.497   4.665  -1.244  0.00  0.00    +0.104 C 
BRANCH  11  12
ATOM     12  C   UNL     1       1.256   4.518  -2.086  0.00  0.00    -0.023 A 
ATOM     13  C   UNL     1       0.809   3.259  -2.442  0.00  0.00    +0.009 A 
ATOM     14  C   UNL     1      -0.331   3.119  -3.211  0.00  0.00    +0.050 A 
ATOM     15  C   UNL     1      -1.024   4.243  -3.637  0.00  0.00    +0.162 A 
ATOM     16  C   UNL     1      -0.572   5.508  -3.282  0.00  0.00    +0.162 A 
ATOM     17  C   UNL     1       0.570   5.641  -2.506  0.00  0.00    +0.055 A 
ATOM     18  O   UNL     1      -1.242   6.624  -3.682  0.00  0.00    -0.485 OA
ATOM     19  C   UNL     1      -2.166   6.466  -4.764  0.00  0.00    +0.270 C 
ATOM     20  C   UNL     1      -3.016   5.218  -4.492  0.00  0.00    +0.270 C 
ATOM     21  O   UNL     1      -2.139   4.090  -4.401  0.00  0.00    -0.485 OA
ENDBRANCH  11  12
ENDBRANCH   4   7
BRANCH   1  22
ATOM     22  S   UNL     1      -3.004   1.379   0.327  0.00  0.00    +0.058 S 
ATOM     23  O   UNL     1      -3.931   2.264  -0.287  0.00  0.00    -0.153 OA
ATOM     24  O   UNL     1      -2.810   0.046  -0.124  0.00  0.00    -0.153 OA
BRANCH  22  26
ATOM     25  C   UNL     1      -3.677   2.504   2.693  0.00  0.00    +0.127 C 
ATOM     26  N   UNL     1      -3.430   1.282   1.925  0.00  0.00    -0.193 NA
ATOM     27  H   UNL     1      -3.515   0.415   2.352  0.00  0.00    +0.148 HD
ENDBRANCH  22  26
ENDBRANCH   1  22
BRANCH   5  28
ATOM     28  N   UNL     1       2.196   1.215   0.291  0.00  0.00    +0.058 N 
ATOM     29  O   UNL     1       2.124   0.003   0.385  0.00  0.00    -0.126 OA
ATOM     30  O   UNL     1       3.284   1.758   0.236  0.00  0.00    -0.126 OA
ENDBRANCH   5  28
TORSDOF 5
