REMARK  Name = ZINC04330616
REMARK  4 active torsions:
REMARK  status: ('A' for Active; 'I' for Inactive)
REMARK    1  A    between atoms: C_4  and  C_10
REMARK    2  A    between atoms: C_6  and  N_7
REMARK    3  A    between atoms: N_12  and  C_13
REMARK    4  A    between atoms: C_14  and  C_18
REMARK                            x       y       z     vdW  Elec       q    Type
REMARK                         _______ _______ _______ _____ _____    ______ ____
ROOT
ATOM      1  C   UNL     1      -0.016   1.344   0.009  0.00  0.00    +0.250 C 
ATOM      2  O   UNL     1       1.028   1.966   0.003  0.00  0.00    -0.270 OA
ATOM      3  N   UNL     1       0.002  -0.004   0.002  0.00  0.00    -0.275 N 
ATOM      4  H   UNL     1      -0.831  -0.500   0.007  0.00  0.00    +0.156 HD
ENDROOT
BRANCH   1   8
ATOM      5  C   UNL     1      -3.723   3.417   0.040  0.00  0.00    +0.034 A 
ATOM      6  C   UNL     1      -2.538   4.129   0.038  0.00  0.00    +0.023 A 
ATOM      7  C   UNL     1      -1.328   3.462   0.033  0.00  0.00    +0.053 A 
ATOM      8  C   UNL     1      -1.305   2.065   0.019  0.00  0.00    +0.057 A 
ATOM      9  C   UNL     1      -2.507   1.354   0.021  0.00  0.00    +0.047 A 
ATOM     10  C   UNL     1      -3.707   2.033   0.031  0.00  0.00    +0.127 A 
ATOM     11 CL   UNL     1       0.160   4.357   0.038  0.00  0.00    -0.083 Cl
BRANCH  10  12
ATOM     12  N   UNL     1      -4.981   1.280   0.033  0.00  0.00    +0.056 N 
ATOM     13  O   UNL     1      -4.969   0.062   0.026  0.00  0.00    -0.126 OA
ATOM     14  O   UNL     1      -6.042   1.879   0.042  0.00  0.00    -0.126 OA
ENDBRANCH  10  12
ENDBRANCH   1   8
BRANCH   3  15
ATOM     15  C   UNL     1       1.212  -0.681  -0.013  0.00  0.00    +0.089 A 
ATOM     16  C   UNL     1       1.434  -2.053  -0.017  0.00  0.00    +0.080 A 
ATOM     17  C   UNL     1       2.809  -2.488  -0.038  0.00  0.00    +0.028 A 
ATOM     18  C   UNL     1       3.757  -1.532  -0.041  0.00  0.00    +0.048 A 
ATOM     19  S   UNL     1       2.813  -0.022  -0.024  0.00  0.00    -0.081 S 
BRANCH  16  20
ATOM     20  C   UNL     1       0.350  -2.988  -0.005  0.00  0.00    +0.102 C 
ATOM     21  N   UNL     1      -0.510  -3.731   0.004  0.00  0.00    -0.191 NA
ENDBRANCH  16  20
ENDBRANCH   3  15
TORSDOF 4
