REMARK  Name = ZINC42774123
REMARK  8 active torsions:
REMARK  status: ('A' for Active; 'I' for Inactive)
REMARK    1  A    between atoms: C_1  and  C_2
REMARK    2  A    between atoms: C_2  and  C_4
REMARK    3  A    between atoms: C_2  and  N_8
REMARK    4  A    between atoms: C_4  and  C_5
REMARK    5  A    between atoms: C_4  and  C_6
REMARK    6  A    between atoms: C_4  and  C_7
REMARK    7  A    between atoms: N_8  and  C_9
REMARK    8  A    between atoms: N_8  and  C_10
REMARK                            x       y       z     vdW  Elec       q    Type
REMARK                         _______ _______ _______ _____ _____    ______ ____
ROOT
ATOM      1  N   UNL     1       0.343  -0.668   0.459  0.00  0.00    +0.386 N 
ATOM      2  C   UNL     1       1.659  -0.081   0.745  0.00  0.00    -0.095 C 
ATOM      3  H   UNL     1      -0.316  -0.376   1.164  0.00  0.00    -0.081 HD
ENDROOT
BRANCH   1   4
ATOM      4  C   UNL     1       0.448  -2.133   0.464  0.00  0.00    -0.001 C 
ATOM      5  C   UNL     1      -0.883  -2.747   0.017  0.00  0.00    -0.008 C 
ATOM      6  C   UNL     1      -0.814  -4.268   0.159  0.00  0.00    -0.001 C 
ATOM      7  C   UNL     1      -0.638  -4.644   1.631  0.00  0.00    +0.007 C 
ATOM      8  C   UNL     1       0.702  -4.102   2.139  0.00  0.00    +0.072 C 
ATOM      9  C   UNL     1       0.759  -2.615   1.864  0.00  0.00    +0.120 C 
ATOM     10  O   UNL     1       1.041  -1.833   2.740  0.00  0.00    -0.299 OA
ENDBRANCH   1   4
BRANCH   1  12
ATOM     11  C   UNL     1       0.952  -0.522  -1.909  0.00  0.00    -0.013 C 
ATOM     12  C   UNL     1      -0.119  -0.215  -0.860  0.00  0.00    -0.066 C 
BRANCH  12  13
ATOM     13  C   UNL     1      -0.376   1.293  -0.821  0.00  0.00    -0.050 C 
ATOM     14  C   UNL     1      -1.029   1.733  -2.132  0.00  0.00    +0.009 C 
ATOM     15  C   UNL     1      -1.307   1.621   0.348  0.00  0.00    +0.009 C 
ATOM     16  C   UNL     1       0.951   2.032  -0.639  0.00  0.00    +0.009 C 
ENDBRANCH  12  13
ENDBRANCH   1  12
TORSDOF 3
