REMARK  Name = ZINC15959637
REMARK  6 active torsions:
REMARK  status: ('A' for Active; 'I' for Inactive)
REMARK    1  A    between atoms: C_1  and  C_2
REMARK    2  A    between atoms: C_7  and  C_8
REMARK    3  A    between atoms: N_26  and  C_29
REMARK    4  A    between atoms: C_34  and  C_35
REMARK    5  A    between atoms: N_37  and  C_38
REMARK    6  A    between atoms: C_38  and  C_39
REMARK                            x       y       z     vdW  Elec       q    Type
REMARK                         _______ _______ _______ _____ _____    ______ ____
ROOT
ATOM      1  C   UNL     1      -8.985  -1.354  -1.059  0.00  0.00    +0.156 C 
ATOM      2  C   UNL     1      -9.815  -2.588  -0.765  0.00  0.00    +0.046 A 
ATOM      3  C   UNL     1      -9.616  -3.384   0.307  0.00  0.00    -0.015 A 
ATOM      4  C   UNL     1     -10.598  -4.449   0.223  0.00  0.00    +0.003 A 
ATOM      5  C   UNL     1     -10.866  -5.553   1.038  0.00  0.00    +0.010 A 
ATOM      6  C   UNL     1     -11.897  -6.373   0.652  0.00  0.00    +0.001 A 
ATOM      7  C   UNL     1     -12.643  -6.129  -0.490  0.00  0.00    +0.002 A 
ATOM      8  C   UNL     1     -12.399  -5.045  -1.315  0.00  0.00    +0.026 A 
ATOM      9  C   UNL     1     -11.357  -4.196  -0.947  0.00  0.00    +0.047 A 
ATOM     10  N   UNL     1     -10.855  -3.062  -1.518  0.00  0.00    -0.356 N 
ATOM     11  H   UNL     1     -11.185  -2.654  -2.334  0.00  0.00    +0.166 HD
ATOM     12  C   UNL     1      -8.575  -3.179   1.379  0.00  0.00    +0.069 C 
ATOM     13  C   UNL     1      -7.477  -2.248   0.851  0.00  0.00    +0.170 C 
ATOM     14  N   UNL     1      -8.130  -1.143   0.115  0.00  0.00    -0.260 N 
ATOM     15  C   UNL     1      -7.795  -0.006   0.729  0.00  0.00    +0.317 C 
ATOM     16  O   UNL     1      -8.121   1.097   0.337  0.00  0.00    -0.252 OA
ATOM     17  N   UNL     1      -7.058  -0.223   1.827  0.00  0.00    -0.192 N 
ATOM     18  C   UNL     1      -6.808  -1.536   2.009  0.00  0.00    +0.248 C 
ATOM     19  O   UNL     1      -6.181  -2.042   2.914  0.00  0.00    -0.273 OA
ENDROOT
BRANCH   1  26
ATOM     20  C   UNL     1      -7.748   0.889  -2.396  0.00  0.00    +0.044 C 
ATOM     21  C   UNL     1      -7.544  -0.508  -2.923  0.00  0.00    -0.045 A 
ATOM     22  C   UNL     1      -6.762  -0.716  -4.044  0.00  0.00    +0.004 A 
ATOM     23  C   UNL     1      -6.579  -1.997  -4.530  0.00  0.00    +0.000 A 
ATOM     24  C   UNL     1      -7.175  -3.070  -3.893  0.00  0.00    +0.000 A 
ATOM     25  C   UNL     1      -7.954  -2.862  -2.770  0.00  0.00    +0.006 A 
ATOM     26  C   UNL     1      -8.136  -1.581  -2.283  0.00  0.00    -0.018 A 
ENDBRANCH   1  26
BRANCH  17  27
ATOM     27  C   UNL     1      -6.599   0.787   2.676  0.00  0.00    +0.058 A 
ATOM     28  C   UNL     1      -7.372   1.196   3.753  0.00  0.00    +0.025 A 
ATOM     29  C   UNL     1      -6.917   2.195   4.592  0.00  0.00    +0.002 A 
ATOM     30  C   UNL     1      -5.689   2.795   4.364  0.00  0.00    +0.001 A 
ATOM     31  C   UNL     1      -4.906   2.398   3.302  0.00  0.00    +0.015 A 
ATOM     32  C   UNL     1      -5.356   1.393   2.443  0.00  0.00    +0.059 A 
BRANCH  32  33
ATOM     33  C   UNL     1      -4.525   0.966   1.301  0.00  0.00    +0.246 C 
ATOM     34  O   UNL     1      -4.918   0.087   0.558  0.00  0.00    -0.270 OA
ATOM     35  N   UNL     1      -3.331   1.550   1.081  0.00  0.00    -0.308 N 
ATOM     36  H   UNL     1      -3.018   2.251   1.673  0.00  0.00    +0.149 HD
BRANCH  35  37
ATOM     37  C   UNL     1      -2.506   1.126  -0.053  0.00  0.00    +0.131 C 
BRANCH  37  38
ATOM     38  C   UNL     1      -1.231   1.930  -0.075  0.00  0.00    -0.016 C 
ATOM     39  C   UNL     1      -0.072   1.319  -0.078  0.00  0.00    +0.005 C 
ENDBRANCH  37  38
ENDBRANCH  35  37
ENDBRANCH  32  33
ENDBRANCH  17  27
TORSDOF 5
