REMARK  Name = ZINC39698017
REMARK  8 active torsions:
REMARK  status: ('A' for Active; 'I' for Inactive)
REMARK    1  A    between atoms: C_1  and  C_2
REMARK    2  A    between atoms: C_2  and  N_3
REMARK    3  A    between atoms: N_3  and  C_4
REMARK    4  A    between atoms: N_3  and  C_6
REMARK    5  A    between atoms: C_4  and  C_5
REMARK    6  A    between atoms: C_9  and  C_15
REMARK    7  A    between atoms: C_11  and  N_12
REMARK    8  A    between atoms: N_16  and  C_17
REMARK                            x       y       z     vdW  Elec       q    Type
REMARK                         _______ _______ _______ _____ _____    ______ ____
ROOT
ATOM      1  C   UNL     1       2.075  -0.701   1.141  0.00  0.00    +0.060 A 
ATOM      2  C   UNL     1       2.953   0.335   1.476  0.00  0.00    +0.026 A 
ATOM      3  C   UNL     1       4.298   0.133   1.431  0.00  0.00    +0.011 A 
ATOM      4  C   UNL     1       4.806  -1.125   1.044  0.00  0.00    -0.005 A 
ATOM      5  C   UNL     1       3.917  -2.164   0.708  0.00  0.00    +0.044 A 
ATOM      6  C   UNL     1       2.573  -1.952   0.762  0.00  0.00    +0.148 A 
ENDROOT
BRANCH   6   7
ATOM      7  N   UNL     1       1.637  -3.045   0.413  0.00  0.00    +0.058 N 
ATOM      8  O   UNL     1       2.067  -4.126   0.086  0.00  0.00    -0.126 OA
ATOM      9  O   UNL     1       0.444  -2.855   0.457  0.00  0.00    -0.126 OA
ENDBRANCH   6   7
BRANCH   4  10
ATOM     10  C   UNL     1       6.202  -1.341   0.995  0.00  0.00    +0.119 C 
ATOM     11  N   UNL     1       7.034  -0.364   1.311  0.00  0.00    -0.255 NA
BRANCH  11  12
ATOM     12  C   UNL     1       8.353  -0.568   1.264  0.00  0.00    +0.066 A 
ATOM     13  C   UNL     1       8.914  -1.806   1.830  0.00  0.00    +0.029 A 
ATOM     14  C   UNL     1      10.238  -2.039   1.797  0.00  0.00    +0.027 A 
ATOM     15  C   UNL     1      11.130  -1.042   1.187  0.00  0.00    +0.056 A 
ATOM     16  N   UNL     1      12.422  -0.962   0.999  0.00  0.00    -0.268 N 
ATOM     17  C   UNL     1      12.702   0.221   0.365  0.00  0.00    +0.308 C 
ATOM     18  O   UNL     1      13.819   0.591   0.049  0.00  0.00    -0.252 OA
ATOM     19  N   UNL     1      11.578   0.912   0.141  0.00  0.00    -0.267 N 
ATOM     20  C   UNL     1      10.546   0.205   0.619  0.00  0.00    +0.058 A 
ATOM     21  C   UNL     1       9.182   0.399   0.671  0.00  0.00    +0.053 A 
ATOM     22  H   UNL     1      13.074  -1.629   1.265  0.00  0.00    +0.156 HD
ATOM     23  H   UNL     1      11.520   1.778  -0.292  0.00  0.00    +0.156 HD
ENDBRANCH  11  12
ENDBRANCH   4  10
BRANCH   1  24
ATOM     24  N   UNL     1       0.711  -0.489   1.189  0.00  0.00    -0.329 N 
BRANCH  24  26
ATOM     25  C   UNL     1      -0.019   1.526   0.010  0.00  0.00    +0.024 C 
ATOM     26  C   UNL     1       0.002  -0.004   0.002  0.00  0.00    +0.102 C 
ENDBRANCH  24  26
BRANCH  24  27
ATOM     27  C   UNL     1      -0.028  -0.750   2.427  0.00  0.00    +0.102 C 
ATOM     28  C   UNL     1      -0.511  -2.202   2.437  0.00  0.00    +0.024 C 
ENDBRANCH  24  27
ENDBRANCH   1  24
TORSDOF 6
