REMARK  Name = ZINC11880935
REMARK  13 active torsions:
REMARK  status: ('A' for Active; 'I' for Inactive)
REMARK    1  A    between atoms: C_1  and  C_2
REMARK    2  A    between atoms: C_5  and  C_11
REMARK    3  A    between atoms: C_16  and  C_19
REMARK    4  A    between atoms: C_19  and  C_21
REMARK    5  A    between atoms: C_19  and  N_30
REMARK    6  A    between atoms: C_21  and  C_22
REMARK    7  A    between atoms: C_26  and  O_28
REMARK    8  A    between atoms: O_28  and  C_29
REMARK    9  A    between atoms: N_30  and  C_31
REMARK   10  A    between atoms: C_32  and  C_34
REMARK   11  A    between atoms: C_34  and  C_35
REMARK   12  A    between atoms: C_35  and  C_36
REMARK   13  A    between atoms: C_35  and  C_37
REMARK                            x       y       z     vdW  Elec       q    Type
REMARK                         _______ _______ _______ _____ _____    ______ ____
ROOT
ATOM      1  C   UNL     1       2.926  10.284  -2.371  0.00  0.00    +0.236 C 
ATOM      2  O   UNL     1       3.857  10.488  -1.621  0.00  0.00    -0.274 OA
ATOM      3  N   UNL     1       1.847   9.604  -1.936  0.00  0.00    -0.300 N 
ATOM      4  C   UNL     1       1.783   9.104  -0.556  0.00  0.00    +0.108 C 
ATOM      5  C   UNL     1       1.476   7.603  -0.589  0.00  0.00    +0.024 C 
ATOM      6  C   UNL     1       0.202   7.365  -1.404  0.00  0.00    +0.013 C 
ATOM      7  C   UNL     1       0.416   7.846  -2.841  0.00  0.00    +0.024 C 
ATOM      8  C   UNL     1       0.711   9.349  -2.833  0.00  0.00    +0.108 C 
ENDROOT
BRANCH   1  12
ATOM      9  C   UNL     1       5.267   8.142  -5.377  0.00  0.00    +0.028 C 
ATOM     10  C   UNL     1       4.802   9.205  -4.380  0.00  0.00    +0.071 C 
ATOM     11  C   UNL     1       3.376   9.647  -4.728  0.00  0.00    +0.053 C 
ATOM     12  C   UNL     1       2.977  10.790  -3.789  0.00  0.00    +0.160 C 
ATOM     13  N   UNL     1       3.967  11.863  -3.891  0.00  0.00    -0.315 N 
ATOM     14  C   UNL     1       5.246  11.604  -4.202  0.00  0.00    +0.131 C 
ATOM     15  S   UNL     1       6.352  12.909  -4.287  0.00  0.00    -0.019 S 
ATOM     16  N   UNL     1       5.694  10.364  -4.449  0.00  0.00    -0.324 N 
ATOM     17  H   UNL     1       3.694  12.780  -3.729  0.00  0.00    +0.148 HD
ATOM     18  H   UNL     1       6.627  10.232  -4.678  0.00  0.00    +0.148 HD
ENDBRANCH   1  12
BRANCH   6  19
ATOM     19  C   UNL     1      -0.127   5.871  -1.410  0.00  0.00    +0.083 C 
BRANCH  19  20
ATOM     20  N   UNL     1      -1.273   5.627  -2.289  0.00  0.00    -0.301 N 
ATOM     21  C   UNL     1      -1.129   4.749  -3.454  0.00  0.00    +0.132 C 
ATOM     22  C   UNL     1      -2.459   6.210  -2.028  0.00  0.00    +0.216 C 
ATOM     23  O   UNL     1      -2.556   7.008  -1.120  0.00  0.00    -0.276 OA
BRANCH  22  24
ATOM     24  C   UNL     1      -3.667   5.871  -2.864  0.00  0.00    +0.099 C 
BRANCH  24  25
ATOM     25  C   UNL     1      -4.874   6.664  -2.361  0.00  0.00    -0.008 C 
ATOM     26  C   UNL     1      -6.068   6.415  -3.285  0.00  0.00    +0.008 C 
ATOM     27  C   UNL     1      -5.226   6.214  -0.942  0.00  0.00    +0.008 C 
ENDBRANCH  24  25
ENDBRANCH  22  24
ENDBRANCH  19  20
BRANCH  19  28
ATOM     28  C   UNL     1      -0.469   5.418   0.011  0.00  0.00    +0.058 C 
BRANCH  28  29
ATOM     29  C   UNL     1      -0.673   3.925   0.027  0.00  0.00    -0.042 A 
ATOM     30  C   UNL     1      -1.932   3.397  -0.197  0.00  0.00    +0.004 A 
ATOM     31  C   UNL     1      -2.121   2.028  -0.189  0.00  0.00    +0.004 A 
ATOM     32  C   UNL     1      -1.055   1.183   0.054  0.00  0.00    +0.045 A 
ATOM     33  C   UNL     1       0.208   1.710   0.278  0.00  0.00    +0.120 A 
ATOM     34  C   UNL     1       0.397   3.085   0.264  0.00  0.00    +0.049 A 
BRANCH  33  35
ATOM     35  O   UNL     1       1.260   0.881   0.511  0.00  0.00    -0.495 OA
ATOM     36  C   UNL     1       0.992  -0.522   0.511  0.00  0.00    +0.277 C 
ENDBRANCH  33  35
ENDBRANCH  28  29
ENDBRANCH  19  28
ENDBRANCH   6  19
TORSDOF 8
