REMARK  Name = ZINC09106008
REMARK  8 active torsions:
REMARK  status: ('A' for Active; 'I' for Inactive)
REMARK    1  A    between atoms: C_3  and  C_6
REMARK    2  A    between atoms: C_6  and  C_8
REMARK    3  A    between atoms: C_6  and  S_23
REMARK    4  A    between atoms: C_8  and  N_9
REMARK    5  A    between atoms: C_10  and  C_12
REMARK    6  A    between atoms: N_14  and  C_15
REMARK    7  A    between atoms: C_15  and  C_16
REMARK    8  A    between atoms: S_23  and  C_26
REMARK                            x       y       z     vdW  Elec       q    Type
REMARK                         _______ _______ _______ _____ _____    ______ ____
ROOT
ATOM      1  C   UNL     1       4.316  -1.060  -1.810  0.00  0.00    +0.189 C 
ENDROOT
BRANCH   1   4
ATOM      2  C   UNL     1       3.985   2.078  -3.944  0.00  0.00    +0.008 A 
ATOM      3  C   UNL     1       3.707   0.799  -3.500  0.00  0.00    +0.013 A 
ATOM      4  C   UNL     1       4.427   0.290  -2.470  0.00  0.00    +0.016 A 
ATOM      5  S   UNL     1       5.547   1.632  -2.104  0.00  0.00    -0.100 S 
ATOM      6  C   UNL     1       4.975   2.782  -3.344  0.00  0.00    +0.045 A 
ENDBRANCH   1   4
BRANCH   1   7
ATOM      7  S   UNL     1       3.931  -0.843  -0.051  0.00  0.00    +0.006 S 
ATOM      8  O   UNL     1       4.862   0.050   0.547  0.00  0.00    -0.169 OA
ATOM      9  O   UNL     1       3.647  -2.100   0.547  0.00  0.00    -0.169 OA
BRANCH   7  10
ATOM     10  C   UNL     1       2.397   0.024  -0.026  0.00  0.00    +0.093 A 
ATOM     11  C   UNL     1       1.207  -0.680  -0.016  0.00  0.00    +0.031 A 
ATOM     12  C   UNL     1       0.002  -0.004   0.002  0.00  0.00    +0.051 A 
ATOM     13  C   UNL     1      -0.017   1.383   0.010  0.00  0.00    +0.162 A 
ATOM     14  C   UNL     1       1.179   2.090   0.002  0.00  0.00    +0.164 A 
ATOM     15  C   UNL     1       2.386   1.406  -0.017  0.00  0.00    +0.076 A 
ATOM     16  O   UNL     1       1.184   3.451   0.018  0.00  0.00    -0.485 OA
ATOM     17  C   UNL     1      -0.040   4.103  -0.340  0.00  0.00    +0.270 C 
ATOM     18  C   UNL     1      -1.189   3.413   0.408  0.00  0.00    +0.270 C 
ATOM     19  O   UNL     1      -1.212   2.035   0.019  0.00  0.00    -0.485 OA
ENDBRANCH   7  10
ENDBRANCH   1   7
BRANCH   1  20
ATOM     20  C   UNL     1       5.642  -1.809  -1.954  0.00  0.00    +0.136 C 
BRANCH  20  21
ATOM     21  N   UNL     1       5.534  -3.122  -1.312  0.00  0.00    -0.305 N 
ATOM     22  C   UNL     1       6.587  -3.962  -1.314  0.00  0.00    +0.299 C 
ATOM     23  O   UNL     1       7.626  -3.631  -1.847  0.00  0.00    -0.265 OA
ATOM     24  H   UNL     1       4.703  -3.386  -0.886  0.00  0.00    +0.149 HD
BRANCH  22  25
ATOM     25  C   UNL     1       6.477  -5.301  -0.659  0.00  0.00    +0.299 C 
ATOM     26  O   UNL     1       5.438  -5.631  -0.126  0.00  0.00    -0.265 OA
ATOM     27  N   UNL     1       7.531  -6.141  -0.661  0.00  0.00    -0.303 N 
ATOM     28  H   UNL     1       8.361  -5.876  -1.087  0.00  0.00    +0.149 HD
BRANCH  27  29
ATOM     29  C   UNL     1       7.422  -7.453  -0.019  0.00  0.00    +0.140 C 
BRANCH  29  30
ATOM     30  C   UNL     1       8.729  -8.191  -0.160  0.00  0.00    -0.030 A 
ATOM     31  C   UNL     1       8.946  -9.007  -1.255  0.00  0.00    +0.006 A 
ATOM     32  C   UNL     1      10.146  -9.680  -1.388  0.00  0.00    +0.020 A 
ATOM     33  C   UNL     1      11.126  -9.545  -0.420  0.00  0.00    +0.041 A 
ATOM     34  C   UNL     1      10.905  -8.732   0.678  0.00  0.00    +0.020 A 
ATOM     35  C   UNL     1       9.707  -8.056   0.807  0.00  0.00    +0.006 A 
ATOM     36 CL   UNL     1      12.631 -10.394  -0.583  0.00  0.00    -0.084 Cl
ENDBRANCH  29  30
ENDBRANCH  27  29
ENDBRANCH  22  25
ENDBRANCH  20  21
ENDBRANCH   1  20
TORSDOF 8
