REMARK  Name = ZINC39935671
REMARK  3 active torsions:
REMARK  status: ('A' for Active; 'I' for Inactive)
REMARK    1  A    between atoms: N_15  and  N_16
REMARK    2  A    between atoms: C_17  and  C_18
REMARK    3  A    between atoms: C_23  and  O_24
REMARK                            x       y       z     vdW  Elec       q    Type
REMARK                         _______ _______ _______ _____ _____    ______ ____
ROOT
ATOM      1  C   UNL     1      -0.016   1.348   0.009  0.00  0.00    +0.001 A 
ATOM      2  C   UNL     1       1.156   2.116   0.002  0.00  0.00    +0.002 A 
ATOM      3  C   UNL     1       2.382   1.544  -0.018  0.00  0.00    +0.026 A 
ATOM      4  C   UNL     1       2.490   0.081  -0.034  0.00  0.00    +0.046 A 
ATOM      5  N   UNL     1       3.530  -0.719  -0.023  0.00  0.00    -0.359 N 
ATOM      6  C   UNL     1       3.070  -2.089  -0.174  0.00  0.00    +0.229 C 
ATOM      7  C   UNL     1       1.561  -2.038  -0.014  0.00  0.00    +0.115 C 
ATOM      8  C   UNL     1       1.230  -0.705  -0.014  0.00  0.00    +0.025 A 
ATOM      9  C   UNL     1       0.002  -0.004   0.002  0.00  0.00    +0.012 A 
ATOM     10  N   UNL     1       0.842  -3.139   0.220  0.00  0.00    -0.146 NA
ATOM     11  N   UNL     1       1.473  -4.102   0.821  0.00  0.00    -0.113 NA
ATOM     12  C   UNL     1       2.754  -3.971   1.242  0.00  0.00    +0.230 C 
ATOM     13  N   UNL     1       3.565  -3.019   0.840  0.00  0.00    -0.330 N 
ATOM     14  N   UNL     1       3.237  -4.895   2.147  0.00  0.00    -0.206 N 
ATOM     15  H   UNL     1       4.151  -4.827   2.467  0.00  0.00    +0.177 HD
ATOM     16  H   UNL     1       4.455  -0.442   0.071  0.00  0.00    +0.162 HD
ATOM     17  H   UNL     1       4.460  -2.934   1.204  0.00  0.00    +0.165 HD
ENDROOT
BRANCH  14  18
ATOM     18  N   UNL     1       2.410  -5.929   2.601  0.00  0.00    -0.187 NA
ATOM     19  C   UNL     1       2.865  -6.799   3.452  0.00  0.00    +0.142 C 
BRANCH  19  20
ATOM     20  C   UNL     1       1.994  -7.887   3.930  0.00  0.00    +0.037 A 
ATOM     21  C   UNL     1       2.478  -8.821   4.850  0.00  0.00    +0.027 A 
ATOM     22  C   UNL     1       1.657  -9.837   5.294  0.00  0.00    +0.014 A 
ATOM     23  C   UNL     1       0.355  -9.935   4.832  0.00  0.00    +0.018 A 
ATOM     24  C   UNL     1      -0.135  -9.018   3.922  0.00  0.00    +0.047 A 
ATOM     25  C   UNL     1       0.674  -7.988   3.470  0.00  0.00    +0.126 A 
ATOM     26  I   UNL     1       2.384 -11.237   6.672  0.00  0.00    -0.044 I 
BRANCH  25  27
ATOM     27  O   UNL     1       0.192  -7.082   2.580  0.00  0.00    -0.506 OA
ATOM     28  H   UNL     1       0.324  -7.331   1.655  0.00  0.00    +0.292 HD
ENDBRANCH  25  27
ENDBRANCH  19  20
ENDBRANCH  14  18
TORSDOF 3
