REMARK  Name = ZINC01071092
REMARK  5 active torsions:
REMARK  status: ('A' for Active; 'I' for Inactive)
REMARK    1  A    between atoms: C_5  and  N_7
REMARK    2  A    between atoms: C_10  and  C_17
REMARK    3  A    between atoms: C_12  and  C_15
REMARK    4  A    between atoms: C_13  and  N_14
REMARK    5  A    between atoms: C_21  and  N_23
REMARK                            x       y       z     vdW  Elec       q    Type
REMARK                         _______ _______ _______ _____ _____    ______ ____
ROOT
ATOM      1  N   UNL     1      -4.715   2.049   0.061  0.00  0.00    -0.257 N 
ATOM      2  C   UNL     1      -4.333   2.616   1.249  0.00  0.00    +0.025 C 
ATOM      3  C   UNL     1      -3.312   3.498   1.294  0.00  0.00    +0.025 C 
ATOM      4  C   UNL     1      -2.553   3.869   0.045  0.00  0.00    +0.097 C 
ATOM      5  C   UNL     1      -3.331   3.511  -1.187  0.00  0.00    +0.077 C 
ATOM      6  C   UNL     1      -4.361   2.630  -1.136  0.00  0.00    +0.107 C 
ATOM      7  C   UNL     1      -2.926   4.098   2.506  0.00  0.00    +0.162 C 
ATOM      8  O   UNL     1      -1.995   4.879   2.514  0.00  0.00    -0.292 OA
ATOM      9  C   UNL     1      -3.642   3.790   3.792  0.00  0.00    +0.080 C 
ATOM     10  C   UNL     1      -5.093   3.412   3.476  0.00  0.00    +0.014 C 
ATOM     11  C   UNL     1      -5.085   2.233   2.500  0.00  0.00    +0.052 C 
ENDROOT
BRANCH   1  16
ATOM     12  C   UNL     1      -7.599  -0.233   0.086  0.00  0.00    +0.002 A 
ATOM     13  C   UNL     1      -6.964  -1.461   0.072  0.00  0.00    +0.003 A 
ATOM     14  C   UNL     1      -5.583  -1.528   0.054  0.00  0.00    +0.040 A 
ATOM     15  C   UNL     1      -4.833  -0.366   0.046  0.00  0.00    +0.145 A 
ATOM     16  C   UNL     1      -5.470   0.870   0.065  0.00  0.00    +0.075 A 
ATOM     17  C   UNL     1      -6.857   0.932   0.083  0.00  0.00    +0.027 A 
ATOM     18  F   UNL     1      -3.484  -0.431   0.024  0.00  0.00    -0.204 F 
ENDBRANCH   1  16
BRANCH   4  19
ATOM     19  C   UNL     1      -1.238   3.133   0.030  0.00  0.00    -0.033 A 
ATOM     20  C   UNL     1      -1.219   1.750   0.017  0.00  0.00    +0.005 A 
ATOM     21  C   UNL     1      -0.013   1.076   0.008  0.00  0.00    +0.003 A 
ATOM     22  C   UNL     1       1.175   1.783   0.000  0.00  0.00    +0.033 A 
ATOM     23  C   UNL     1       1.157   3.165   0.008  0.00  0.00    +0.126 A 
ATOM     24  C   UNL     1      -0.050   3.840   0.022  0.00  0.00    +0.037 A 
BRANCH  23  25
ATOM     25  N   UNL     1       2.428   3.923  -0.001  0.00  0.00    +0.056 N 
ATOM     26  O   UNL     1       3.491   3.328  -0.014  0.00  0.00    -0.126 OA
ATOM     27  O   UNL     1       2.412   5.141   0.005  0.00  0.00    -0.126 OA
ENDBRANCH  23  25
ENDBRANCH   4  19
BRANCH   6  28
ATOM     28  N   UNL     1      -5.053   2.315  -2.281  0.00  0.00    -0.345 N 
ATOM     29  H   UNL     1      -5.790   1.685  -2.245  0.00  0.00    +0.144 HD
ATOM     30  H   UNL     1      -4.805   2.724  -3.125  0.00  0.00    +0.144 HD
ENDBRANCH   6  28
BRANCH   5  31
ATOM     31  C   UNL     1      -2.981   4.112  -2.439  0.00  0.00    +0.099 C 
ATOM     32  N   UNL     1      -2.704   4.588  -3.432  0.00  0.00    -0.191 NA
ENDBRANCH   5  31
TORSDOF 5
