REMARK  Name = ZINC04930188
REMARK  10 active torsions:
REMARK  status: ('A' for Active; 'I' for Inactive)
REMARK    1  A    between atoms: C_1  and  C_2
REMARK    2  A    between atoms: C_2  and  C_3
REMARK    3  A    between atoms: C_9  and  C_10
REMARK    4  A    between atoms: C_9  and  N_64
REMARK    5  A    between atoms: N_14  and  C_15
REMARK    6  A    between atoms: C_15  and  C_16
REMARK    7  A    between atoms: C_18  and  C_23
REMARK    8  A    between atoms: C_21  and  C_22
REMARK    9  A    between atoms: N_26  and  C_31
REMARK   10  A    between atoms: N_29  and  C_30
REMARK                            x       y       z     vdW  Elec       q    Type
REMARK                         _______ _______ _______ _____ _____    ______ ____
ROOT
ATOM      1  C   UNL     1       2.218   2.329   6.066  0.00  0.00    +0.096 A 
ATOM      2  N   UNL     1       2.537   1.877   4.880  0.00  0.00    -0.216 NA
ATOM      3  C   UNL     1       1.816   2.505   3.947  0.00  0.00    +0.168 A 
ATOM      4  C   UNL     1       0.992   3.410   4.604  0.00  0.00    +0.152 A 
ATOM      5  N   UNL     1       1.268   3.278   5.950  0.00  0.00    -0.319 N 
ATOM      6  C   UNL     1       0.115   4.216   3.847  0.00  0.00    +0.282 A 
ATOM      7  O   UNL     1      -0.618   5.017   4.399  0.00  0.00    -0.265 OA
ATOM      8  N   UNL     1       0.097   4.089   2.503  0.00  0.00    -0.262 N 
ATOM      9  C   UNL     1       0.903   3.212   1.881  0.00  0.00    +0.333 A 
ATOM     10  O   UNL     1       0.863   3.128   0.668  0.00  0.00    -0.246 OA
ATOM     11  N   UNL     1       1.750   2.421   2.566  0.00  0.00    -0.280 N 
ATOM     12  C   UNL     1       2.608   1.474   1.849  0.00  0.00    +0.155 C 
ATOM     13  C   UNL     1      -0.811   4.923   1.712  0.00  0.00    +0.157 C 
ENDROOT
BRANCH   1  14
ATOM     14  C   UNL     1       2.822   1.860   7.364  0.00  0.00    -0.003 C 
BRANCH  14  20
ATOM     15  C   UNL     1       5.077   2.738   7.303  0.00  0.00    -0.068 C 
ATOM     16  C   UNL     1       5.959   3.907   7.746  0.00  0.00    -0.015 C 
ATOM     17  C   UNL     1       6.039   3.928   9.275  0.00  0.00    -0.003 C 
ATOM     18  C   UNL     1       4.625   4.038   9.851  0.00  0.00    -0.019 C 
ATOM     19  C   UNL     1       3.782   2.865   9.347  0.00  0.00    -0.078 C 
ATOM     20  N   UNL     1       3.724   2.915   7.870  0.00  0.00    +0.386 N 
ATOM     21  H   UNL     1       3.360   3.831   7.582  0.00  0.00    -0.081 HD
BRANCH  15  23
ATOM     22  C   UNL     1       6.382   2.646   5.174  0.00  0.00    +0.002 C 
ATOM     23  C   UNL     1       4.978   2.725   5.776  0.00  0.00    -0.019 C 
ENDBRANCH  15  23
ENDBRANCH  14  20
ENDBRANCH   1  14
BRANCH   5  24
ATOM     24  C   UNL     1       0.646   4.026   7.045  0.00  0.00    +0.159 C 
BRANCH  24  25
ATOM     25  C   UNL     1       0.831   5.503   6.813  0.00  0.00    -0.025 A 
ATOM     26  C   UNL     1       2.051   5.987   6.376  0.00  0.00    +0.009 A 
ATOM     27  C   UNL     1       2.219   7.341   6.158  0.00  0.00    -0.050 A 
ATOM     28  C   UNL     1       1.172   8.214   6.387  0.00  0.00    +0.003 A 
ATOM     29  C   UNL     1      -0.046   7.731   6.829  0.00  0.00    +0.004 A 
ATOM     30  C   UNL     1      -0.216   6.376   7.042  0.00  0.00    -0.046 A 
ATOM     31  C   UNL     1      -1.543   5.850   7.524  0.00  0.00    +0.044 C 
ATOM     32  C   UNL     1       3.547   7.867   5.676  0.00  0.00    +0.044 C 
ENDBRANCH  24  25
ENDBRANCH   5  24
TORSDOF 5
