REMARK  Name = ZINC35664236
REMARK  13 active torsions:
REMARK  status: ('A' for Active; 'I' for Inactive)
REMARK    1  A    between atoms: C_1  and  C_2
REMARK    2  A    between atoms: C_2  and  N_3
REMARK    3  A    between atoms: C_4  and  C_23
REMARK    4  A    between atoms: C_5  and  C_18
REMARK    5  A    between atoms: C_6  and  C_11
REMARK    6  A    between atoms: C_18  and  O_20
REMARK    7  A    between atoms: O_20  and  C_21
REMARK    8  A    between atoms: C_21  and  C_22
REMARK    9  A    between atoms: C_23  and  N_24
REMARK   10  A    between atoms: N_33  and  C_34
REMARK   11  A    between atoms: C_34  and  C_35
REMARK   12  A    between atoms: C_34  and  C_36
REMARK   13  A    between atoms: C_34  and  C_37
REMARK                            x       y       z     vdW  Elec       q    Type
REMARK                         _______ _______ _______ _____ _____    ______ ____
ROOT
ATOM      1  N   UNL     1      -2.816  -0.271  -0.098  0.00  0.00    -0.261 N 
ATOM      2  C   UNL     1      -2.737  -0.995   1.057  0.00  0.00    +0.010 C 
ATOM      3  C   UNL     1      -3.447  -2.132   1.217  0.00  0.00    +0.076 C 
ATOM      4  C   UNL     1      -4.335  -2.576   0.072  0.00  0.00    +0.144 C 
ATOM      5  N   UNL     1      -4.350  -1.724  -1.129  0.00  0.00    -0.288 N 
ATOM      6  C   UNL     1      -3.587  -0.614  -1.137  0.00  0.00    +0.307 C 
ATOM      7  O   UNL     1      -3.596   0.098  -2.123  0.00  0.00    -0.252 OA
ATOM      8  H   UNL     1      -4.899  -1.956  -1.895  0.00  0.00    +0.151 HD
ENDROOT
BRANCH   4   9
ATOM      9  C   UNL     1      -3.901  -3.958  -0.344  0.00  0.00    -0.020 A 
ATOM     10  C   UNL     1      -2.792  -4.119  -1.155  0.00  0.00    +0.006 A 
ATOM     11  C   UNL     1      -2.392  -5.385  -1.537  0.00  0.00    +0.003 A 
ATOM     12  C   UNL     1      -3.101  -6.493  -1.110  0.00  0.00    +0.038 A 
ATOM     13  C   UNL     1      -4.211  -6.333  -0.299  0.00  0.00    +0.124 A 
ATOM     14  C   UNL     1      -4.607  -5.064   0.089  0.00  0.00    +0.044 A 
ATOM     15  F   UNL     1      -4.905  -7.414   0.119  0.00  0.00    -0.205 F 
ENDBRANCH   4   9
BRANCH   1  17
ATOM     16  C   UNL     1      -2.823   2.135   0.339  0.00  0.00    +0.025 C 
ATOM     17  C   UNL     1      -2.018   0.953  -0.203  0.00  0.00    +0.111 C 
ENDBRANCH   1  17
BRANCH   3  18
ATOM     18  C   UNL     1      -3.365  -2.884   2.413  0.00  0.00    +0.339 C 
ATOM     19  O   UNL     1      -2.683  -2.483   3.337  0.00  0.00    -0.245 OA
BRANCH  18  20
ATOM     20  O   UNL     1      -4.042  -4.045   2.527  0.00  0.00    -0.462 OA
BRANCH  20  21
ATOM     21  C   UNL     1      -3.913  -4.752   3.762  0.00  0.00    +0.229 C 
ATOM     22  C   UNL     1      -4.746  -6.035   3.705  0.00  0.00    +0.048 C 
ENDBRANCH  20  21
ENDBRANCH  18  20
ENDBRANCH   3  18
BRANCH   2  23
ATOM     23  C   UNL     1      -1.841  -0.518   2.171  0.00  0.00    -0.026 C 
BRANCH  23  24
ATOM     24  N   UNL     1      -0.585  -1.278   2.149  0.00  0.00    +0.384 N 
ATOM     25  C   UNL     1       0.148  -0.994   3.381  0.00  0.00    -0.077 C 
ATOM     26  C   UNL     1       0.994  -2.193   3.747  0.00  0.00    +0.000 C 
ATOM     27  C   UNL     1       2.409  -2.020   3.165  0.00  0.00    +0.107 C 
ATOM     28  N   UNL     1       2.357  -1.434   1.810  0.00  0.00    -0.287 N 
ATOM     29  C   UNL     1       1.373  -1.840   0.827  0.00  0.00    +0.091 C 
ATOM     30  C   UNL     1       0.107  -0.963   0.959  0.00  0.00    -0.059 C 
ATOM     31  C   UNL     1       3.257  -0.488   1.476  0.00  0.00    +0.303 C 
ATOM     32  O   UNL     1       4.145  -0.194   2.252  0.00  0.00    -0.253 OA
ATOM     33  N   UNL     1       3.171   0.132   0.282  0.00  0.00    -0.294 N 
ATOM     34  H   UNL     1       2.422  -0.050  -0.306  0.00  0.00    +0.151 HD
ATOM     35  H   UNL     1      -0.810  -2.262   2.136  0.00  0.00    -0.081 HD
BRANCH  33  36
ATOM     36  C   UNL     1       4.211   1.080  -0.127  0.00  0.00    +0.028 C 
ATOM     37  C   UNL     1       5.562   0.365  -0.177  0.00  0.00    +0.031 C 
ATOM     38  C   UNL     1       3.876   1.637  -1.512  0.00  0.00    +0.031 C 
ATOM     39  C   UNL     1       4.279   2.228   0.882  0.00  0.00    +0.031 C 
ENDBRANCH  33  36
ENDBRANCH  23  24
ENDBRANCH   2  23
TORSDOF 8
