REMARK  Name = ZINC59104483
REMARK  14 active torsions:
REMARK  status: ('A' for Active; 'I' for Inactive)
REMARK    1  A    between atoms: C_1  and  C_2
REMARK    2  A    between atoms: C_2  and  C_3
REMARK    3  A    between atoms: C_3  and  C_5
REMARK    4  A    between atoms: C_3  and  O_6
REMARK    5  A    between atoms: O_6  and  C_7
REMARK    6  A    between atoms: C_8  and  O_33
REMARK    7  A    between atoms: C_10  and  C_14
REMARK    8  A    between atoms: C_15  and  C_16
REMARK    9  A    between atoms: C_15  and  C_18
REMARK   10  A    between atoms: N_20  and  C_21
REMARK   11  A    between atoms: C_21  and  C_22
REMARK   12  A    between atoms: C_22  and  C_23
REMARK   13  A    between atoms: O_33  and  C_34
REMARK   14  A    between atoms: C_34  and  C_35
REMARK                            x       y       z     vdW  Elec       q    Type
REMARK                         _______ _______ _______ _____ _____    ______ ____
ROOT
ATOM      1  C   UNL     1       4.749   0.763   6.034  0.00  0.00    +0.032 C 
ATOM      2  C   UNL     1       5.800  -0.048   6.402  0.00  0.00    +0.114 C 
ENDROOT
BRANCH   1   6
ATOM      3  C   UNL     1       2.679   0.029   2.406  0.00  0.00    +0.176 A 
ATOM      4  C   UNL     1       2.767   1.330   2.904  0.00  0.00    +0.164 A 
ATOM      5  C   UNL     1       3.440   1.574   4.084  0.00  0.00    +0.057 A 
ATOM      6  C   UNL     1       4.033   0.511   4.781  0.00  0.00    -0.019 A 
ATOM      7  C   UNL     1       3.940  -0.792   4.274  0.00  0.00    +0.027 A 
ATOM      8  C   UNL     1       3.262  -1.026   3.098  0.00  0.00    +0.064 A 
ATOM      9 BR   UNL     1       3.130  -2.786   2.419  0.00  0.00    -0.046 Br
BRANCH   3  10
ATOM     10  O   UNL     1       2.016  -0.207   1.245  0.00  0.00    -0.484 OA
BRANCH  10  11
ATOM     11  C   UNL     1       0.619  -0.490   1.342  0.00  0.00    +0.170 C 
ATOM     12  C   UNL     1       0.413  -1.998   1.495  0.00  0.00    +0.052 C 
BRANCH  11  14
ATOM     13  C   UNL     1       0.010   1.519  -0.013  0.00  0.00    +0.007 C 
ATOM     14  C   UNL     1      -0.089  -0.005   0.075  0.00  0.00    +0.041 C 
ENDBRANCH  11  14
ENDBRANCH  10  11
ENDBRANCH   3  10
BRANCH   4  15
ATOM     15  O   UNL     1       2.191   2.358   2.226  0.00  0.00    -0.489 OA
BRANCH  15  16
ATOM     16  C   UNL     1       2.321   3.663   2.793  0.00  0.00    +0.226 C 
ATOM     17  C   UNL     1       1.614   4.682   1.895  0.00  0.00    +0.048 C 
ENDBRANCH  15  16
ENDBRANCH   4  15
ENDBRANCH   1   6
BRANCH   2  18
ATOM     18  C   UNL     1       6.422   0.109   7.726  0.00  0.00    +0.254 C 
ATOM     19  O   UNL     1       6.009   0.955   8.495  0.00  0.00    -0.269 OA
ATOM     20  N   UNL     1       7.450  -0.685   8.086  0.00  0.00    -0.310 N 
ATOM     21  H   UNL     1       7.780  -1.360   7.472  0.00  0.00    +0.149 HD
BRANCH  20  22
ATOM     22  C   UNL     1       8.070  -0.528   9.404  0.00  0.00    +0.109 C 
BRANCH  22  23
ATOM     23  C   UNL     1       9.204  -1.544   9.559  0.00  0.00    +0.056 C 
BRANCH  23  24
ATOM     24  C   UNL     1       9.841  -1.383  10.915  0.00  0.00    -0.021 A 
ATOM     25  C   UNL     1      10.928  -0.650  11.204  0.00  0.00    +0.087 A 
ATOM     26  N   UNL     1      11.212  -0.744  12.539  0.00  0.00    -0.360 N 
ATOM     27  H   UNL     1      11.952  -0.302  12.984  0.00  0.00    +0.165 HD
ATOM     28  C   UNL     1      10.290  -1.559  13.158  0.00  0.00    +0.047 A 
ATOM     29  C   UNL     1       9.387  -1.990  12.168  0.00  0.00    +0.003 A 
ATOM     30  C   UNL     1       8.329  -2.834  12.510  0.00  0.00    +0.010 A 
ATOM     31  C   UNL     1       8.174  -3.235  13.807  0.00  0.00    +0.001 A 
ATOM     32  C   UNL     1       9.060  -2.810  14.788  0.00  0.00    +0.002 A 
ATOM     33  C   UNL     1      10.116  -1.984  14.470  0.00  0.00    +0.026 A 
ENDBRANCH  23  24
ENDBRANCH  22  23
ENDBRANCH  20  22
ENDBRANCH   2  18
BRANCH   2  34
ATOM     34  C   UNL     1       6.287  -1.045   5.496  0.00  0.00    +0.104 C 
ATOM     35  N   UNL     1       6.673  -1.835   4.777  0.00  0.00    -0.191 NA
ENDBRANCH   2  34
TORSDOF 11
