REMARK  Name = ZINC40847862
REMARK  6 active torsions:
REMARK  status: ('A' for Active; 'I' for Inactive)
REMARK    1  A    between atoms: C_1  and  C_2
REMARK    2  A    between atoms: C_4  and  O_29
REMARK    3  A    between atoms: C_7  and  N_8
REMARK    4  A    between atoms: C_14  and  C_28
REMARK    5  A    between atoms: C_16  and  N_17
REMARK    6  A    between atoms: O_29  and  C_30
REMARK                            x       y       z     vdW  Elec       q    Type
REMARK                         _______ _______ _______ _____ _____    ______ ____
ROOT
ATOM      1  N   UNL     1       0.025  -0.012   2.417  0.00  0.00    -0.284 N 
ATOM      2  C   UNL     1      -1.175   0.381   3.159  0.00  0.00    +0.117 C 
ATOM      3  C   UNL     1      -0.654   1.106   4.412  0.00  0.00    +0.060 C 
ATOM      4  C   UNL     1       0.850   1.062   4.271  0.00  0.00    +0.020 A 
ATOM      5  C   UNL     1       1.167   0.397   3.098  0.00  0.00    +0.131 A 
ATOM      6  N   UNL     1       2.448   0.231   2.763  0.00  0.00    -0.236 NA
ATOM      7  C   UNL     1       3.434   0.678   3.515  0.00  0.00    +0.042 A 
ATOM      8  C   UNL     1       3.186   1.345   4.695  0.00  0.00    +0.051 A 
ATOM      9  C   UNL     1       1.862   1.551   5.087  0.00  0.00    +0.074 A 
ATOM     10  C   UNL     1       4.858   0.455   3.075  0.00  0.00    +0.066 C 
ENDROOT
BRANCH   9  11
ATOM     11  N   UNL     1       1.563   2.220   6.277  0.00  0.00    -0.238 N 
ATOM     12  C   UNL     1       2.465   2.744   7.148  0.00  0.00    +0.116 A 
ATOM     13  C   UNL     1       1.775   3.305   8.167  0.00  0.00    +0.065 A 
ATOM     14  C   UNL     1       0.405   3.121   7.915  0.00  0.00    +0.151 A 
ATOM     15  N   UNL     1       0.280   2.476   6.779  0.00  0.00    -0.151 NA
ATOM     16  N   UNL     1      -0.646   3.555   8.733  0.00  0.00    -0.237 N 
ATOM     17  C   UNL     1      -2.071   3.263   8.517  0.00  0.00    +0.135 C 
ATOM     18  C   UNL     1      -2.775   3.971   9.690  0.00  0.00    +0.125 C 
ATOM     19  N   UNL     1      -1.673   4.587  10.443  0.00  0.00    -0.297 N 
ATOM     20  C   UNL     1      -0.512   4.299   9.839  0.00  0.00    +0.308 C 
ATOM     21  O   UNL     1       0.564   4.681  10.255  0.00  0.00    -0.252 OA
ATOM     22  H   UNL     1      -1.770   5.114  11.251  0.00  0.00    +0.150 HD
ENDBRANCH   9  11
BRANCH   1  29
ATOM     23  C   UNL     1      -0.018   1.503   0.010  0.00  0.00    +0.046 C 
ATOM     24  C   UNL     1       0.002  -0.004   0.002  0.00  0.00    -0.026 A 
ATOM     25  C   UNL     1       0.006  -0.688  -1.198  0.00  0.00    +0.051 A 
ATOM     26  C   UNL     1       0.025  -2.075  -1.206  0.00  0.00    +0.130 A 
ATOM     27  C   UNL     1       0.039  -2.776  -0.009  0.00  0.00    +0.048 A 
ATOM     28  C   UNL     1       0.035  -2.094   1.192  0.00  0.00    +0.027 A 
ATOM     29  C   UNL     1       0.023  -0.705   1.200  0.00  0.00    +0.038 A 
BRANCH  26  30
ATOM     30  O   UNL     1       0.028  -2.748  -2.387  0.00  0.00    -0.406 OA
BRANCH  30  31
ATOM     31  C   UNL     1       0.048  -4.175  -2.321  0.00  0.00    +0.575 C 
ATOM     32  F   UNL     1      -1.085  -4.626  -1.635  0.00  0.00    -0.133 F 
ATOM     33  F   UNL     1       0.049  -4.702  -3.617  0.00  0.00    -0.133 F 
ATOM     34  F   UNL     1       1.199  -4.595  -1.646  0.00  0.00    -0.133 F 
ENDBRANCH  30  31
ENDBRANCH  26  30
ENDBRANCH   1  29
TORSDOF 4
