REMARK  Name = ZINC35706883
REMARK  8 active torsions:
REMARK  status: ('A' for Active; 'I' for Inactive)
REMARK    1  A    between atoms: C_1  and  C_2
REMARK    2  A    between atoms: C_2  and  C_3
REMARK    3  A    between atoms: C_3  and  C_4
REMARK    4  A    between atoms: C_4  and  N_5
REMARK    5  A    between atoms: N_5  and  C_6
REMARK    6  A    between atoms: C_6  and  C_7
REMARK    7  A    between atoms: C_21  and  C_23
REMARK    8  A    between atoms: C_28  and  C_30
REMARK                            x       y       z     vdW  Elec       q    Type
REMARK                         _______ _______ _______ _____ _____    ______ ____
ROOT
ATOM      1  C   UNL     1      -3.562  -3.584  -1.942  0.00  0.00    +0.238 C 
ATOM      2  O   UNL     1      -2.814  -4.458  -1.557  0.00  0.00    -0.273 OA
ATOM      3  N   UNL     1      -4.313  -3.778  -3.045  0.00  0.00    -0.252 N 
ATOM      4  C   UNL     1      -4.304  -5.023  -3.688  0.00  0.00    +0.061 A 
ATOM      5  C   UNL     1      -3.180  -5.834  -3.637  0.00  0.00    +0.025 A 
ATOM      6  C   UNL     1      -3.189  -7.064  -4.267  0.00  0.00    +0.002 A 
ATOM      7  C   UNL     1      -4.313  -7.495  -4.949  0.00  0.00    +0.002 A 
ATOM      8  C   UNL     1      -5.438  -6.691  -5.010  0.00  0.00    +0.028 A 
ATOM      9  C   UNL     1      -5.434  -5.459  -4.387  0.00  0.00    +0.068 A 
ATOM     10  N   UNL     1      -6.541  -4.598  -4.443  0.00  0.00    -0.316 N 
ATOM     11  C   UNL     1      -7.814  -4.838  -4.837  0.00  0.00    +0.092 A 
ATOM     12  C   UNL     1      -8.519  -3.691  -4.705  0.00  0.00    +0.020 A 
ATOM     13  C   UNL     1      -7.638  -2.705  -4.209  0.00  0.00    +0.025 A 
ATOM     14  C   UNL     1      -6.439  -3.279  -4.059  0.00  0.00    +0.052 A 
ATOM     15  C   UNL     1      -5.146  -2.683  -3.569  0.00  0.00    +0.194 C 
ENDROOT
BRANCH  15  16
ATOM     16  C   UNL     1      -4.436  -2.002  -4.711  0.00  0.00    +0.131 A 
ATOM     17  C   UNL     1      -4.405  -0.677  -4.941  0.00  0.00    +0.047 A 
ATOM     18  C   UNL     1      -3.633  -0.482  -6.109  0.00  0.00    +0.041 A 
ATOM     19  C   UNL     1      -3.238  -1.700  -6.523  0.00  0.00    +0.195 A 
ATOM     20  O   UNL     1      -3.723  -2.616  -5.669  0.00  0.00    -0.466 OA
ENDBRANCH  15  16
BRANCH   1  21
ATOM     21  C   UNL     1      -3.652  -2.282  -1.189  0.00  0.00    +0.204 C 
BRANCH  21  22
ATOM     22  N   UNL     1      -2.845  -2.368   0.031  0.00  0.00    -0.289 N 
ATOM     23  C   UNL     1      -3.429  -2.684   1.204  0.00  0.00    +0.247 C 
ATOM     24  O   UNL     1      -2.781  -2.660   2.232  0.00  0.00    -0.270 OA
BRANCH  23  25
ATOM     25  C   UNL     1      -4.858  -3.060   1.241  0.00  0.00    +0.038 A 
ATOM     26  C   UNL     1      -5.368  -3.968   0.310  0.00  0.00    +0.014 A 
ATOM     27  C   UNL     1      -6.701  -4.316   0.349  0.00  0.00    +0.022 A 
ATOM     28  C   UNL     1      -7.536  -3.766   1.308  0.00  0.00    +0.059 A 
ATOM     29  C   UNL     1      -7.037  -2.864   2.234  0.00  0.00    +0.060 A 
ATOM     30  C   UNL     1      -5.702  -2.513   2.209  0.00  0.00    +0.034 A 
ATOM     31 CL   UNL     1      -8.090  -2.179   3.432  0.00  0.00    -0.082 Cl
ATOM     32 CL   UNL     1      -9.214  -4.207   1.349  0.00  0.00    -0.082 Cl
ENDBRANCH  23  25
BRANCH  22  33
ATOM     33  C   UNL     1      -1.405  -2.109  -0.024  0.00  0.00    +0.108 C 
BRANCH  33  34
ATOM     34  C   UNL     1      -1.151  -0.605   0.094  0.00  0.00    +0.019 C 
BRANCH  34  36
ATOM     35  C   UNL     1       0.606   1.170   0.155  0.00  0.00    +0.004 C 
ATOM     36  C   UNL     1       0.353  -0.335   0.037  0.00  0.00    -0.002 C 
ENDBRANCH  34  36
ENDBRANCH  33  34
ENDBRANCH  22  33
ENDBRANCH  21  22
ENDBRANCH   1  21
TORSDOF 7
