REMARK  Name = ZINC32850307
REMARK  6 active torsions:
REMARK  status: ('A' for Active; 'I' for Inactive)
REMARK    1  A    between atoms: C_1  and  N_2
REMARK    2  A    between atoms: N_7  and  C_10
REMARK    3  A    between atoms: N_11  and  C_15
REMARK    4  A    between atoms: C_15  and  C_16
REMARK    5  A    between atoms: C_19  and  C_29
REMARK    6  A    between atoms: C_22  and  C_24
REMARK                            x       y       z     vdW  Elec       q    Type
REMARK                         _______ _______ _______ _____ _____    ______ ____
ROOT
ATOM      1  C   UNL     1      -1.167  -0.336   2.195  0.00  0.00    +0.255 C 
ATOM      2  O   UNL     1      -0.343   0.342   2.773  0.00  0.00    -0.272 OA
ATOM      3  N   UNL     1      -1.060  -0.541   0.868  0.00  0.00    -0.180 N 
ATOM      4  C   UNL     1       0.002  -0.004   0.002  0.00  0.00    +0.173 C 
ATOM      5  C   UNL     1      -0.361  -0.544  -1.395  0.00  0.00    +0.093 C 
ATOM      6  C   UNL     1      -1.621  -1.347  -1.160  0.00  0.00    +0.104 C 
ATOM      7  N   UNL     1      -1.936  -1.297   0.091  0.00  0.00    -0.178 NA
ENDROOT
BRANCH   6   8
ATOM      8  C   UNL     1      -2.369  -2.070  -2.193  0.00  0.00    +0.150 A 
ATOM      9  C   UNL     1      -3.506  -2.799  -1.997  0.00  0.00    +0.051 A 
ATOM     10  C   UNL     1      -3.878  -3.313  -3.253  0.00  0.00    +0.042 A 
ATOM     11  C   UNL     1      -2.963  -2.881  -4.145  0.00  0.00    +0.196 A 
ATOM     12  O   UNL     1      -2.057  -2.126  -3.503  0.00  0.00    -0.462 OA
ENDBRANCH   6   8
BRANCH   4  13
ATOM     13  C   UNL     1      -0.018   1.503   0.010  0.00  0.00    +0.128 A 
ATOM     14  C   UNL     1       1.062   2.304   0.004  0.00  0.00    +0.046 A 
ATOM     15  C   UNL     1       0.585   3.635   0.016  0.00  0.00    +0.041 A 
ATOM     16  C   UNL     1      -0.759   3.567   0.029  0.00  0.00    +0.195 A 
ATOM     17  O   UNL     1      -1.118   2.273   0.019  0.00  0.00    -0.466 OA
ENDBRANCH   4  13
BRANCH   1  18
ATOM     18  C   UNL     1      -2.311  -0.948   2.962  0.00  0.00    +0.222 C 
BRANCH  18  29
ATOM     19  C   UNL     1      -2.452   1.429   8.594  0.00  0.00    +0.155 C 
ATOM     20  N   UNL     1      -2.818   1.473   7.176  0.00  0.00    -0.280 N 
ATOM     21  C   UNL     1      -2.395   0.469   6.320  0.00  0.00    +0.169 A 
ATOM     22  C   UNL     1      -2.756   0.534   4.980  0.00  0.00    +0.153 A 
ATOM     23  C   UNL     1      -3.541   1.617   4.531  0.00  0.00    +0.282 A 
ATOM     24  O   UNL     1      -3.870   1.696   3.361  0.00  0.00    -0.265 OA
ATOM     25  N   UNL     1      -3.923   2.564   5.413  0.00  0.00    -0.262 N 
ATOM     26  C   UNL     1      -3.567   2.489   6.707  0.00  0.00    +0.333 A 
ATOM     27  O   UNL     1      -3.929   3.362   7.473  0.00  0.00    -0.246 OA
ATOM     28  C   UNL     1      -4.737   3.691   4.953  0.00  0.00    +0.157 C 
ATOM     29  N   UNL     1      -2.203  -0.579   4.376  0.00  0.00    -0.300 N 
ATOM     30  C   UNL     1      -1.551  -1.265   5.337  0.00  0.00    +0.206 A 
ATOM     31  N   UNL     1      -1.664  -0.636   6.481  0.00  0.00    -0.199 NA
ATOM     32 CL   UNL     1      -0.690  -2.753   5.094  0.00  0.00    -0.043 Cl
ENDBRANCH  18  29
ENDBRANCH   1  18
TORSDOF 4
