REMARK  Name = ZINC14754933
REMARK  8 active torsions:
REMARK  status: ('A' for Active; 'I' for Inactive)
REMARK    1  A    between atoms: C_1  and  O_2
REMARK    2  A    between atoms: O_2  and  C_3
REMARK    3  A    between atoms: C_3  and  C_4
REMARK    4  A    between atoms: C_4  and  N_5
REMARK    5  A    between atoms: C_13  and  C_14
REMARK    6  A    between atoms: C_13  and  N_62
REMARK    7  A    between atoms: N_24  and  C_27
REMARK    8  A    between atoms: C_27  and  C_28
REMARK                            x       y       z     vdW  Elec       q    Type
REMARK                         _______ _______ _______ _____ _____    ______ ____
ROOT
ATOM      1  N   UNL     1      -3.190   5.356  -3.227  0.00  0.00    -0.222 N 
ATOM      2  C   UNL     1      -3.992   4.291  -3.436  0.00  0.00    +0.247 C 
ATOM      3  O   UNL     1      -4.650   4.050  -4.425  0.00  0.00    -0.273 OA
ATOM      4  C   UNL     1      -3.898   3.463  -2.175  0.00  0.00    +0.112 C 
ATOM      5  C   UNL     1      -5.266   3.345  -1.510  0.00  0.00    +0.017 C 
ATOM      6  C   UNL     1      -5.144   2.479  -0.253  0.00  0.00    -0.076 C 
ATOM      7  C   UNL     1      -3.275   1.256  -1.196  0.00  0.00    -0.076 C 
ATOM      8  C   UNL     1      -3.334   2.080  -2.486  0.00  0.00    +0.017 C 
ATOM      9  N   UNL     1      -2.973   4.217  -1.320  0.00  0.00    -0.267 N 
ATOM     10  C   UNL     1      -2.615   5.311  -2.019  0.00  0.00    +0.312 C 
ATOM     11  O   UNL     1      -1.855   6.162  -1.600  0.00  0.00    -0.252 OA
ATOM     12  N   UNL     1      -4.640   1.144  -0.638  0.00  0.00    +0.383 N 
ATOM     13  H   UNL     1      -5.260   0.748  -1.354  0.00  0.00    -0.081 HD
ENDROOT
BRANCH   1  14
ATOM     14  C   UNL     1      -2.978   6.430  -4.201  0.00  0.00    +0.146 C 
BRANCH  14  15
ATOM     15  C   UNL     1      -4.016   7.532  -3.978  0.00  0.00    +0.179 C 
BRANCH  15  17
ATOM     16  C   UNL     1      -4.727   9.181  -2.391  0.00  0.00    +0.194 C 
ATOM     17  O   UNL     1      -3.805   8.134  -2.699  0.00  0.00    -0.381 OA
ENDBRANCH  15  17
ENDBRANCH  14  15
ENDBRANCH   1  14
BRANCH  12  18
ATOM     18  C   UNL     1      -4.632   0.249   0.538  0.00  0.00    -0.041 C 
BRANCH  18  19
ATOM     19  C   UNL     1      -6.053  -0.128   0.867  0.00  0.00    -0.042 A 
ATOM     20  C   UNL     1      -6.678   0.430   1.966  0.00  0.00    +0.052 A 
ATOM     21  C   UNL     1      -7.984   0.085   2.271  0.00  0.00    +0.167 A 
ATOM     22  C   UNL     1      -8.666  -0.826   1.467  0.00  0.00    +0.168 A 
ATOM     23  C   UNL     1      -8.035  -1.381   0.367  0.00  0.00    +0.069 A 
ATOM     24  C   UNL     1      -6.731  -1.028   0.065  0.00  0.00    +0.046 A 
ATOM     25 CL   UNL     1      -5.944  -1.720  -1.319  0.00  0.00    -0.083 Cl
ATOM     26  O   UNL     1      -9.923  -0.997   1.971  0.00  0.00    -0.453 OA
ATOM     27  C   UNL     1      -9.868  -0.497   3.320  0.00  0.00    +0.466 C 
ATOM     28  O   UNL     1      -8.815   0.484   3.279  0.00  0.00    -0.453 OA
ENDBRANCH  18  19
ENDBRANCH  12  18
BRANCH   9  29
ATOM     29  C   UNL     1      -2.531   3.853   0.028  0.00  0.00    +0.145 C 
BRANCH  29  30
ATOM     30  C   UNL     1      -1.031   3.702   0.042  0.00  0.00    -0.030 A 
ATOM     31  C   UNL     1      -0.461   2.455  -0.133  0.00  0.00    +0.005 A 
ATOM     32  C   UNL     1       0.914   2.315  -0.116  0.00  0.00    +0.000 A 
ATOM     33  C   UNL     1       1.719   3.424   0.065  0.00  0.00    +0.000 A 
ATOM     34  C   UNL     1       1.149   4.672   0.235  0.00  0.00    +0.000 A 
ATOM     35  C   UNL     1      -0.226   4.811   0.223  0.00  0.00    +0.005 A 
ENDBRANCH  29  30
ENDBRANCH   9  29
TORSDOF 7
