REMARK  Name = ZINC09461083
REMARK  6 active torsions:
REMARK  status: ('A' for Active; 'I' for Inactive)
REMARK    1  A    between atoms: C_1  and  C_2
REMARK    2  A    between atoms: C_7  and  C_8
REMARK    3  A    between atoms: C_7  and  N_65
REMARK    4  A    between atoms: C_9  and  C_19
REMARK    5  A    between atoms: N_21  and  N_22
REMARK    6  A    between atoms: C_23  and  C_24
REMARK                            x       y       z     vdW  Elec       q    Type
REMARK                         _______ _______ _______ _____ _____    ______ ____
ROOT
ATOM      1  C   UNL     1      -0.497   5.389   0.091  0.00  0.00    +0.063 A 
ATOM      2  C   UNL     1       0.764   5.914   0.085  0.00  0.00    +0.170 A 
ATOM      3  N   UNL     1       1.647   4.900   0.059  0.00  0.00    -0.124 NA
ATOM      4  N   UNL     1       1.016   3.778   0.054  0.00  0.00    -0.058 NA
ATOM      5  N   UNL     1      -0.360   4.044   0.077  0.00  0.00    -0.194 N 
ATOM      6  C   UNL     1      -1.393   3.100   0.080  0.00  0.00    +0.240 A 
ATOM      7  C   UNL     1      -1.224   1.644   0.059  0.00  0.00    +0.206 A 
ATOM      8  N   UNL     1      -2.407   1.094   0.076  0.00  0.00    -0.032 NA
ATOM      9  O   UNL     1      -3.369   2.134   0.101  0.00  0.00    -0.239 OA
ATOM     10  N   UNL     1      -2.668   3.365   0.099  0.00  0.00    -0.027 NA
ATOM     11  N   UNL     1      -0.011   0.966   0.032  0.00  0.00    -0.337 N 
ATOM     12  H   UNL     1       0.002  -0.004   0.024  0.00  0.00    +0.144 HD
ATOM     13  H   UNL     1       0.822   1.462   0.018  0.00  0.00    +0.144 HD
ENDROOT
BRANCH   2  14
ATOM     14  C   UNL     1       1.100   7.350   0.099  0.00  0.00    +0.285 C 
ATOM     15  O   UNL     1       0.213   8.182   0.122  0.00  0.00    -0.267 OA
ATOM     16  N   UNL     1       2.390   7.740   0.084  0.00  0.00    -0.202 N 
ATOM     17  H   UNL     1       3.097   7.077   0.066  0.00  0.00    +0.178 HD
BRANCH  16  18
ATOM     18  N   UNL     1       2.709   9.104   0.097  0.00  0.00    -0.187 NA
ATOM     19  C   UNL     1       3.955   9.481   0.083  0.00  0.00    +0.139 C 
BRANCH  19  20
ATOM     20  C   UNL     1       4.289  10.908   0.096  0.00  0.00    +0.010 A 
ATOM     21  C   UNL     1       5.631  11.326   0.209  0.00  0.00    -0.009 A 
ATOM     22  C   UNL     1       6.677  10.391   0.301  0.00  0.00    +0.009 A 
ATOM     23  C   UNL     1       7.961  10.827   0.403  0.00  0.00    +0.001 A 
ATOM     24  C   UNL     1       8.274  12.185   0.415  0.00  0.00    +0.001 A 
ATOM     25  C   UNL     1       7.311  13.139   0.326  0.00  0.00    +0.008 A 
ATOM     26  C   UNL     1       5.957  12.754   0.217  0.00  0.00    -0.017 A 
ATOM     27  C   UNL     1       4.944  13.708   0.123  0.00  0.00    +0.017 A 
ATOM     28  C   UNL     1       3.613  13.304   0.016  0.00  0.00    -0.017 A 
ATOM     29  C   UNL     1       3.271  11.880   0.002  0.00  0.00    -0.009 A 
ATOM     30  C   UNL     1       1.920  11.508  -0.108  0.00  0.00    +0.009 A 
ATOM     31  C   UNL     1       0.963  12.470  -0.198  0.00  0.00    +0.001 A 
ATOM     32  C   UNL     1       1.286  13.826  -0.184  0.00  0.00    +0.001 A 
ATOM     33  C   UNL     1       2.571  14.252  -0.081  0.00  0.00    +0.008 A 
ENDBRANCH  19  20
ENDBRANCH  16  18
ENDBRANCH   2  14
BRANCH   1  34
ATOM     34  C   UNL     1      -1.792   6.160   0.113  0.00  0.00    -0.020 C 
BRANCH  34  41
ATOM     35  C   UNL     1      -3.121   7.993   5.361  0.00  0.00    +0.007 C 
ATOM     36  C   UNL     1      -2.656   7.937   3.904  0.00  0.00    -0.018 C 
ATOM     37  C   UNL     1      -3.807   7.455   3.017  0.00  0.00    -0.016 C 
ATOM     38  C   UNL     1      -3.319   7.343   1.571  0.00  0.00    -0.078 C 
ATOM     39  C   UNL     1      -1.061   6.863   2.311  0.00  0.00    -0.078 C 
ATOM     40  C   UNL     1      -1.483   6.961   3.779  0.00  0.00    -0.016 C 
ATOM     41  N   UNL     1      -2.206   6.372   1.515  0.00  0.00    +0.383 N 
ATOM     42  H   UNL     1      -2.525   5.478   1.907  0.00  0.00    -0.081 HD
ENDBRANCH  34  41
ENDBRANCH   1  34
TORSDOF 5
