REMARK  Name = ZINC35993508
REMARK  10 active torsions:
REMARK  status: ('A' for Active; 'I' for Inactive)
REMARK    1  A    between atoms: C_1  and  C_2
REMARK    2  A    between atoms: C_2  and  O_3
REMARK    3  A    between atoms: O_3  and  C_4
REMARK    4  A    between atoms: C_4  and  C_6
REMARK    5  A    between atoms: C_7  and  C_22
REMARK    6  A    between atoms: N_8  and  C_21
REMARK    7  A    between atoms: C_12  and  C_14
REMARK    8  A    between atoms: C_22  and  N_23
REMARK    9  A    between atoms: C_27  and  C_30
REMARK   10  A    between atoms: C_31  and  C_33
REMARK                            x       y       z     vdW  Elec       q    Type
REMARK                         _______ _______ _______ _____ _____    ______ ____
ROOT
ATOM      1  C   UNL     1       1.879  -2.598  -2.709  0.00  0.00    +0.080 C 
ATOM      2  C   UNL     1       1.979  -3.934  -2.877  0.00  0.00    +0.041 C 
ATOM      3  N   UNL     1       2.454  -4.464  -4.042  0.00  0.00    -0.260 N 
ATOM      4  C   UNL     1       2.850  -3.726  -5.087  0.00  0.00    +0.307 C 
ATOM      5  O   UNL     1       3.259  -4.289  -6.084  0.00  0.00    -0.252 OA
ATOM      6  N   UNL     1       2.809  -2.379  -5.070  0.00  0.00    -0.288 N 
ATOM      7  C   UNL     1       2.305  -1.708  -3.860  0.00  0.00    +0.144 C 
ATOM      8  C   UNL     1       2.537  -5.922  -4.155  0.00  0.00    +0.139 C 
ATOM      9  H   UNL     1       3.100  -1.864  -5.839  0.00  0.00    +0.151 HD
ENDROOT
BRANCH   7  10
ATOM     10  C   UNL     1       1.125  -0.857  -4.251  0.00  0.00    -0.022 A 
ATOM     11  C   UNL     1       0.124  -1.386  -5.044  0.00  0.00    +0.007 A 
ATOM     12  C   UNL     1      -0.959  -0.606  -5.404  0.00  0.00    +0.020 A 
ATOM     13  C   UNL     1      -1.041   0.705  -4.970  0.00  0.00    +0.041 A 
ATOM     14  C   UNL     1      -0.038   1.234  -4.176  0.00  0.00    +0.020 A 
ATOM     15  C   UNL     1       1.041   0.451  -3.812  0.00  0.00    +0.007 A 
ATOM     16 CL   UNL     1      -2.400   1.686  -5.421  0.00  0.00    -0.084 Cl
ENDBRANCH   7  10
BRANCH   1  17
ATOM     17  C   UNL     1       1.387  -2.047  -1.503  0.00  0.00    +0.339 C 
ATOM     18  O   UNL     1       0.250  -1.617  -1.450  0.00  0.00    -0.245 OA
BRANCH  17  19
ATOM     19  O   UNL     1       2.178  -1.999  -0.411  0.00  0.00    -0.462 OA
BRANCH  19  21
ATOM     20  C   UNL     1       2.653  -1.461   1.897  0.00  0.00    +0.048 C 
ATOM     21  C   UNL     1       1.615  -1.429   0.773  0.00  0.00    +0.229 C 
ENDBRANCH  19  21
ENDBRANCH  17  19
ENDBRANCH   1  17
BRANCH   2  22
ATOM     22  C   UNL     1       1.561  -4.854  -1.760  0.00  0.00    +0.136 C 
BRANCH  22  23
ATOM     23  N   UNL     1       0.414  -5.662  -2.195  0.00  0.00    -0.294 NA
ATOM     24  C   UNL     1      -0.767  -4.819  -2.423  0.00  0.00    +0.104 C 
ATOM     25  C   UNL     1      -1.883  -5.666  -3.045  0.00  0.00    +0.123 C 
ATOM     26  N   UNL     1      -2.112  -6.839  -2.188  0.00  0.00    -0.296 N 
ATOM     27  C   UNL     1      -0.952  -7.657  -1.802  0.00  0.00    +0.087 C 
ATOM     28  C   UNL     1       0.127  -6.731  -1.229  0.00  0.00    +0.107 C 
ATOM     29  C   UNL     1      -1.373  -8.679  -0.745  0.00  0.00    +0.029 C 
ATOM     30  C   UNL     1      -3.353  -7.156  -1.767  0.00  0.00    +0.219 C 
ATOM     31  O   UNL     1      -3.514  -8.078  -0.996  0.00  0.00    -0.275 OA
BRANCH  30  32
ATOM     32  C   UNL     1      -4.539  -6.365  -2.256  0.00  0.00    +0.075 C 
ATOM     33  C   UNL     1      -5.053  -6.814  -3.634  0.00  0.00    +0.013 C 
ATOM     34  C   UNL     1      -5.957  -7.809  -2.885  0.00  0.00    +0.001 C 
ATOM     35  C   UNL     1      -5.881  -6.852  -1.684  0.00  0.00    +0.013 C 
ENDBRANCH  30  32
ENDBRANCH  22  23
ENDBRANCH   2  22
TORSDOF 7
