REMARK  Name = ZINC63236933
REMARK  10 active torsions:
REMARK  status: ('A' for Active; 'I' for Inactive)
REMARK    1  A    between atoms: C_1  and  C_2
REMARK    2  A    between atoms: C_2  and  O_3
REMARK    3  A    between atoms: O_3  and  C_4
REMARK    4  A    between atoms: C_4  and  C_6
REMARK    5  A    between atoms: C_7  and  C_34
REMARK    6  A    between atoms: C_10  and  N_12
REMARK    7  A    between atoms: C_13  and  C_15
REMARK    8  A    between atoms: C_15  and  N_16
REMARK    9  A    between atoms: C_19  and  C_24
REMARK   10  A    between atoms: C_24  and  C_25
REMARK                            x       y       z     vdW  Elec       q    Type
REMARK                         _______ _______ _______ _____ _____    ______ ____
ROOT
ATOM      1  N   UNL     1       3.303  -0.846  -3.121  0.00  0.00    -0.298 N 
ATOM      2  C   UNL     1       4.361  -0.809  -3.955  0.00  0.00    +0.232 C 
ATOM      3  O   UNL     1       4.264  -1.255  -5.078  0.00  0.00    -0.274 OA
ATOM      4  H   UNL     1       3.381  -0.489  -2.222  0.00  0.00    +0.150 HD
ENDROOT
BRANCH   1   9
ATOM      5  C   UNL     1       1.448  -2.344  -2.515  0.00  0.00    +0.071 C 
ATOM      6  C   UNL     1       1.558  -3.655  -2.696  0.00  0.00    -0.018 C 
ATOM      7  C   UNL     1       2.268  -4.146  -3.944  0.00  0.00    +0.107 C 
ATOM      8  S   UNL     1       2.307  -2.607  -4.960  0.00  0.00    -0.129 S 
ATOM      9  C   UNL     1       2.035  -1.426  -3.572  0.00  0.00    +0.169 C 
BRANCH   6  10
ATOM     10  C   UNL     1       1.007  -4.604  -1.715  0.00  0.00    -0.021 A 
ATOM     11  C   UNL     1       1.529  -4.658  -0.419  0.00  0.00    +0.008 A 
ATOM     12  C   UNL     1       1.008  -5.549   0.494  0.00  0.00    +0.001 A 
ATOM     13  C   UNL     1      -0.030  -6.390   0.131  0.00  0.00    +0.000 A 
ATOM     14  C   UNL     1      -0.552  -6.343  -1.150  0.00  0.00    +0.001 A 
ATOM     15  C   UNL     1      -0.045  -5.453  -2.073  0.00  0.00    +0.008 A 
ENDBRANCH   6  10
BRANCH   5  16
ATOM     16  C   UNL     1       0.776  -1.800  -1.335  0.00  0.00    +0.338 C 
ATOM     17  O   UNL     1       0.312  -2.552  -0.499  0.00  0.00    -0.245 OA
BRANCH  16  18
ATOM     18  O   UNL     1       0.671  -0.465  -1.174  0.00  0.00    -0.462 OA
BRANCH  18  20
ATOM     19  C   UNL     1      -0.019   1.526   0.010  0.00  0.00    +0.048 C 
ATOM     20  C   UNL     1       0.002  -0.004   0.002  0.00  0.00    +0.229 C 
ENDBRANCH  18  20
ENDBRANCH  16  18
ENDBRANCH   5  16
ENDBRANCH   1   9
BRANCH   2  21
ATOM     21  C   UNL     1       5.665  -0.212  -3.491  0.00  0.00    +0.213 C 
BRANCH  21  22
ATOM     22  N   UNL     1       6.650  -0.291  -4.573  0.00  0.00    -0.216 N 
ATOM     23  C   UNL     1       7.481  -1.333  -4.766  0.00  0.00    +0.244 C 
ATOM     24  O   UNL     1       7.553  -2.346  -4.102  0.00  0.00    -0.273 OA
ATOM     25  C   UNL     1       8.308  -0.978  -5.986  0.00  0.00    +0.165 C 
ATOM     26  N   UNL     1       7.799   0.348  -6.375  0.00  0.00    -0.287 N 
ATOM     27  C   UNL     1       6.831   0.662  -5.495  0.00  0.00    +0.310 C 
ATOM     28  O   UNL     1       6.195   1.697  -5.531  0.00  0.00    -0.252 OA
ATOM     29  H   UNL     1       8.100   0.888  -7.122  0.00  0.00    +0.151 HD
BRANCH  25  30
ATOM     30  C   UNL     1       9.793  -0.904  -5.626  0.00  0.00    +0.065 C 
BRANCH  30  31
ATOM     31  C   UNL     1      10.602  -0.671  -6.877  0.00  0.00    -0.039 C 
ATOM     32  C   UNL     1      11.034   0.517  -7.356  0.00  0.00    -0.001 A 
ATOM     33  C   UNL     1      10.886   1.896  -6.876  0.00  0.00    +0.010 A 
ATOM     34  C   UNL     1      11.443   2.902  -7.588  0.00  0.00    +0.001 A 
ATOM     35  C   UNL     1      12.156   2.661  -8.771  0.00  0.00    +0.002 A 
ATOM     36  C   UNL     1      12.335   1.422  -9.275  0.00  0.00    +0.026 A 
ATOM     37  C   UNL     1      11.792   0.289  -8.607  0.00  0.00    +0.043 A 
ATOM     38  N   UNL     1      11.827  -0.990  -8.890  0.00  0.00    -0.380 N 
ATOM     39  C   UNL     1      11.099  -1.720  -7.846  0.00  0.00    +0.144 C 
ATOM     40  H   UNL     1      12.264  -1.388  -9.659  0.00  0.00    +0.160 HD
ENDBRANCH  30  31
ENDBRANCH  25  30
ENDBRANCH  21  22
ENDBRANCH   2  21
TORSDOF 9
