REMARK  Name = ZINC08899517
REMARK  8 active torsions:
REMARK  status: ('A' for Active; 'I' for Inactive)
REMARK    1  A    between atoms: C_1  and  N_2
REMARK    2  A    between atoms: C_5  and  S_16
REMARK    3  A    between atoms: C_7  and  C_9
REMARK    4  A    between atoms: S_16  and  C_17
REMARK    5  A    between atoms: C_17  and  C_18
REMARK    6  A    between atoms: N_20  and  C_21
REMARK    7  A    between atoms: C_21  and  C_22
REMARK    8  A    between atoms: N_31  and  C_34
REMARK                            x       y       z     vdW  Elec       q    Type
REMARK                         _______ _______ _______ _____ _____    ______ ____
ROOT
ATOM      1  C   UNL     1      -6.014   1.627   0.067  0.00  0.00    +0.155 C 
ATOM      2  N   UNL     1      -6.021   3.092   0.076  0.00  0.00    -0.281 N 
ATOM      3  C   UNL     1      -4.827   3.781   0.069  0.00  0.00    +0.154 A 
ATOM      4  C   UNL     1      -4.858   5.190   0.076  0.00  0.00    +0.114 A 
ATOM      5  C   UNL     1      -3.644   5.896   0.069  0.00  0.00    +0.116 A 
ATOM      6  N   UNL     1      -2.510   5.195   0.059  0.00  0.00    -0.220 NA
ATOM      7  C   UNL     1      -2.526   3.869   0.047  0.00  0.00    +0.165 A 
ATOM      8  N   UNL     1      -3.655   3.167   0.054  0.00  0.00    -0.209 NA
ATOM      9  C   UNL     1      -6.160   5.861   0.092  0.00  0.00    +0.268 A 
ATOM     10  O   UNL     1      -6.239   7.075   0.100  0.00  0.00    -0.267 OA
ATOM     11  N   UNL     1      -7.273   5.093   0.098  0.00  0.00    -0.263 N 
ATOM     12  C   UNL     1      -7.192   3.753   0.090  0.00  0.00    +0.333 A 
ATOM     13  O   UNL     1      -8.223   3.109   0.096  0.00  0.00    -0.246 OA
ATOM     14  C   UNL     1      -8.590   5.735   0.113  0.00  0.00    +0.157 C 
ENDROOT
BRANCH   7  15
ATOM     15  C   UNL     1      -1.235   3.142   0.031  0.00  0.00    +0.037 A 
ATOM     16  C   UNL     1      -1.218   1.748   0.017  0.00  0.00    +0.013 A 
ATOM     17  C   UNL     1      -0.013   1.076   0.008  0.00  0.00    +0.001 A 
ATOM     18  C   UNL     1       1.177   1.782   0.000  0.00  0.00    +0.001 A 
ATOM     19  C   UNL     1       1.167   3.165   0.008  0.00  0.00    +0.021 A 
ATOM     20  C   UNL     1      -0.033   3.849   0.023  0.00  0.00    +0.052 A 
ATOM     21 CL   UNL     1      -0.044   5.585   0.033  0.00  0.00    -0.083 Cl
ENDBRANCH   7  15
BRANCH   5  22
ATOM     22  S   UNL     1      -3.620   7.657   0.077  0.00  0.00    -0.096 S 
BRANCH  22  23
ATOM     23  C   UNL     1      -1.833   7.947   0.062  0.00  0.00    +0.171 C 
BRANCH  23  24
ATOM     24  C   UNL     1      -1.565   9.430   0.067  0.00  0.00    +0.224 C 
ATOM     25  O   UNL     1      -2.490  10.214   0.080  0.00  0.00    -0.275 OA
ATOM     26  N   UNL     1      -0.296   9.885   0.058  0.00  0.00    -0.310 N 
ATOM     27  H   UNL     1       0.444   9.259   0.047  0.00  0.00    +0.149 HD
BRANCH  26  28
ATOM     28  C   UNL     1      -0.035  11.327   0.062  0.00  0.00    +0.141 C 
BRANCH  28  29
ATOM     29  C   UNL     1       1.452  11.568   0.050  0.00  0.00    -0.012 A 
ATOM     30  C   UNL     1       2.111  11.884   1.223  0.00  0.00    +0.006 A 
ATOM     31  C   UNL     1       3.476  12.101   1.212  0.00  0.00    +0.000 A 
ATOM     32  C   UNL     1       4.182  12.012   0.026  0.00  0.00    +0.001 A 
ATOM     33  C   UNL     1       3.523  11.702  -1.148  0.00  0.00    +0.020 A 
ATOM     34  C   UNL     1       2.157  11.480  -1.137  0.00  0.00    +0.046 A 
ATOM     35 CL   UNL     1       1.329  11.091  -2.612  0.00  0.00    -0.083 Cl
ENDBRANCH  28  29
ENDBRANCH  26  28
ENDBRANCH  23  24
ENDBRANCH  22  23
ENDBRANCH   5  22
TORSDOF 6
