REMARK  Name = ZINC09581383
REMARK  10 active torsions:
REMARK  status: ('A' for Active; 'I' for Inactive)
REMARK    1  A    between atoms: C_1  and  C_2
REMARK    2  A    between atoms: C_2  and  O_3
REMARK    3  A    between atoms: O_3  and  C_4
REMARK    4  A    between atoms: C_4  and  C_6
REMARK    5  A    between atoms: C_6  and  C_7
REMARK    6  A    between atoms: C_7  and  N_8
REMARK    7  A    between atoms: C_12  and  S_28
REMARK    8  A    between atoms: N_17  and  C_18
REMARK    9  A    between atoms: C_18  and  C_20
REMARK   10  A    between atoms: S_28  and  N_31
REMARK                            x       y       z     vdW  Elec       q    Type
REMARK                         _______ _______ _______ _____ _____    ______ ____
ROOT
ATOM      1  N   UNL     1      -3.906   7.206   0.078  0.00  0.00    -0.321 N 
ATOM      2  C   UNL     1      -5.195   7.706   0.092  0.00  0.00    +0.058 A 
ATOM      3  C   UNL     1      -5.609   9.047   0.103  0.00  0.00    +0.029 A 
ATOM      4  C   UNL     1      -6.945   9.370   0.117  0.00  0.00    +0.030 A 
ATOM      5  C   UNL     1      -7.921   8.388   0.120  0.00  0.00    +0.106 A 
ATOM      6  C   UNL     1      -7.541   7.057   0.110  0.00  0.00    +0.045 A 
ATOM      7  C   UNL     1      -6.205   6.733   0.097  0.00  0.00    +0.041 A 
ATOM      8  S   UNL     1      -5.301   5.206   0.073  0.00  0.00    -0.052 S 
ATOM      9  C   UNL     1      -3.696   5.862   0.069  0.00  0.00    +0.167 A 
ATOM     10  N   UNL     1      -2.539   5.209   0.054  0.00  0.00    -0.152 NA
ENDROOT
BRANCH   5  11
ATOM     11  S   UNL     1      -9.627   8.827   0.138  0.00  0.00    +0.056 S 
ATOM     12  O   UNL     1     -10.326   7.720   0.690  0.00  0.00    -0.153 OA
ATOM     13  O   UNL     1      -9.705  10.132   0.697  0.00  0.00    -0.153 OA
BRANCH  11  14
ATOM     14  N   UNL     1     -10.116   8.958  -1.438  0.00  0.00    -0.204 NA
ATOM     15  H   UNL     1      -9.484   8.797  -2.157  0.00  0.00    +0.144 HD
ATOM     16  H   UNL     1     -11.034   9.195  -1.644  0.00  0.00    +0.144 HD
ENDBRANCH  11  14
ENDBRANCH   5  11
BRANCH  10  17
ATOM     17  C   UNL     1      -2.526   3.872   0.047  0.00  0.00    +0.271 C 
ATOM     18  O   UNL     1      -3.575   3.253   0.054  0.00  0.00    -0.268 OA
BRANCH  17  19
ATOM     19  C   UNL     1      -1.236   3.145   0.031  0.00  0.00    +0.058 A 
ATOM     20  C   UNL     1      -0.033   3.851   0.023  0.00  0.00    +0.034 A 
ATOM     21  C   UNL     1       1.166   3.167   0.008  0.00  0.00    +0.042 A 
ATOM     22  C   UNL     1       1.176   1.782   0.000  0.00  0.00    +0.021 A 
ATOM     23  C   UNL     1      -0.013   1.076   0.008  0.00  0.00    +0.022 A 
ATOM     24  C   UNL     1      -1.219   1.749   0.017  0.00  0.00    +0.053 A 
ATOM     25 CL   UNL     1      -2.711   0.861   0.020  0.00  0.00    -0.083 Cl
ATOM     26 CL   UNL     1       2.664   4.044  -0.001  0.00  0.00    -0.084 Cl
ENDBRANCH  17  19
ENDBRANCH  10  17
BRANCH   1  27
ATOM     27  C   UNL     1      -2.765   8.125   0.073  0.00  0.00    +0.135 C 
BRANCH  27  28
ATOM     28  C   UNL     1      -2.381   8.454  -1.371  0.00  0.00    +0.142 C 
BRANCH  28  29
ATOM     29  C   UNL     1      -1.207   9.399  -1.376  0.00  0.00    +0.309 C 
ATOM     30  O   UNL     1      -0.727   9.772  -0.332  0.00  0.00    -0.251 OA
BRANCH  29  31
ATOM     31  O   UNL     1      -0.695   9.827  -2.541  0.00  0.00    -0.465 OA
BRANCH  31  33
ATOM     32  C   UNL     1       0.877  11.111  -3.886  0.00  0.00    +0.048 C 
ATOM     33  C   UNL     1       0.435  10.736  -2.470  0.00  0.00    +0.229 C 
ENDBRANCH  31  33
ENDBRANCH  29  31
ENDBRANCH  28  29
ENDBRANCH  27  28
ENDBRANCH   1  27
TORSDOF 9
