REMARK  Name = ZINC39695532
REMARK  8 active torsions:
REMARK  status: ('A' for Active; 'I' for Inactive)
REMARK    1  A    between atoms: C_1  and  C_2
REMARK    2  A    between atoms: C_2  and  N_3
REMARK    3  A    between atoms: C_7  and  C_9
REMARK    4  A    between atoms: C_9  and  N_10
REMARK    5  A    between atoms: C_11  and  C_13
REMARK    6  A    between atoms: C_24  and  C_26
REMARK    7  A    between atoms: C_27  and  C_39
REMARK    8  A    between atoms: C_30  and  C_31
REMARK                            x       y       z     vdW  Elec       q    Type
REMARK                         _______ _______ _______ _____ _____    ______ ____
ROOT
ATOM      1  C   UNL     1      -2.883  -1.302  -3.047  0.00  0.00    +0.100 C 
ATOM      2  C   UNL     1      -4.044  -1.837  -2.179  0.00  0.00    +0.121 C 
ATOM      3  N   UNL     1      -5.201  -1.904  -3.103  0.00  0.00    -0.296 N 
ATOM      4  C   UNL     1      -4.626  -2.388  -4.380  0.00  0.00    +0.115 C 
ATOM      5  C   UNL     1      -3.268  -1.666  -4.491  0.00  0.00    -0.004 C 
ATOM      6  C   UNL     1      -2.224  -2.598  -5.097  0.00  0.00    -0.010 C 
ATOM      7  C   UNL     1      -2.598  -2.899  -6.551  0.00  0.00    -0.082 C 
ATOM      8  N   UNL     1      -2.664  -1.645  -7.311  0.00  0.00    +0.379 N 
ATOM      9  C   UNL     1      -3.734  -0.793  -6.779  0.00  0.00    -0.082 C 
ATOM     10  C   UNL     1      -3.408  -0.403  -5.335  0.00  0.00    -0.010 C 
ATOM     11  C   UNL     1      -6.486  -1.594  -2.840  0.00  0.00    +0.252 C 
ATOM     12  O   UNL     1      -7.328  -1.702  -3.711  0.00  0.00    -0.270 OA
ATOM     13  H   UNL     1      -1.782  -1.161  -7.237  0.00  0.00    -0.086 HD
ATOM     14  H   UNL     1      -2.851  -1.851  -8.281  0.00  0.00    -0.086 HD
ENDROOT
BRANCH  11  15
ATOM     15  C   UNL     1      -6.871  -1.124  -1.498  0.00  0.00    +0.106 A 
ATOM     16  C   UNL     1      -6.903   0.170  -1.068  0.00  0.00    +0.147 A 
ATOM     17  O   UNL     1      -7.304   0.177   0.206  0.00  0.00    -0.359 OA
ATOM     18  N   UNL     1      -7.544  -1.149   0.633  0.00  0.00    -0.077 NA
ATOM     19  C   UNL     1      -7.301  -1.959  -0.366  0.00  0.00    +0.130 A 
ATOM     20  C   UNL     1      -6.547   1.383  -1.888  0.00  0.00    +0.090 C 
BRANCH  19  21
ATOM     21  C   UNL     1      -7.430  -3.436  -0.357  0.00  0.00    +0.058 A 
ATOM     22  C   UNL     1      -8.161  -4.082  -1.356  0.00  0.00    +0.134 A 
ATOM     23  C   UNL     1      -8.277  -5.459  -1.342  0.00  0.00    +0.039 A 
ATOM     24  C   UNL     1      -7.671  -6.196  -0.340  0.00  0.00    +0.004 A 
ATOM     25  C   UNL     1      -6.946  -5.562   0.652  0.00  0.00    +0.021 A 
ATOM     26  C   UNL     1      -6.818  -4.186   0.646  0.00  0.00    +0.053 A 
ATOM     27 CL   UNL     1      -5.902  -3.393   1.889  0.00  0.00    -0.083 Cl
ATOM     28  F   UNL     1      -8.753  -3.362  -2.335  0.00  0.00    -0.205 F 
ENDBRANCH  19  21
ENDBRANCH  11  15
BRANCH   1  30
ATOM     29  N   UNL     1      -0.419  -1.324  -2.827  0.00  0.00    -0.317 N 
ATOM     30  C   UNL     1      -1.589  -1.973  -2.664  0.00  0.00    +0.218 C 
ATOM     31  O   UNL     1      -1.601  -3.098  -2.210  0.00  0.00    -0.275 OA
ATOM     32  H   UNL     1      -0.410  -0.425  -3.190  0.00  0.00    +0.149 HD
BRANCH  29  33
ATOM     33  C   UNL     1       0.839  -1.977  -2.454  0.00  0.00    +0.089 C 
BRANCH  33  38
ATOM     34  N   UNL     1       1.971  -0.596  -4.146  0.00  0.00    +0.382 N 
ATOM     35  C   UNL     1       3.210  -1.053  -4.811  0.00  0.00    -0.078 C 
ATOM     36  C   UNL     1       4.237  -1.218  -3.664  0.00  0.00    -0.020 C 
ATOM     37  C   UNL     1       3.345  -1.770  -2.521  0.00  0.00    -0.016 C 
ATOM     38  C   UNL     1       2.007  -1.031  -2.737  0.00  0.00    -0.051 C 
ATOM     39  H   UNL     1       1.171  -1.003  -4.606  0.00  0.00    -0.081 HD
BRANCH  34  41
ATOM     40  C   UNL     1       1.724   1.308  -5.666  0.00  0.00    -0.017 C 
ATOM     41  C   UNL     1       1.887   0.869  -4.209  0.00  0.00    -0.082 C 
ENDBRANCH  34  41
ENDBRANCH  33  38
ENDBRANCH  29  33
ENDBRANCH   1  30
TORSDOF 6
