REMARK  Name = ZINC04258814
REMARK  3 active torsions:
REMARK  status: ('A' for Active; 'I' for Inactive)
REMARK    1  A    between atoms: C_4  and  C_7
REMARK    2  A    between atoms: C_7  and  N_51
REMARK    3  A    between atoms: C_16  and  C_23
REMARK                            x       y       z     vdW  Elec       q    Type
REMARK                         _______ _______ _______ _____ _____    ______ ____
ROOT
ATOM      1  C   UNL     1      -1.687   1.216   1.693  0.00  0.00    -0.073 C 
ATOM      2  C   UNL     1      -2.587   1.403   0.480  0.00  0.00    -0.007 C 
ATOM      3  C   UNL     1      -1.908   0.872  -0.786  0.00  0.00    +0.011 C 
ATOM      4  C   UNL     1      -0.571   1.607  -0.936  0.00  0.00    +0.020 C 
ATOM      5  C   UNL     1       0.291   1.283   0.295  0.00  0.00    -0.069 C 
ATOM      6  C   UNL     1      -0.822   3.098  -0.937  0.00  0.00    +0.031 A 
ATOM      7  C   UNL     1       0.062   3.889  -1.624  0.00  0.00    +0.002 A 
ATOM      8  C   UNL     1      -0.086   5.290  -1.616  0.00  0.00    +0.015 A 
ATOM      9  C   UNL     1      -1.092   5.839  -0.880  0.00  0.00    +0.071 A 
ATOM     10  C   UNL     1      -1.967   4.997  -0.178  0.00  0.00    +0.252 A 
ATOM     11  O   UNL     1      -2.827   5.484   0.537  0.00  0.00    -0.268 OA
ATOM     12  N   UNL     1      -1.870   3.649  -0.285  0.00  0.00    -0.311 N 
ATOM     13  C   UNL     1      -2.967   2.859   0.277  0.00  0.00    +0.126 C 
ATOM     14  N   UNL     1      -0.380   1.872   1.475  0.00  0.00    +0.383 N 
ATOM     15  H   UNL     1      -0.534   2.873   1.306  0.00  0.00    -0.081 HD
ENDROOT
BRANCH   7  16
ATOM     16  C   UNL     1       1.177   3.267  -2.380  0.00  0.00    -0.016 A 
ATOM     17  C   UNL     1       2.493   3.448  -1.959  0.00  0.00    +0.008 A 
ATOM     18  C   UNL     1       3.526   2.863  -2.662  0.00  0.00    +0.001 A 
ATOM     19  C   UNL     1       3.259   2.108  -3.790  0.00  0.00    +0.000 A 
ATOM     20  C   UNL     1       1.954   1.930  -4.216  0.00  0.00    +0.001 A 
ATOM     21  C   UNL     1       0.913   2.506  -3.516  0.00  0.00    +0.008 A 
ENDBRANCH   7  16
BRANCH  14  22
ATOM     22  C   UNL     1       0.471   1.713   2.672  0.00  0.00    -0.043 C 
BRANCH  22  26
ATOM     23  C   UNL     1       3.948   4.152   2.221  0.00  0.00    +0.000 A 
ATOM     24  C   UNL     1       2.808   4.675   2.803  0.00  0.00    +0.000 A 
ATOM     25  C   UNL     1       1.683   3.885   2.949  0.00  0.00    +0.002 A 
ATOM     26  C   UNL     1       1.697   2.573   2.513  0.00  0.00    -0.064 A 
ATOM     27  C   UNL     1       2.839   2.050   1.935  0.00  0.00    +0.002 A 
ATOM     28  C   UNL     1       3.962   2.840   1.785  0.00  0.00    +0.000 A 
ENDBRANCH  22  26
ENDBRANCH  14  22
TORSDOF 3
