REMARK  Name = ZINC26786728
REMARK  8 active torsions:
REMARK  status: ('A' for Active; 'I' for Inactive)
REMARK    1  A    between atoms: C_1  and  O_2
REMARK    2  A    between atoms: O_2  and  C_3
REMARK    3  A    between atoms: C_6  and  S_9
REMARK    4  A    between atoms: S_9  and  N_12
REMARK    5  A    between atoms: C_15  and  N_24
REMARK    6  A    between atoms: N_24  and  N_25
REMARK    7  A    between atoms: C_26  and  C_28
REMARK    8  A    between atoms: C_31  and  N_34
REMARK                            x       y       z     vdW  Elec       q    Type
REMARK                         _______ _______ _______ _____ _____    ______ ____
ROOT
ATOM      1  N   UNL     1      -4.024  10.265   0.081  0.00  0.00    -0.129 NA
ATOM      2  C   UNL     1      -5.167   9.636   0.156  0.00  0.00    +0.091 C 
ATOM      3  C   UNL     1      -5.196   8.169   0.125  0.00  0.00    +0.058 C 
ATOM      4  C   UNL     1      -6.379   7.521   0.204  0.00  0.00    +0.094 C 
ATOM      5  C   UNL     1      -7.630   8.293   0.315  0.00  0.00    +0.205 C 
ATOM      6  O   UNL     1      -8.696   7.710   0.383  0.00  0.00    -0.286 OA
ATOM      7  C   UNL     1      -7.598   9.765   0.351  0.00  0.00    +0.010 C 
ATOM      8  C   UNL     1      -6.426  10.408   0.272  0.00  0.00    -0.010 C 
ATOM      9  C   UNL     1      -6.345  11.910   0.297  0.00  0.00    +0.064 C 
ATOM     10  C   UNL     1      -7.562  12.515   0.923  0.00  0.00    -0.026 C 
ATOM     11  C   UNL     1      -8.698  11.892   1.000  0.00  0.00    -0.026 C 
ATOM     12  C   UNL     1      -8.900  10.507   0.470  0.00  0.00    +0.066 C 
ENDROOT
BRANCH   1  13
ATOM     13  S   UNL     1      -3.921  11.702  -0.735  0.00  0.00    +0.099 S 
ATOM     14  O   UNL     1      -4.905  11.659  -1.759  0.00  0.00    -0.146 OA
ATOM     15  O   UNL     1      -3.891  12.726   0.250  0.00  0.00    -0.146 OA
BRANCH  13  19
ATOM     16  C   UNL     1       0.103  11.783  -2.809  0.00  0.00    +0.120 A 
ATOM     17  C   UNL     1      -1.003  11.256  -3.459  0.00  0.00    +0.047 A 
ATOM     18  C   UNL     1      -2.230  11.232  -2.824  0.00  0.00    +0.032 A 
ATOM     19  C   UNL     1      -2.356  11.733  -1.542  0.00  0.00    +0.113 A 
ATOM     20  C   UNL     1      -1.256  12.264  -0.894  0.00  0.00    +0.032 A 
ATOM     21  C   UNL     1      -0.025  12.284  -1.522  0.00  0.00    +0.047 A 
BRANCH  16  23
ATOM     22  C   UNL     1       2.406  12.364  -2.702  0.00  0.00    +0.277 C 
ATOM     23  O   UNL     1       1.311  11.807  -3.432  0.00  0.00    -0.495 OA
ENDBRANCH  16  23
ENDBRANCH  13  19
ENDBRANCH   1  13
BRANCH   4  24
ATOM     24  N   UNL     1      -6.417   6.133   0.175  0.00  0.00    -0.261 N 
ATOM     25  H   UNL     1      -7.381   5.607   0.240  0.00  0.00    +0.170 HD
BRANCH  24  26
ATOM     26  N   UNL     1      -5.227   5.402   0.064  0.00  0.00    -0.232 N 
ATOM     27  C   UNL     1      -5.263   4.055   0.035  0.00  0.00    +0.260 C 
ATOM     28  O   UNL     1      -6.329   3.474   0.107  0.00  0.00    -0.269 OA
ATOM     29  H   UNL     1      -4.263   5.927  -0.001  0.00  0.00    +0.173 HD
BRANCH  27  30
ATOM     30  C   UNL     1      -4.007   3.284  -0.082  0.00  0.00    +0.038 A 
ATOM     31  C   UNL     1      -4.042   1.889  -0.112  0.00  0.00    +0.015 A 
ATOM     32  C   UNL     1      -2.866   1.175  -0.222  0.00  0.00    +0.033 A 
ATOM     33  C   UNL     1      -1.655   1.839  -0.304  0.00  0.00    +0.126 A 
ATOM     34  C   UNL     1      -1.614   3.222  -0.270  0.00  0.00    +0.033 A 
ATOM     35  C   UNL     1      -2.782   3.947  -0.165  0.00  0.00    +0.015 A 
BRANCH  33  36
ATOM     36  N   UNL     1      -0.398   1.067  -0.421  0.00  0.00    +0.056 N 
ATOM     37  O   UNL     1      -0.431  -0.150  -0.447  0.00  0.00    -0.126 OA
ATOM     38  O   UNL     1       0.669   1.649  -0.498  0.00  0.00    -0.126 OA
ENDBRANCH  33  36
ENDBRANCH  27  30
ENDBRANCH  24  26
ENDBRANCH   4  24
TORSDOF 7
