REMARK  Name = ZINC28558493
REMARK  5 active torsions:
REMARK  status: ('A' for Active; 'I' for Inactive)
REMARK    1  A    between atoms: C_1  and  C_2
REMARK    2  A    between atoms: C_2  and  C_3
REMARK    3  A    between atoms: C_3  and  S_4
REMARK    4  A    between atoms: S_4  and  N_7
REMARK    5  A    between atoms: N_23  and  C_24
REMARK                            x       y       z     vdW  Elec       q    Type
REMARK                         _______ _______ _______ _____ _____    ______ ____
ROOT
ATOM      1  N   UNL     1      -3.607  -1.722  -0.935  0.00  0.00    -0.178 NA
ATOM      2  C   UNL     1      -3.595  -0.665   0.088  0.00  0.00    +0.128 C 
ATOM      3  C   UNL     1      -2.310   0.153  -0.073  0.00  0.00    +0.125 C 
ATOM      4  N   UNL     1      -1.152  -0.750  -0.046  0.00  0.00    -0.298 N 
ATOM      5  C   UNL     1      -1.182  -1.689  -1.176  0.00  0.00    +0.125 C 
ATOM      6  C   UNL     1      -2.421  -2.583  -1.060  0.00  0.00    +0.128 C 
ATOM      7  C   UNL     1       0.024  -0.042  -0.026  0.00  0.00    +0.201 A 
ATOM      8  N   UNL     1       0.288   0.757  -1.028  0.00  0.00    -0.215 NA
ATOM      9  C   UNL     1       1.431   1.485  -1.072  0.00  0.00    +0.083 A 
ATOM     10  C   UNL     1       1.712   2.337  -2.140  0.00  0.00    +0.078 A 
ATOM     11  C   UNL     1       2.889   3.064  -2.152  0.00  0.00    +0.164 A 
ATOM     12  C   UNL     1       3.801   2.954  -1.098  0.00  0.00    +0.163 A 
ATOM     13  C   UNL     1       3.540   2.116  -0.033  0.00  0.00    +0.064 A 
ATOM     14  C   UNL     1       2.357   1.376  -0.009  0.00  0.00    +0.069 A 
ATOM     15  C   UNL     1       2.034   0.472   1.101  0.00  0.00    +0.263 A 
ATOM     16  O   UNL     1       2.791   0.335   2.044  0.00  0.00    -0.267 OA
ATOM     17  N   UNL     1       0.864  -0.205   1.038  0.00  0.00    -0.283 N 
ATOM     18  C   UNL     1       0.494  -1.119   2.121  0.00  0.00    +0.155 C 
ATOM     19  O   UNL     1       4.959   3.672  -1.104  0.00  0.00    -0.485 OA
ATOM     20  C   UNL     1       5.369   4.222  -2.360  0.00  0.00    +0.270 C 
ATOM     21  C   UNL     1       4.150   4.885  -3.015  0.00  0.00    +0.270 C 
ATOM     22  O   UNL     1       3.144   3.885  -3.206  0.00  0.00    -0.485 OA
ENDROOT
BRANCH   1  23
ATOM     23  S   UNL     1      -4.922  -1.938  -1.919  0.00  0.00    +0.032 S 
ATOM     24  O   UNL     1      -4.872  -3.307  -2.296  0.00  0.00    -0.158 OA
ATOM     25  O   UNL     1      -6.020  -1.431  -1.173  0.00  0.00    -0.158 OA
BRANCH  23  26
ATOM     26  C   UNL     1      -4.604  -0.882  -3.359  0.00  0.00    +0.185 C 
BRANCH  26  28
ATOM     27  C   UNL     1      -5.498  -0.111  -5.561  0.00  0.00    +0.005 C 
ATOM     28  C   UNL     1      -5.766  -1.002  -4.346  0.00  0.00    +0.021 C 
ENDBRANCH  26  28
ENDBRANCH  23  26
ENDBRANCH   1  23
TORSDOF 3
