REMARK  Name = ZINC14475587
REMARK  7 active torsions:
REMARK  status: ('A' for Active; 'I' for Inactive)
REMARK    1  A    between atoms: C_1  and  O_2
REMARK    2  A    between atoms: O_2  and  C_3
REMARK    3  A    between atoms: C_3  and  C_4
REMARK    4  A    between atoms: C_4  and  C_5
REMARK    5  A    between atoms: C_5  and  N_6
REMARK    6  A    between atoms: C_7  and  C_9
REMARK    7  A    between atoms: C_22  and  C_25
REMARK                            x       y       z     vdW  Elec       q    Type
REMARK                         _______ _______ _______ _____ _____    ______ ____
ROOT
ATOM      1  C   UNL     1      -1.529   2.271   3.257  0.00  0.00    +0.037 A 
ATOM      2  C   UNL     1      -2.887   2.254   2.925  0.00  0.00    +0.015 A 
ATOM      3  C   UNL     1      -3.281   1.874   1.664  0.00  0.00    +0.024 A 
ATOM      4  C   UNL     1      -2.338   1.504   0.709  0.00  0.00    +0.031 A 
ATOM      5  C   UNL     1      -0.982   1.526   1.035  0.00  0.00    -0.019 A 
ATOM      6  C   UNL     1      -0.579   1.894   2.304  0.00  0.00    +0.019 A 
ATOM      7  C   UNL     1      -0.013   1.086   0.008  0.00  0.00    +0.049 C 
ATOM      8  C   UNL     1       1.393   1.565  -0.003  0.00  0.00    -0.023 C 
ATOM      9  C   UNL     1       1.810   1.625  -1.262  0.00  0.00    -0.030 C 
ATOM     10  C   UNL     1       0.680   1.215  -2.208  0.00  0.00    +0.033 C 
ATOM     11  C   UNL     1      -0.561   1.557  -1.372  0.00  0.00    +0.029 C 
ATOM     12  C   UNL     1      -1.810   0.730  -1.614  0.00  0.00    +0.105 C 
ATOM     13  N   UNL     1      -2.769   1.140  -0.566  0.00  0.00    -0.336 N 
ATOM     14  H   UNL     1      -3.718   1.156  -0.769  0.00  0.00    +0.147 HD
ENDROOT
BRANCH  12  15
ATOM     15  C   UNL     1      -2.374   1.025  -2.980  0.00  0.00    -0.026 A 
ATOM     16  C   UNL     1      -3.148   2.168  -3.171  0.00  0.00    +0.006 A 
ATOM     17  C   UNL     1      -3.668   2.467  -4.393  0.00  0.00    +0.009 A 
ATOM     18  C   UNL     1      -3.431   1.607  -5.478  0.00  0.00    -0.018 A 
ATOM     19  C   UNL     1      -3.956   1.879  -6.753  0.00  0.00    +0.008 A 
ATOM     20  C   UNL     1      -3.706   1.023  -7.781  0.00  0.00    +0.001 A 
ATOM     21  C   UNL     1      -2.936  -0.123  -7.589  0.00  0.00    +0.001 A 
ATOM     22  C   UNL     1      -2.412  -0.419  -6.369  0.00  0.00    +0.008 A 
ATOM     23  C   UNL     1      -2.648   0.442  -5.283  0.00  0.00    -0.018 A 
ATOM     24  C   UNL     1      -2.124   0.169  -4.008  0.00  0.00    +0.014 A 
ENDBRANCH  12  15
BRANCH   1  26
ATOM     25  N   UNL     1      -2.021   3.048   5.523  0.00  0.00    -0.311 N 
ATOM     26  C   UNL     1      -1.102   2.686   4.607  0.00  0.00    +0.244 C 
ATOM     27  O   UNL     1       0.080   2.700   4.893  0.00  0.00    -0.270 OA
ATOM     28  H   UNL     1      -2.964   3.037   5.295  0.00  0.00    +0.149 HD
BRANCH  25  29
ATOM     29  C   UNL     1      -1.596   3.459   6.864  0.00  0.00    +0.107 C 
BRANCH  29  30
ATOM     30  C   UNL     1      -2.826   3.817   7.701  0.00  0.00    +0.047 C 
BRANCH  30  31
ATOM     31  C   UNL     1      -2.383   4.247   9.101  0.00  0.00    +0.161 C 
BRANCH  31  33
ATOM     32  C   UNL     1      -3.226   4.997  11.215  0.00  0.00    +0.193 C 
ATOM     33  O   UNL     1      -3.531   4.581   9.883  0.00  0.00    -0.383 OA
ENDBRANCH  31  33
ENDBRANCH  30  31
ENDBRANCH  29  30
ENDBRANCH  25  29
ENDBRANCH   1  26
TORSDOF 6
