REMARK  Name = ZINC03975459
REMARK  10 active torsions:
REMARK  status: ('A' for Active; 'I' for Inactive)
REMARK    1  A    between atoms: C_1  and  C_2
REMARK    2  A    between atoms: C_3  and  C_19
REMARK    3  A    between atoms: C_4  and  C_11
REMARK    4  A    between atoms: N_9  and  C_10
REMARK    5  A    between atoms: N_21  and  C_22
REMARK    6  A    between atoms: C_22  and  C_23
REMARK    7  A    between atoms: C_23  and  C_24
REMARK    8  A    between atoms: C_24  and  N_69
REMARK    9  A    between atoms: C_27  and  C_30
REMARK   10  A    between atoms: C_35  and  C_36
REMARK                            x       y       z     vdW  Elec       q    Type
REMARK                         _______ _______ _______ _____ _____    ______ ____
ROOT
ATOM      1  C   UNL     1      -2.961  -3.902   0.553  0.00  0.00    +0.242 C 
ATOM      2  O   UNL     1      -2.039  -4.680   0.390  0.00  0.00    -0.270 OA
ATOM      3  N   UNL     1      -2.738  -2.574   0.508  0.00  0.00    -0.312 N 
ATOM      4  H   UNL     1      -3.473  -1.954   0.638  0.00  0.00    +0.149 HD
ENDROOT
BRANCH   1   7
ATOM      5  C   UNL     1      -3.386  -6.658   0.383  0.00  0.00    +0.061 C 
ATOM      6  C   UNL     1      -4.512  -5.713   0.716  0.00  0.00    +0.019 C 
ATOM      7  C   UNL     1      -4.270  -4.393   0.789  0.00  0.00    +0.039 C 
ATOM      8  C   UNL     1      -5.383  -3.432   1.116  0.00  0.00    +0.064 C 
ATOM      9  C   UNL     1      -6.359  -4.096   2.089  0.00  0.00    +0.109 C 
ATOM     10  C   UNL     1      -6.693  -5.480   1.596  0.00  0.00    +0.220 C 
ATOM     11  O   UNL     1      -7.800  -5.938   1.785  0.00  0.00    -0.275 OA
ATOM     12  N   UNL     1      -5.769  -6.211   0.947  0.00  0.00    -0.278 N 
ATOM     13  C   UNL     1      -6.110  -7.556   0.475  0.00  0.00    +0.138 C 
BRANCH   8  14
ATOM     14  C   UNL     1      -6.112  -3.059  -0.150  0.00  0.00    -0.036 A 
ATOM     15  C   UNL     1      -6.164  -1.737  -0.552  0.00  0.00    +0.007 A 
ATOM     16  C   UNL     1      -6.832  -1.392  -1.712  0.00  0.00    +0.041 A 
ATOM     17  C   UNL     1      -7.448  -2.370  -2.473  0.00  0.00    +0.158 A 
ATOM     18  C   UNL     1      -7.396  -3.696  -2.069  0.00  0.00    +0.159 A 
ATOM     19  C   UNL     1      -6.722  -4.039  -0.910  0.00  0.00    +0.045 A 
ATOM     20  F   UNL     1      -7.997  -4.653  -2.810  0.00  0.00    -0.202 F 
ATOM     21  F   UNL     1      -8.101  -2.034  -3.607  0.00  0.00    -0.202 F 
ENDBRANCH   8  14
ENDBRANCH   1   7
BRANCH   3  22
ATOM     22  C   UNL     1      -1.386  -2.066   0.263  0.00  0.00    +0.102 C 
BRANCH  22  23
ATOM     23  C   UNL     1      -1.408  -0.536   0.262  0.00  0.00    +0.000 C 
BRANCH  23  24
ATOM     24  C   UNL     1       0.005  -0.006   0.007  0.00  0.00    -0.077 C 
BRANCH  24  30
ATOM     25  C   UNL     1      -0.798   1.977  -1.126  0.00  0.00    -0.078 C 
ATOM     26  C   UNL     1      -0.920   3.498  -1.014  0.00  0.00    -0.011 C 
ATOM     27  C   UNL     1       0.479   4.119  -1.013  0.00  0.00    +0.017 C 
ATOM     28  C   UNL     1       1.289   3.531   0.146  0.00  0.00    -0.011 C 
ATOM     29  C   UNL     1       1.347   2.009   0.001  0.00  0.00    -0.078 C 
ATOM     30  N   UNL     1      -0.030   1.471   0.031  0.00  0.00    +0.380 N 
ATOM     31  H   UNL     1      -0.489   1.779   0.896  0.00  0.00    -0.082 HD
BRANCH  27  32
ATOM     32  C   UNL     1       0.368   5.612  -0.843  0.00  0.00    -0.027 A 
ATOM     33  C   UNL     1      -0.240   6.136   0.280  0.00  0.00    +0.008 A 
ATOM     34  C   UNL     1      -0.339   7.506   0.442  0.00  0.00    +0.039 A 
ATOM     35  C   UNL     1       0.161   8.362  -0.527  0.00  0.00    +0.125 A 
ATOM     36  C   UNL     1       0.766   7.850  -1.658  0.00  0.00    +0.057 A 
ATOM     37  C   UNL     1       0.874   6.468  -1.823  0.00  0.00    +0.058 A 
ATOM     38  F   UNL     1       0.055   9.699  -0.365  0.00  0.00    -0.205 F 
BRANCH  37  39
ATOM     39  C   UNL     1       1.500   5.929  -2.993  0.00  0.00    +0.100 C 
ATOM     40  N   UNL     1       1.997   5.502  -3.921  0.00  0.00    -0.191 NA
ENDBRANCH  37  39
ENDBRANCH  27  32
ENDBRANCH  24  30
ENDBRANCH  23  24
ENDBRANCH  22  23
ENDBRANCH   3  22
TORSDOF 8
