REMARK  Name = ZINC09293707
REMARK  12 active torsions:
REMARK  status: ('A' for Active; 'I' for Inactive)
REMARK    1  A    between atoms: C_1  and  C_2
REMARK    2  A    between atoms: C_5  and  S_8
REMARK    3  A    between atoms: S_8  and  N_11
REMARK    4  A    between atoms: N_11  and  C_12
REMARK    5  A    between atoms: C_17  and  C_18
REMARK    6  A    between atoms: C_18  and  N_20
REMARK    7  A    between atoms: N_22  and  C_32
REMARK    8  A    between atoms: C_25  and  C_31
REMARK    9  A    between atoms: C_26  and  C_30
REMARK   10  A    between atoms: C_32  and  C_33
REMARK   11  A    between atoms: C_33  and  O_34
REMARK   12  A    between atoms: O_34  and  C_35
REMARK                            x       y       z     vdW  Elec       q    Type
REMARK                         _______ _______ _______ _____ _____    ______ ____
ROOT
ATOM      1  C   UNL     1       0.565   2.991   0.302  0.00  0.00    +0.060 A 
ATOM      2  C   UNL     1       1.806   2.392   0.476  0.00  0.00    +0.025 A 
ATOM      3  C   UNL     1       1.909   1.016   0.518  0.00  0.00    +0.002 A 
ATOM      4  C   UNL     1       0.780   0.224   0.387  0.00  0.00    +0.001 A 
ATOM      5  C   UNL     1      -0.459   0.802   0.213  0.00  0.00    +0.015 A 
ATOM      6  C   UNL     1      -0.579   2.192   0.169  0.00  0.00    +0.061 A 
ENDROOT
BRANCH   1   7
ATOM      7  N   UNL     1       0.458   4.376   0.260  0.00  0.00    -0.216 N 
ATOM      8  H   UNL     1      -0.317   4.815   0.643  0.00  0.00    +0.174 HD
BRANCH   7   9
ATOM      9  S   UNL     1       1.655   5.278  -0.445  0.00  0.00    +0.072 S 
ATOM     10  O   UNL     1       1.210   6.627  -0.430  0.00  0.00    -0.150 OA
ATOM     11  O   UNL     1       2.877   4.872   0.156  0.00  0.00    -0.150 OA
BRANCH   9  16
ATOM     12  C   UNL     1       1.955   3.626  -6.241  0.00  0.00    +0.044 C 
ATOM     13  C   UNL     1       1.880   4.038  -4.793  0.00  0.00    -0.050 A 
ATOM     14  C   UNL     1       1.044   5.071  -4.411  0.00  0.00    +0.005 A 
ATOM     15  C   UNL     1       0.976   5.449  -3.083  0.00  0.00    +0.029 A 
ATOM     16  C   UNL     1       1.743   4.795  -2.138  0.00  0.00    +0.109 A 
ATOM     17  C   UNL     1       2.582   3.766  -2.521  0.00  0.00    +0.029 A 
ATOM     18  C   UNL     1       2.647   3.384  -3.848  0.00  0.00    +0.005 A 
ENDBRANCH   9  16
ENDBRANCH   7   9
ENDBRANCH   1   7
BRANCH   6  19
ATOM     19  C   UNL     1      -1.905   2.817  -0.023  0.00  0.00    +0.271 C 
ATOM     20  O   UNL     1      -2.006   4.032  -0.061  0.00  0.00    -0.268 OA
BRANCH  19  21
ATOM     21  N   UNL     1      -2.993   2.051  -0.156  0.00  0.00    -0.152 NA
ATOM     22  C   UNL     1      -4.184   2.613  -0.329  0.00  0.00    +0.167 A 
ATOM     23  N   UNL     1      -5.391   2.003  -0.480  0.00  0.00    -0.319 N 
ATOM     24  C   UNL     1      -6.534   2.762  -0.651  0.00  0.00    +0.058 A 
ATOM     25  C   UNL     1      -7.855   2.320  -0.821  0.00  0.00    +0.030 A 
ATOM     26  C   UNL     1      -8.883   3.220  -0.980  0.00  0.00    -0.046 A 
ATOM     27  C   UNL     1      -8.649   4.585  -0.975  0.00  0.00    -0.046 A 
ATOM     28  C   UNL     1      -7.355   5.048  -0.808  0.00  0.00    +0.020 A 
ATOM     29  C   UNL     1      -6.327   4.149  -0.651  0.00  0.00    +0.039 A 
ATOM     30  S   UNL     1      -4.575   4.301  -0.408  0.00  0.00    -0.052 S 
ATOM     31  C   UNL     1      -9.789   5.555  -1.149  0.00  0.00    +0.044 C 
ATOM     32  C   UNL     1     -10.290   2.712  -1.161  0.00  0.00    +0.044 C 
BRANCH  23  33
ATOM     33  C   UNL     1      -5.479   0.541  -0.463  0.00  0.00    +0.152 C 
BRANCH  33  34
ATOM     34  C   UNL     1      -4.250  -0.052  -1.153  0.00  0.00    +0.181 C 
BRANCH  34  35
ATOM     35  O   UNL     1      -4.400  -1.470  -1.258  0.00  0.00    -0.381 OA
ATOM     36  C   UNL     1      -3.300  -2.125  -1.892  0.00  0.00    +0.194 C 
ENDBRANCH  34  35
ENDBRANCH  33  34
ENDBRANCH  23  33
ENDBRANCH  19  21
ENDBRANCH   6  19
TORSDOF 8
