REMARK  Name = ZINC36378146
REMARK  3 active torsions:
REMARK  status: ('A' for Active; 'I' for Inactive)
REMARK    1  A    between atoms: C_3  and  C_8
REMARK    2  A    between atoms: C_9  and  C_20
REMARK    3  A    between atoms: C_14  and  C_16
REMARK                            x       y       z     vdW  Elec       q    Type
REMARK                         _______ _______ _______ _____ _____    ______ ____
ROOT
ATOM      1  C   UNL     1       3.150   2.075  -0.937  0.00  0.00    -0.002 C 
ATOM      2  C   UNL     1       2.706   2.728   0.199  0.00  0.00    +0.094 C 
ATOM      3  C   UNL     1       3.675   3.318   1.126  0.00  0.00    +0.124 C 
ATOM      4  N   UNL     1       4.976   3.260   0.934  0.00  0.00    -0.195 NA
ATOM      5  C   UNL     1       5.531   2.663  -0.116  0.00  0.00    +0.092 C 
ATOM      6  S   UNL     1       7.234   2.633  -0.290  0.00  0.00    -0.037 S 
ATOM      7  C   UNL     1       4.649   2.005  -1.152  0.00  0.00    +0.160 C 
ATOM      8  N   UNL     1       3.207   3.958   2.242  0.00  0.00    -0.344 N 
ATOM      9  H   UNL     1       2.252   4.013   2.405  0.00  0.00    +0.144 HD
ATOM     10  H   UNL     1       3.830   4.356   2.870  0.00  0.00    +0.144 HD
ENDROOT
BRANCH   1  13
ATOM     11  C   UNL     1       1.208   1.417  -4.074  0.00  0.00    +0.002 A 
ATOM     12  C   UNL     1       2.092   1.990  -3.185  0.00  0.00    +0.008 A 
ATOM     13  C   UNL     1       2.211   1.472  -1.889  0.00  0.00    -0.018 A 
ATOM     14  C   UNL     1       1.428   0.375  -1.507  0.00  0.00    +0.023 A 
ATOM     15  C   UNL     1       0.549  -0.186  -2.409  0.00  0.00    +0.018 A 
ATOM     16  C   UNL     1       0.438   0.333  -3.689  0.00  0.00    +0.015 A 
ATOM     17 BR   UNL     1      -0.510  -1.667  -1.897  0.00  0.00    -0.050 Br
ENDBRANCH   1  13
BRANCH   7  18
ATOM     18  C   UNL     1       5.035   0.551  -1.240  0.00  0.00    +0.224 C 
ATOM     19  O   UNL     1       4.484  -0.267  -0.534  0.00  0.00    -0.275 OA
ATOM     20  N   UNL     1       5.993   0.159  -2.103  0.00  0.00    -0.328 N 
ATOM     21  H   UNL     1       6.433   0.813  -2.669  0.00  0.00    +0.145 HD
ATOM     22  H   UNL     1       6.242  -0.777  -2.160  0.00  0.00    +0.145 HD
ENDBRANCH   7  18
BRANCH   2  23
ATOM     23  C   UNL     1       1.303   2.827   0.468  0.00  0.00    +0.103 C 
ATOM     24  N   UNL     1       0.190   2.906   0.681  0.00  0.00    -0.191 NA
ENDBRANCH   2  23
TORSDOF 3
