REMARK  Name = ZINC36593799
REMARK  14 active torsions:
REMARK  status: ('A' for Active; 'I' for Inactive)
REMARK    1  A    between atoms: C_1  and  C_2
REMARK    2  A    between atoms: C_5  and  S_8
REMARK    3  A    between atoms: S_8  and  C_11
REMARK    4  A    between atoms: C_11  and  N_12
REMARK    5  A    between atoms: C_13  and  C_15
REMARK    6  A    between atoms: C_15  and  C_17
REMARK    7  A    between atoms: C_15  and  N_24
REMARK    8  A    between atoms: C_20  and  O_23
REMARK    9  A    between atoms: N_24  and  C_34
REMARK   10  A    between atoms: C_25  and  C_27
REMARK   11  A    between atoms: C_27  and  C_28
REMARK   12  A    between atoms: C_34  and  C_35
REMARK   13  A    between atoms: C_34  and  C_36
REMARK   14  A    between atoms: C_34  and  C_37
REMARK                            x       y       z     vdW  Elec       q    Type
REMARK                         _______ _______ _______ _____ _____    ______ ____
ROOT
ATOM      1  C   UNL     1       3.655  -4.764   3.895  0.00  0.00    +0.193 C 
ENDROOT
BRANCH   1   2
ATOM      2  C   UNL     1       3.884  -3.567   4.781  0.00  0.00    -0.018 A 
ATOM      3  C   UNL     1       3.091  -3.373   5.897  0.00  0.00    +0.009 A 
ATOM      4  C   UNL     1       3.299  -2.276   6.711  0.00  0.00    +0.046 A 
ATOM      5  C   UNL     1       4.304  -1.369   6.408  0.00  0.00    +0.117 A 
ATOM      6  C   UNL     1       5.098  -1.566   5.288  0.00  0.00    +0.046 A 
ATOM      7  C   UNL     1       4.890  -2.667   4.480  0.00  0.00    +0.009 A 
BRANCH   5   8
ATOM      8  O   UNL     1       4.510  -0.289   7.207  0.00  0.00    -0.507 OA
ATOM      9  H   UNL     1       5.139  -0.445   7.925  0.00  0.00    +0.292 HD
ENDBRANCH   5   8
ENDBRANCH   1   2
BRANCH   1  11
ATOM     10  N   UNL     1       3.620  -3.344   1.870  0.00  0.00    -0.294 N 
ATOM     11  C   UNL     1       3.034  -4.316   2.597  0.00  0.00    +0.239 C 
ATOM     12  O   UNL     1       2.008  -4.831   2.206  0.00  0.00    -0.273 OA
ATOM     13  H   UNL     1       4.441  -2.933   2.182  0.00  0.00    +0.150 HD
BRANCH  10  14
ATOM     14  C   UNL     1       3.016  -2.909   0.608  0.00  0.00    +0.278 C 
BRANCH  14  15
ATOM     15  S   UNL     1       1.970  -1.457   0.907  0.00  0.00    +0.013 S 
ATOM     16  O   UNL     1       1.132  -1.682   2.032  0.00  0.00    -0.168 OA
ATOM     17  O   UNL     1       1.427  -0.985  -0.318  0.00  0.00    -0.168 OA
BRANCH  15  22
ATOM     18  C   UNL     1       5.786   2.871   2.670  0.00  0.00    +0.044 C 
ATOM     19  C   UNL     1       4.833   1.790   2.229  0.00  0.00    -0.050 A 
ATOM     20  C   UNL     1       4.540   1.631   0.888  0.00  0.00    +0.005 A 
ATOM     21  C   UNL     1       3.666   0.640   0.484  0.00  0.00    +0.027 A 
ATOM     22  C   UNL     1       3.085  -0.194   1.421  0.00  0.00    +0.090 A 
ATOM     23  C   UNL     1       3.379  -0.036   2.763  0.00  0.00    +0.027 A 
ATOM     24  C   UNL     1       4.256   0.953   3.166  0.00  0.00    +0.005 A 
ENDBRANCH  15  22
ENDBRANCH  14  15
ENDBRANCH  10  14
ENDBRANCH   1  11
BRANCH   1  25
ATOM     25  N   UNL     1       2.756  -5.705   4.567  0.00  0.00    -0.281 N 
ATOM     26  C   UNL     1       1.462  -5.381   4.759  0.00  0.00    +0.221 C 
ATOM     27  O   UNL     1       1.049  -4.297   4.403  0.00  0.00    -0.275 OA
BRANCH  25  28
ATOM     28  C   UNL     1       3.264  -6.998   5.032  0.00  0.00    +0.030 C 
ATOM     29  C   UNL     1       4.793  -6.974   5.036  0.00  0.00    +0.031 C 
ATOM     30  C   UNL     1       2.754  -7.267   6.449  0.00  0.00    +0.031 C 
ATOM     31  C   UNL     1       2.774  -8.104   4.096  0.00  0.00    +0.031 C 
ENDBRANCH  25  28
BRANCH  26  32
ATOM     32  C   UNL     1       0.528  -6.364   5.415  0.00  0.00    +0.131 C 
BRANCH  32  33
ATOM     33  C   UNL     1      -0.885  -5.845   5.336  0.00  0.00    -0.039 A 
ATOM     34  C   UNL     1      -1.383  -5.043   6.346  0.00  0.00    +0.004 A 
ATOM     35  C   UNL     1      -2.679  -4.567   6.274  0.00  0.00    +0.000 A 
ATOM     36  C   UNL     1      -3.476  -4.892   5.192  0.00  0.00    +0.000 A 
ATOM     37  C   UNL     1      -2.977  -5.693   4.182  0.00  0.00    +0.000 A 
ATOM     38  C   UNL     1      -1.680  -6.166   4.252  0.00  0.00    +0.004 A 
ENDBRANCH  32  33
ENDBRANCH  26  32
ENDBRANCH   1  25
TORSDOF 10
