REMARK  Name = ZINC20617746
REMARK  7 active torsions:
REMARK  status: ('A' for Active; 'I' for Inactive)
REMARK    1  A    between atoms: C_6  and  C_7
REMARK    2  A    between atoms: N_9  and  C_10
REMARK    3  A    between atoms: C_10  and  C_11
REMARK    4  A    between atoms: C_11  and  C_12
REMARK    5  A    between atoms: C_12  and  N_13
REMARK    6  A    between atoms: C_21  and  C_25
REMARK    7  A    between atoms: N_27  and  C_28
REMARK                            x       y       z     vdW  Elec       q    Type
REMARK                         _______ _______ _______ _____ _____    ______ ____
ROOT
ATOM      1  C   UNL     1       1.180   2.111   0.002  0.00  0.00    +0.014 A 
ATOM      2  C   UNL     1       2.389   1.450  -0.014  0.00  0.00    +0.016 A 
ATOM      3  C   UNL     1       2.411   0.056  -0.021  0.00  0.00    +0.065 A 
ATOM      4  C   UNL     1       1.218  -0.671  -0.013  0.00  0.00    +0.063 A 
ATOM      5  C   UNL     1       0.002  -0.004   0.002  0.00  0.00    +0.040 A 
ATOM      6  C   UNL     1      -0.017   1.390   0.010  0.00  0.00    +0.039 A 
ATOM      7  N   UNL     1       1.237  -2.082  -0.021  0.00  0.00    -0.281 N 
ATOM      8  C   UNL     1       2.431  -2.736  -0.036  0.00  0.00    +0.162 A 
ATOM      9  C   UNL     1       2.390  -4.125  -0.042  0.00  0.00    +0.119 A 
ATOM     10  S   UNL     1       0.642  -4.454  -0.027  0.00  0.00    -0.055 S 
ATOM     11  C   UNL     1       0.084  -2.819  -0.013  0.00  0.00    +0.132 A 
ATOM     12  S   UNL     1      -1.532  -2.254   0.005  0.00  0.00    -0.024 S 
ATOM     13  N   UNL     1       3.635  -2.031  -0.043  0.00  0.00    -0.189 NA
ATOM     14  C   UNL     1       3.685  -0.691  -0.037  0.00  0.00    +0.281 A 
ATOM     15  O   UNL     1       4.751  -0.106  -0.045  0.00  0.00    -0.265 OA
ENDROOT
BRANCH   6  16
ATOM     16  C   UNL     1      -1.311   2.109   0.020  0.00  0.00    +0.244 C 
ATOM     17  O   UNL     1      -2.353   1.484   0.021  0.00  0.00    -0.270 OA
ATOM     18  N   UNL     1      -1.333   3.457   0.027  0.00  0.00    -0.311 N 
ATOM     19  H   UNL     1      -0.389   4.022   0.026  0.00  0.00    +0.149 HD
BRANCH  18  20
ATOM     20  C   UNL     1      -2.613   4.168   0.037  0.00  0.00    +0.102 C 
BRANCH  20  21
ATOM     21  C   UNL     1      -2.358   5.677   0.044  0.00  0.00    +0.000 C 
BRANCH  21  22
ATOM     22  C   UNL     1      -3.695   6.420   0.054  0.00  0.00    -0.077 C 
BRANCH  22  23
ATOM     23  N   UNL     1      -3.450   7.869   0.061  0.00  0.00    +0.380 N 
ATOM     24  C   UNL     1      -2.802   8.287   1.311  0.00  0.00    -0.079 C 
ATOM     25  C   UNL     1      -2.432   9.769   1.223  0.00  0.00    -0.019 C 
ATOM     26  C   UNL     1      -3.699  10.594   0.983  0.00  0.00    -0.004 C 
ATOM     27  C   UNL     1      -4.381  10.106  -0.299  0.00  0.00    -0.019 C 
ATOM     28  C   UNL     1      -4.695   8.614  -0.167  0.00  0.00    -0.079 C 
ATOM     29  H   UNL     1      -2.764   8.101  -0.766  0.00  0.00    -0.082 HD
ENDBRANCH  22  23
ENDBRANCH  21  22
ENDBRANCH  20  21
ENDBRANCH  18  20
ENDBRANCH   6  16
BRANCH   9  30
ATOM     30  C   UNL     1       3.464  -5.043  -0.057  0.00  0.00    +0.255 C 
ATOM     31  O   UNL     1       4.613  -4.636  -0.065  0.00  0.00    -0.269 OA
ATOM     32  N   UNL     1       3.218  -6.368  -0.062  0.00  0.00    -0.308 N 
ATOM     33  H   UNL     1       2.181  -6.735  -0.054  0.00  0.00    +0.149 HD
BRANCH  32  34
ATOM     34  C   UNL     1       4.332  -7.319  -0.077  0.00  0.00    +0.073 C 
ATOM     35  C   UNL     1       4.756  -7.613  -1.530  0.00  0.00    +0.022 C 
ATOM     36  C   UNL     1       5.121  -9.119  -1.523  0.00  0.00    +0.002 C 
ATOM     37  C   UNL     1       4.057  -9.724  -0.574  0.00  0.00    +0.002 C 
ATOM     38  C   UNL     1       3.887  -8.661   0.531  0.00  0.00    +0.022 C 
ENDBRANCH  32  34
ENDBRANCH   9  30
TORSDOF 7
