REMARK  Name = ZINC01754616
REMARK  9 active torsions:
REMARK  status: ('A' for Active; 'I' for Inactive)
REMARK    1  A    between atoms: C_4  and  C_7
REMARK    2  A    between atoms: C_8  and  C_9
REMARK    3  A    between atoms: N_10  and  N_11
REMARK    4  A    between atoms: C_12  and  C_14
REMARK    5  A    between atoms: C_14  and  S_15
REMARK    6  A    between atoms: S_15  and  C_16
REMARK    7  A    between atoms: C_19  and  S_21
REMARK    8  A    between atoms: S_21  and  C_22
REMARK    9  A    between atoms: C_22  and  C_23
REMARK                            x       y       z     vdW  Elec       q    Type
REMARK                         _______ _______ _______ _____ _____    ______ ____
ROOT
ATOM      1  S   UNL     1       1.302  -0.958   6.824  0.00  0.00    -0.088 S 
ENDROOT
BRANCH   1   2
ATOM      2  C   UNL     1       0.562  -0.859   5.228  0.00  0.00    +0.160 A 
ATOM      3  N   UNL     1       0.962  -1.388   4.087  0.00  0.00    -0.134 NA
ATOM      4  N   UNL     1       0.226  -1.184   2.943  0.00  0.00    -0.134 NA
ATOM      5  C   UNL     1      -0.876  -0.461   2.992  0.00  0.00    +0.160 A 
ATOM      6  S   UNL     1      -0.926  -0.011   4.720  0.00  0.00    -0.033 S 
BRANCH   5   7
ATOM      7  S   UNL     1      -1.997  -0.045   1.697  0.00  0.00    -0.092 S 
BRANCH   7   8
ATOM      8  C   UNL     1      -1.291  -0.848   0.231  0.00  0.00    +0.112 C 
BRANCH   8   9
ATOM      9  C   UNL     1      -2.165  -0.567  -0.964  0.00  0.00    -0.029 A 
ATOM     10  C   UNL     1      -3.184  -1.412  -1.281  0.00  0.00    +0.005 A 
ATOM     11  C   UNL     1      -4.006  -1.166  -2.378  0.00  0.00    +0.001 A 
ATOM     12  C   UNL     1      -3.806  -0.079  -3.174  0.00  0.00    +0.008 A 
ATOM     13  C   UNL     1      -2.760   0.812  -2.882  0.00  0.00    -0.018 A 
ATOM     14  C   UNL     1      -1.928   0.565  -1.762  0.00  0.00    -0.014 A 
ATOM     15  C   UNL     1      -0.881   1.457  -1.471  0.00  0.00    +0.009 A 
ATOM     16  C   UNL     1      -0.681   2.543  -2.267  0.00  0.00    +0.001 A 
ATOM     17  C   UNL     1      -1.499   2.786  -3.369  0.00  0.00    +0.001 A 
ATOM     18  C   UNL     1      -2.522   1.944  -3.681  0.00  0.00    +0.008 A 
ENDBRANCH   8   9
ENDBRANCH   7   8
ENDBRANCH   5   7
ENDBRANCH   1   2
BRANCH   1  19
ATOM     19  C   UNL     1       2.780  -1.974   6.561  0.00  0.00    +0.173 C 
BRANCH  19  21
ATOM     20  N   UNL     1       4.652  -2.862   7.912  0.00  0.00    -0.206 N 
ATOM     21  C   UNL     1       3.516  -2.139   7.866  0.00  0.00    +0.242 C 
ATOM     22  O   UNL     1       3.084  -1.621   8.874  0.00  0.00    -0.273 OA
ATOM     23  H   UNL     1       4.997  -3.276   7.106  0.00  0.00    +0.177 HD
BRANCH  20  25
ATOM     24  C   UNL     1       6.434  -3.713   9.171  0.00  0.00    +0.150 C 
ATOM     25  N   UNL     1       5.336  -3.015   9.126  0.00  0.00    -0.187 NA
BRANCH  24  27
ATOM     26  C   UNL     1       8.286  -4.596  10.483  0.00  0.00    +0.029 C 
ATOM     27  C   UNL     1       7.147  -3.872  10.437  0.00  0.00    +0.061 C 
ATOM     28 CL   UNL     1       6.530  -3.131  11.880  0.00  0.00    -0.082 Cl
BRANCH  26  32
ATOM     29  C   UNL     1      10.105  -5.449  14.219  0.00  0.00    +0.000 A 
ATOM     30  C   UNL     1       8.727  -5.348  14.131  0.00  0.00    +0.001 A 
ATOM     31  C   UNL     1       8.129  -5.070  12.921  0.00  0.00    +0.008 A 
ATOM     32  C   UNL     1       8.917  -4.892  11.779  0.00  0.00    -0.024 A 
ATOM     33  C   UNL     1      10.308  -5.003  11.875  0.00  0.00    +0.008 A 
ATOM     34  C   UNL     1      10.892  -5.275  13.094  0.00  0.00    +0.001 A 
ENDBRANCH  26  32
ENDBRANCH  24  27
ENDBRANCH  20  25
ENDBRANCH  19  21
ENDBRANCH   1  19
TORSDOF 9
