REMARK  Name = ZINC59015577
REMARK  7 active torsions:
REMARK  status: ('A' for Active; 'I' for Inactive)
REMARK    1  A    between atoms: C_6  and  C_7
REMARK    2  A    between atoms: C_7  and  N_8
REMARK    3  A    between atoms: C_9  and  C_11
REMARK    4  A    between atoms: C_11  and  S_12
REMARK    5  A    between atoms: S_12  and  C_13
REMARK    6  A    between atoms: N_18  and  N_19
REMARK    7  A    between atoms: C_20  and  C_21
REMARK                            x       y       z     vdW  Elec       q    Type
REMARK                         _______ _______ _______ _____ _____    ______ ____
ROOT
ATOM      1  C   UNL     1      -5.255  -3.080  -4.721  0.00  0.00    +0.211 A 
ATOM      2  N   UNL     1      -6.331  -3.709  -5.204  0.00  0.00    -0.186 NA
ATOM      3  C   UNL     1      -6.307  -3.681  -6.520  0.00  0.00    +0.232 A 
ATOM      4  N   UNL     1      -5.193  -3.021  -6.902  0.00  0.00    -0.245 N 
ATOM      5  N   UNL     1      -4.533  -2.639  -5.723  0.00  0.00    -0.144 NA
ATOM      6  N   UNL     1      -7.255  -4.231  -7.363  0.00  0.00    -0.205 N 
ATOM      7  H   UNL     1      -7.150  -4.160  -8.324  0.00  0.00    +0.177 HD
ATOM      8  H   UNL     1      -4.907  -2.843  -7.812  0.00  0.00    +0.192 HD
ENDROOT
BRANCH   6   9
ATOM      9  N   UNL     1      -8.369  -4.892  -6.827  0.00  0.00    -0.188 NA
ATOM     10  C   UNL     1      -9.259  -5.408  -7.618  0.00  0.00    +0.138 C 
BRANCH  10  11
ATOM     11  C   UNL     1     -10.431  -6.104  -7.055  0.00  0.00    -0.005 A 
ATOM     12  C   UNL     1     -10.589  -6.204  -5.671  0.00  0.00    +0.010 A 
ATOM     13  C   UNL     1     -11.688  -6.855  -5.150  0.00  0.00    +0.016 A 
ATOM     14  C   UNL     1     -12.633  -7.409  -5.997  0.00  0.00    +0.018 A 
ATOM     15  C   UNL     1     -12.482  -7.314  -7.370  0.00  0.00    +0.016 A 
ATOM     16  C   UNL     1     -11.391  -6.661  -7.904  0.00  0.00    +0.010 A 
ATOM     17 BR   UNL     1     -14.136  -8.301  -5.274  0.00  0.00    -0.050 Br
ENDBRANCH  10  11
ENDBRANCH   6   9
BRANCH   1  18
ATOM     18  S   UNL     1      -4.871  -2.871  -3.014  0.00  0.00    -0.075 S 
BRANCH  18  19
ATOM     19  C   UNL     1      -3.313  -1.943  -3.024  0.00  0.00    +0.173 C 
BRANCH  19  21
ATOM     20  N   UNL     1      -1.726  -1.017  -1.368  0.00  0.00    -0.311 N 
ATOM     21  C   UNL     1      -2.867  -1.694  -1.606  0.00  0.00    +0.224 C 
ATOM     22  O   UNL     1      -3.535  -2.102  -0.680  0.00  0.00    -0.275 OA
ATOM     23  H   UNL     1      -1.192  -0.691  -2.108  0.00  0.00    +0.149 HD
BRANCH  20  24
ATOM     24  C   UNL     1      -1.293  -0.775   0.011  0.00  0.00    +0.139 C 
BRANCH  24  30
ATOM     25  C   UNL     1      -0.017   1.378   0.010  0.00  0.00    +0.006 A 
ATOM     26  C   UNL     1       1.171   2.086   0.002  0.00  0.00    +0.020 A 
ATOM     27  C   UNL     1       2.378   1.410  -0.013  0.00  0.00    +0.041 A 
ATOM     28  C   UNL     1       2.396   0.027  -0.021  0.00  0.00    +0.020 A 
ATOM     29  C   UNL     1       1.208  -0.679  -0.013  0.00  0.00    +0.006 A 
ATOM     30  C   UNL     1       0.002  -0.004   0.002  0.00  0.00    -0.030 A 
ATOM     31 CL   UNL     1       3.870   2.298  -0.023  0.00  0.00    -0.084 Cl
ENDBRANCH  24  30
ENDBRANCH  20  24
ENDBRANCH  19  21
ENDBRANCH  18  19
ENDBRANCH   1  18
TORSDOF 7
