REMARK  Name = ZINC64334891
REMARK  6 active torsions:
REMARK  status: ('A' for Active; 'I' for Inactive)
REMARK    1  A    between atoms: C_1  and  C_2
REMARK    2  A    between atoms: C_10  and  C_11
REMARK    3  A    between atoms: N_13  and  C_14
REMARK    4  A    between atoms: C_14  and  C_15
REMARK    5  A    between atoms: C_14  and  C_16
REMARK    6  A    between atoms: C_18  and  C_21
REMARK                            x       y       z     vdW  Elec       q    Type
REMARK                         _______ _______ _______ _____ _____    ______ ____
ROOT
ATOM      1  C   UNL     1       0.029  -0.161   2.546  0.00  0.00    +0.252 C 
ATOM      2  O   UNL     1       0.014   1.041   2.735  0.00  0.00    -0.270 OA
ATOM      3  N   UNL     1       0.051  -1.007   3.595  0.00  0.00    -0.300 N 
ATOM      4  H   UNL     1       0.063  -1.965   3.446  0.00  0.00    +0.150 HD
ENDROOT
BRANCH   1  14
ATOM      5  C   UNL     1      -0.018   1.503   0.010  0.00  0.00    +0.046 C 
ATOM      6  C   UNL     1       0.002  -0.004   0.002  0.00  0.00    -0.024 A 
ATOM      7  C   UNL     1       0.005  -0.701  -1.220  0.00  0.00    -0.007 A 
ATOM      8  C   UNL     1      -0.009  -0.169  -2.535  0.00  0.00    +0.009 A 
ATOM      9  C   UNL     1      -0.005  -0.990  -3.616  0.00  0.00    +0.001 A 
ATOM     10  C   UNL     1       0.015  -2.373  -3.481  0.00  0.00    +0.001 A 
ATOM     11  C   UNL     1       0.030  -2.933  -2.220  0.00  0.00    +0.015 A 
ATOM     12  C   UNL     1       0.025  -2.112  -1.112  0.00  0.00    +0.020 A 
ATOM     13  S   UNL     1       0.039  -2.393   0.640  0.00  0.00    -0.083 S 
ATOM     14  C   UNL     1       0.023  -0.691   1.175  0.00  0.00    +0.078 A 
ENDBRANCH   1  14
BRANCH   3  15
ATOM     15  C   UNL     1       0.057  -0.479   4.962  0.00  0.00    +0.159 C 
ATOM     16  C   UNL     1       1.494  -0.158   5.379  0.00  0.00    +0.038 C 
BRANCH  15  17
ATOM     17  C   UNL     1      -0.520  -1.508   5.900  0.00  0.00    +0.247 A 
ATOM     18  N   UNL     1      -1.395  -1.279   6.840  0.00  0.00    -0.195 NA
ATOM     19  C   UNL     1      -1.687  -2.416   7.482  0.00  0.00    +0.169 A 
ATOM     20  N   UNL     1      -0.998  -3.387   6.954  0.00  0.00    -0.062 NA
ATOM     21  O   UNL     1      -0.228  -2.814   5.908  0.00  0.00    -0.336 OA
ATOM     22  C   UNL     1      -2.656  -2.551   8.628  0.00  0.00    +0.091 C 
ENDBRANCH  15  17
ENDBRANCH   3  15
TORSDOF 3
