REMARK  Name = ZINC09579901
REMARK  9 active torsions:
REMARK  status: ('A' for Active; 'I' for Inactive)
REMARK    1  A    between atoms: C_1  and  C_2
REMARK    2  A    between atoms: C_4  and  C_7
REMARK    3  A    between atoms: C_10  and  C_13
REMARK    4  A    between atoms: C_13  and  C_14
REMARK    5  A    between atoms: C_14  and  N_15
REMARK    6  A    between atoms: C_16  and  C_18
REMARK    7  A    between atoms: C_18  and  N_19
REMARK    8  A    between atoms: C_22  and  C_26
REMARK    9  A    between atoms: C_22  and  C_27
REMARK                            x       y       z     vdW  Elec       q    Type
REMARK                         _______ _______ _______ _____ _____    ______ ____
ROOT
ATOM      1  C   UNL     1       2.663   9.393   2.746  0.00  0.00    +0.213 C 
ENDROOT
BRANCH   1   2
ATOM      2  N   UNL     1       1.809   8.691   1.786  0.00  0.00    -0.215 N 
ATOM      3  C   UNL     1       2.272   7.994   0.729  0.00  0.00    +0.251 C 
ATOM      4  O   UNL     1       3.430   7.837   0.406  0.00  0.00    -0.272 OA
ATOM      5  C   UNL     1       1.044   7.447   0.029  0.00  0.00    +0.135 C 
ATOM      6  N   UNL     1      -0.074   7.946   0.849  0.00  0.00    -0.281 N 
ATOM      7  C   UNL     1       0.473   8.660   1.850  0.00  0.00    +0.310 C 
ATOM      8  O   UNL     1      -0.175   9.216   2.715  0.00  0.00    -0.252 OA
ATOM      9  C   UNL     1       0.952   7.989  -1.399  0.00  0.00    +0.047 C 
ATOM     10  H   UNL     1      -1.019   7.790   0.697  0.00  0.00    +0.152 HD
BRANCH   5  11
ATOM     11  C   UNL     1       1.064   5.940   0.022  0.00  0.00    -0.015 A 
ATOM     12  C   UNL     1       2.286   5.270   0.007  0.00  0.00    +0.007 A 
ATOM     13  C   UNL     1       2.340   3.910  -0.000  0.00  0.00    +0.009 A 
ATOM     14  C   UNL     1       1.147   3.167   0.008  0.00  0.00    -0.018 A 
ATOM     15  C   UNL     1       1.163   1.762   0.000  0.00  0.00    +0.008 A 
ATOM     16  C   UNL     1      -0.013   1.076   0.008  0.00  0.00    +0.001 A 
ATOM     17  C   UNL     1      -1.235   1.746   0.017  0.00  0.00    +0.001 A 
ATOM     18  C   UNL     1      -1.288   3.106   0.031  0.00  0.00    +0.008 A 
ATOM     19  C   UNL     1      -0.096   3.849   0.023  0.00  0.00    -0.018 A 
ATOM     20  C   UNL     1      -0.111   5.254   0.030  0.00  0.00    +0.014 A 
ENDBRANCH   5  11
ENDBRANCH   1   2
BRANCH   1  22
ATOM     21  N   UNL     1       3.654  11.645   3.005  0.00  0.00    -0.314 N 
ATOM     22  C   UNL     1       2.892  10.806   2.275  0.00  0.00    +0.231 C 
ATOM     23  O   UNL     1       2.391  11.188   1.238  0.00  0.00    -0.274 OA
ATOM     24  H   UNL     1       4.054  11.340   3.833  0.00  0.00    +0.149 HD
BRANCH  21  25
ATOM     25  C   UNL     1       3.876  13.019   2.546  0.00  0.00    +0.109 C 
BRANCH  25  26
ATOM     26  C   UNL     1       4.768  13.753   3.549  0.00  0.00    +0.054 C 
BRANCH  26  30
ATOM     27  C   UNL     1       5.419  17.762   2.212  0.00  0.00    +0.001 A 
ATOM     28  C   UNL     1       4.334  17.466   3.037  0.00  0.00    +0.010 A 
ATOM     29  C   UNL     1       4.129  16.171   3.465  0.00  0.00    +0.004 A 
ATOM     30  C   UNL     1       4.997  15.166   3.078  0.00  0.00    -0.046 A 
ATOM     31  C   UNL     1       6.078  15.454   2.264  0.00  0.00    +0.004 A 
ATOM     32  C   UNL     1       6.290  16.745   1.825  0.00  0.00    +0.010 A 
BRANCH  27  36
ATOM     33  C   UNL     1       4.204  22.594   2.003  0.00  0.00    +0.073 C 
ATOM     34  C   UNL     1       5.021  21.364   1.701  0.00  0.00    +0.076 A 
ATOM     35  N   UNL     1       4.825  20.131   2.101  0.00  0.00    -0.244 NA
ATOM     36  C   UNL     1       5.645  19.153   1.749  0.00  0.00    +0.078 A 
ATOM     37  C   UNL     1       6.704  19.464   0.939  0.00  0.00    +0.075 A 
ATOM     38  S   UNL     1       6.452  21.221   0.730  0.00  0.00    -0.080 S 
ENDBRANCH  27  36
ENDBRANCH  26  30
ENDBRANCH  25  26
ENDBRANCH  21  25
ENDBRANCH   1  22
TORSDOF 7
