REMARK  Name = ZINC13506883
REMARK  10 active torsions:
REMARK  status: ('A' for Active; 'I' for Inactive)
REMARK    1  A    between atoms: C_1  and  C_2
REMARK    2  A    between atoms: C_7  and  C_8
REMARK    3  A    between atoms: C_8  and  C_10
REMARK    4  A    between atoms: C_8  and  N_18
REMARK    5  A    between atoms: N_12  and  C_13
REMARK    6  A    between atoms: N_18  and  C_19
REMARK    7  A    between atoms: C_24  and  C_25
REMARK    8  A    between atoms: C_26  and  C_28
REMARK    9  A    between atoms: C_28  and  N_29
REMARK   10  A    between atoms: C_30  and  C_32
REMARK                            x       y       z     vdW  Elec       q    Type
REMARK                         _______ _______ _______ _____ _____    ______ ____
ROOT
ATOM      1  N   UNL     1       0.054   1.957   5.868  0.00  0.00    -0.254 N 
ATOM      2  C   UNL     1       0.504   1.318   6.966  0.00  0.00    +0.238 C 
ATOM      3  O   UNL     1       1.613   0.826   6.970  0.00  0.00    -0.274 OA
ENDROOT
BRANCH   1   4
ATOM      4  C   UNL     1      -1.225   2.525   5.864  0.00  0.00    +0.040 A 
ATOM      5  C   UNL     1      -2.322   1.766   5.476  0.00  0.00    +0.024 A 
ATOM      6  C   UNL     1      -3.583   2.330   5.473  0.00  0.00    +0.002 A 
ATOM      7  C   UNL     1      -3.754   3.648   5.857  0.00  0.00    +0.000 A 
ATOM      8  C   UNL     1      -2.664   4.405   6.244  0.00  0.00    +0.005 A 
ATOM      9  C   UNL     1      -1.401   3.846   6.254  0.00  0.00    -0.029 A 
ATOM     10  C   UNL     1      -0.214   4.670   6.682  0.00  0.00    +0.045 C 
ENDBRANCH   1   4
BRANCH   1  11
ATOM     11  C   UNL     1       0.903   2.057   4.679  0.00  0.00    +0.197 C 
BRANCH  11  18
ATOM     12  C   UNL     1       2.892   3.759   5.901  0.00  0.00    +0.044 C 
ATOM     13  C   UNL     1       1.969   4.315   4.848  0.00  0.00    -0.045 A 
ATOM     14  C   UNL     1       2.076   5.639   4.463  0.00  0.00    +0.004 A 
ATOM     15  C   UNL     1       1.226   6.150   3.500  0.00  0.00    +0.000 A 
ATOM     16  C   UNL     1       0.272   5.336   2.918  0.00  0.00    +0.000 A 
ATOM     17  C   UNL     1       0.167   4.012   3.300  0.00  0.00    +0.006 A 
ATOM     18  C   UNL     1       1.017   3.501   4.263  0.00  0.00    -0.015 A 
ENDBRANCH  11  18
BRANCH  11  19
ATOM     19  C   UNL     1       0.292   1.257   3.557  0.00  0.00    +0.239 C 
ATOM     20  O   UNL     1      -0.808   0.765   3.692  0.00  0.00    -0.273 OA
ATOM     21  N   UNL     1       0.969   1.089   2.403  0.00  0.00    -0.311 N 
ATOM     22  H   UNL     1       1.816   1.542   2.267  0.00  0.00    +0.149 HD
BRANCH  21  23
ATOM     23  C   UNL     1       0.425   0.223   1.355  0.00  0.00    +0.073 C 
ATOM     24  C   UNL     1       1.558  -0.315   0.457  0.00  0.00    +0.022 C 
ATOM     25  C   UNL     1       1.009  -0.339  -0.980  0.00  0.00    +0.002 C 
ATOM     26  C   UNL     1      -0.441   0.185  -0.906  0.00  0.00    +0.002 C 
ATOM     27  C   UNL     1      -0.471   1.036   0.387  0.00  0.00    +0.022 C 
ENDBRANCH  21  23
ENDBRANCH  11  19
ENDBRANCH   1  11
BRANCH   2  28
ATOM     28  C   UNL     1      -0.370   1.216   8.190  0.00  0.00    +0.201 C 
BRANCH  28  29
ATOM     29  N   UNL     1       0.342   0.481   9.238  0.00  0.00    -0.300 N 
ATOM     30  C   UNL     1      -0.248   0.266  10.430  0.00  0.00    +0.280 C 
ATOM     31  O   UNL     1      -1.374   0.682  10.636  0.00  0.00    -0.267 OA
ATOM     32  H   UNL     1       1.239   0.149   9.075  0.00  0.00    +0.150 HD
BRANCH  30  33
ATOM     33  C   UNL     1       0.464  -0.470  11.480  0.00  0.00    +0.189 A 
ATOM     34  C   UNL     1      -0.015  -0.756  12.726  0.00  0.00    +0.054 A 
ATOM     35  C   UNL     1       0.994  -1.470  13.392  0.00  0.00    +0.042 A 
ATOM     36  C   UNL     1       2.031  -1.586  12.534  0.00  0.00    +0.196 A 
ATOM     37  O   UNL     1       1.706  -0.987  11.382  0.00  0.00    -0.458 OA
ENDBRANCH  30  33
ENDBRANCH  28  29
ENDBRANCH   2  28
TORSDOF 8
