REMARK  Name = ZINC24655983
REMARK  9 active torsions:
REMARK  status: ('A' for Active; 'I' for Inactive)
REMARK    1  A    between atoms: C_1  and  C_2
REMARK    2  A    between atoms: C_5  and  N_8
REMARK    3  A    between atoms: C_9  and  C_24
REMARK    4  A    between atoms: N_11  and  C_14
REMARK    5  A    between atoms: C_14  and  N_15
REMARK    6  A    between atoms: N_15  and  C_16
REMARK    7  A    between atoms: N_15  and  C_17
REMARK    8  A    between atoms: C_17  and  C_18
REMARK    9  A    between atoms: N_21  and  C_23
REMARK                            x       y       z     vdW  Elec       q    Type
REMARK                         _______ _______ _______ _____ _____    ______ ____
ROOT
ATOM      1  N   UNL     1       2.054   0.704  -0.051  0.00  0.00    -0.271 N 
ATOM      2  C   UNL     1       1.215  -0.388  -0.176  0.00  0.00    +0.167 A 
ATOM      3  N   UNL     1      -0.018   0.023  -0.069  0.00  0.00    -0.152 NA
ATOM      4  N   UNL     1       0.003   1.410   0.129  0.00  0.00    -0.257 N 
ATOM      5  C   UNL     1       1.294   1.801   0.136  0.00  0.00    +0.181 A 
ATOM      6  S   UNL     1       1.863   3.402   0.344  0.00  0.00    -0.011 S 
ENDROOT
BRANCH   1  11
ATOM      7  C   UNL     1       7.723   0.587  -0.288  0.00  0.00    +0.044 C 
ATOM      8  C   UNL     1       6.217   0.618  -0.225  0.00  0.00    -0.050 A 
ATOM      9  C   UNL     1       5.497   1.230  -1.235  0.00  0.00    +0.005 A 
ATOM     10  C   UNL     1       4.117   1.260  -1.180  0.00  0.00    +0.026 A 
ATOM     11  C   UNL     1       3.453   0.675  -0.110  0.00  0.00    +0.050 A 
ATOM     12  C   UNL     1       4.179   0.067   0.905  0.00  0.00    +0.026 A 
ATOM     13  C   UNL     1       5.559   0.035   0.842  0.00  0.00    +0.005 A 
ENDBRANCH   1  11
BRANCH   2  14
ATOM     14  C   UNL     1       1.644  -1.787  -0.394  0.00  0.00    +0.020 A 
ATOM     15  C   UNL     1       2.926  -2.060  -0.873  0.00  0.00    +0.013 A 
ATOM     16  C   UNL     1       3.322  -3.366  -1.069  0.00  0.00    +0.021 A 
ATOM     17  C   UNL     1       2.447  -4.406  -0.802  0.00  0.00    +0.041 A 
ATOM     18  C   UNL     1       1.172  -4.141  -0.332  0.00  0.00    +0.021 A 
ATOM     19  C   UNL     1       0.766  -2.838  -0.127  0.00  0.00    +0.013 A 
ATOM     20 CL   UNL     1       2.950  -6.047  -1.059  0.00  0.00    -0.084 Cl
ENDBRANCH   2  14
BRANCH   4  21
ATOM     21  C   UNL     1      -1.166   2.279   0.294  0.00  0.00    +0.072 C 
BRANCH  21  22
ATOM     22  N   UNL     1      -1.509   2.372   1.719  0.00  0.00    +0.394 N 
ATOM     23  C   UNL     1      -1.962   1.075   2.238  0.00  0.00    -0.093 C 
ATOM     24  H   UNL     1      -0.600   2.657   2.268  0.00  0.00    -0.079 HD
BRANCH  22  25
ATOM     25  C   UNL     1      -2.520   3.413   1.950  0.00  0.00    -0.038 C 
BRANCH  25  26
ATOM     26  C   UNL     1      -2.667   3.651   3.430  0.00  0.00    -0.026 A 
ATOM     27  C   UNL     1      -1.943   4.573   4.192  0.00  0.00    +0.136 A 
ATOM     28  N   UNL     1      -2.350   4.489   5.433  0.00  0.00    -0.180 NA
ATOM     29  N   UNL     1      -3.349   3.509   5.500  0.00  0.00    -0.274 N 
ATOM     30  C   UNL     1      -3.529   3.013   4.257  0.00  0.00    +0.109 A 
ATOM     31  C   UNL     1      -4.074   3.098   6.704  0.00  0.00    +0.172 C 
ENDBRANCH  25  26
ENDBRANCH  22  25
ENDBRANCH  21  22
ENDBRANCH   4  21
TORSDOF 6
