REMARK  Name = ZINC20079569
REMARK  10 active torsions:
REMARK  status: ('A' for Active; 'I' for Inactive)
REMARK    1  A    between atoms: C_1  and  C_2
REMARK    2  A    between atoms: C_5  and  C_42
REMARK    3  A    between atoms: C_6  and  N_8
REMARK    4  A    between atoms: N_11  and  C_14
REMARK    5  A    between atoms: C_14  and  C_16
REMARK    6  A    between atoms: C_14  and  C_30
REMARK    7  A    between atoms: C_19  and  C_29
REMARK    8  A    between atoms: C_22  and  C_28
REMARK    9  A    between atoms: N_34  and  C_35
REMARK   10  A    between atoms: C_35  and  C_36
REMARK                            x       y       z     vdW  Elec       q    Type
REMARK                         _______ _______ _______ _____ _____    ______ ____
ROOT
ATOM      1  C   UNL     1       2.507   3.775  -0.002  0.00  0.00    +0.162 C 
ENDROOT
BRANCH   1   2
ATOM      2  C   UNL     1       1.183   3.055   0.007  0.00  0.00    +0.042 A 
ATOM      3  C   UNL     1       0.028   3.765   0.022  0.00  0.00    +0.021 A 
ATOM      4  C   UNL     1      -1.242   3.036   0.030  0.00  0.00    +0.002 A 
ATOM      5  C   UNL     1      -2.465   3.713   0.044  0.00  0.00    -0.041 A 
ATOM      6  C   UNL     1      -3.632   3.003   0.050  0.00  0.00    +0.004 A 
ATOM      7  C   UNL     1      -3.615   1.615   0.043  0.00  0.00    +0.005 A 
ATOM      8  C   UNL     1      -2.421   0.927   0.029  0.00  0.00    -0.026 A 
ATOM      9  C   UNL     1      -1.220   1.629   0.017  0.00  0.00    +0.052 A 
ATOM     10  N   UNL     1      -0.011   0.966   0.007  0.00  0.00    -0.322 N 
ATOM     11  H   UNL     1       0.013  -0.134   0.006  0.00  0.00    +0.169 HD
ATOM     12  C   UNL     1       1.150   1.644  -0.000  0.00  0.00    +0.254 A 
ATOM     13  O   UNL     1       2.200   1.025  -0.013  0.00  0.00    -0.268 OA
ATOM     14  C   UNL     1      -2.417  -0.580   0.021  0.00  0.00    +0.046 C 
ATOM     15  C   UNL     1      -2.496   5.220   0.051  0.00  0.00    +0.044 C 
ENDBRANCH   1   2
BRANCH   1  19
ATOM     16  N   UNL     1       4.776   3.589   3.557  0.00  0.00    -0.327 N 
ATOM     17  C   UNL     1       5.482   3.414   2.280  0.00  0.00    +0.120 C 
ATOM     18  C   UNL     1       4.629   3.987   1.146  0.00  0.00    +0.104 C 
ATOM     19  N   UNL     1       3.327   3.305   1.123  0.00  0.00    -0.286 NA
ATOM     20  C   UNL     1       2.621   3.480   2.399  0.00  0.00    +0.104 C 
ATOM     21  C   UNL     1       3.474   2.907   3.534  0.00  0.00    +0.120 C 
BRANCH  16  27
ATOM     22  C   UNL     1       7.190  -0.059   5.797  0.00  0.00    +0.044 C 
ATOM     23  C   UNL     1       6.741   1.378   5.738  0.00  0.00    -0.049 A 
ATOM     24  C   UNL     1       7.100   2.256   6.744  0.00  0.00    +0.004 A 
ATOM     25  C   UNL     1       6.689   3.576   6.694  0.00  0.00    +0.005 A 
ATOM     26  C   UNL     1       5.918   4.021   5.639  0.00  0.00    -0.029 A 
ATOM     27  C   UNL     1       5.556   3.142   4.626  0.00  0.00    +0.033 A 
ATOM     28  C   UNL     1       5.966   1.816   4.682  0.00  0.00    +0.026 A 
ATOM     29  C   UNL     1       5.471   5.459   5.585  0.00  0.00    +0.045 C 
ENDBRANCH  16  27
ENDBRANCH   1  19
BRANCH   1  30
ATOM     30  C   UNL     1       3.223   3.494  -1.298  0.00  0.00    +0.173 A 
ATOM     31  N   UNL     1       3.835   2.384  -1.629  0.00  0.00    -0.111 NA
ATOM     32  N   UNL     1       4.319   2.534  -2.814  0.00  0.00    -0.023 NA
ATOM     33  N   UNL     1       4.037   3.715  -3.244  0.00  0.00    -0.044 NA
ATOM     34  N   UNL     1       3.362   4.338  -2.338  0.00  0.00    -0.225 N 
BRANCH  34  35
ATOM     35  C   UNL     1       2.845   5.705  -2.425  0.00  0.00    +0.179 C 
BRANCH  35  36
ATOM     36  C   UNL     1       3.891   6.682  -1.884  0.00  0.00    +0.140 C 
ATOM     37  C   UNL     1       3.311   8.113  -1.865  0.00  0.00    +0.035 C 
ATOM     38  C   UNL     1       4.528   8.967  -2.313  0.00  0.00    +0.031 C 
ATOM     39  C   UNL     1       5.216   8.000  -3.308  0.00  0.00    +0.160 C 
ATOM     40  O   UNL     1       5.037   6.691  -2.744  0.00  0.00    -0.375 OA
ENDBRANCH  35  36
ENDBRANCH  34  35
ENDBRANCH   1  30
TORSDOF 6
