REMARK  Name = ZINC48254025
REMARK  8 active torsions:
REMARK  status: ('A' for Active; 'I' for Inactive)
REMARK    1  A    between atoms: C_1  and  C_2
REMARK    2  A    between atoms: C_2  and  C_3
REMARK    3  A    between atoms: C_2  and  C_4
REMARK    4  A    between atoms: C_6  and  C_9
REMARK    5  A    between atoms: C_9  and  C_10
REMARK    6  A    between atoms: C_10  and  C_11
REMARK    7  A    between atoms: C_11  and  C_12
REMARK    8  A    between atoms: C_20  and  C_22
REMARK                            x       y       z     vdW  Elec       q    Type
REMARK                         _______ _______ _______ _____ _____    ______ ____
ROOT
ATOM      1  C   UNL     1      -6.863  -6.280  -0.648  0.00  0.00    +0.216 C 
ATOM      2  O   UNL     1      -6.499  -6.583   0.469  0.00  0.00    -0.276 OA
ATOM      3  N   UNL     1      -7.174  -7.243  -1.539  0.00  0.00    -0.298 N 
ATOM      4  C   UNL     1      -7.611  -6.891  -2.898  0.00  0.00    +0.126 C 
ATOM      5  C   UNL     1      -6.698  -7.602  -3.905  0.00  0.00    +0.126 C 
ATOM      6  N   UNL     1      -6.606  -9.022  -3.535  0.00  0.00    -0.298 N 
ATOM      7  C   UNL     1      -6.170  -9.373  -2.176  0.00  0.00    +0.126 C 
ATOM      8  C   UNL     1      -7.077  -8.662  -1.171  0.00  0.00    +0.126 C 
ATOM      9  C   UNL     1      -6.917  -9.984  -4.426  0.00  0.00    +0.220 C 
ATOM     10  O   UNL     1      -7.351  -9.682  -5.518  0.00  0.00    -0.275 OA
ENDROOT
BRANCH   9  11
ATOM     11  C   UNL     1      -6.726 -11.435  -4.066  0.00  0.00    +0.098 C 
ATOM     12  C   UNL     1      -5.263 -11.841  -4.304  0.00  0.00    +0.037 C 
ATOM     13  C   UNL     1      -5.126 -13.382  -4.248  0.00  0.00    +0.166 C 
ATOM     14  S   UNL     1      -6.791 -13.954  -4.782  0.00  0.00    -0.030 S 
ATOM     15  O   UNL     1      -7.399 -14.667  -3.714  0.00  0.00    -0.174 OA
ATOM     16  O   UNL     1      -6.681 -14.567  -6.059  0.00  0.00    -0.174 OA
ATOM     17  C   UNL     1      -7.628 -12.324  -4.969  0.00  0.00    +0.178 C 
ENDBRANCH   9  11
BRANCH   1  18
ATOM     18  C   UNL     1      -6.967  -4.829  -1.040  0.00  0.00    +0.096 C 
BRANCH  18  19
ATOM     19  C   UNL     1      -6.561  -3.951   0.145  0.00  0.00    +0.019 C 
BRANCH  19  20
ATOM     20  C   UNL     1      -6.666  -2.477  -0.252  0.00  0.00    +0.099 C 
BRANCH  20  23
ATOM     21  C   UNL     1      -5.063  -0.446   2.286  0.00  0.00    +0.174 A 
ATOM     22  N   UNL     1      -5.059  -1.190   1.175  0.00  0.00    -0.196 NA
ATOM     23  C   UNL     1      -6.266  -1.612   0.915  0.00  0.00    +0.227 A 
ATOM     24  O   UNL     1      -7.087  -1.143   1.863  0.00  0.00    -0.338 OA
ATOM     25  N   UNL     1      -6.277  -0.388   2.752  0.00  0.00    -0.061 NA
BRANCH  21  27
ATOM     26  C   UNL     1      -4.075   1.728   2.956  0.00  0.00    +0.015 C 
ATOM     27  C   UNL     1      -3.856   0.215   2.902  0.00  0.00    +0.054 C 
ATOM     28  C   UNL     1      -3.650  -0.322   4.320  0.00  0.00    +0.015 C 
ENDBRANCH  21  27
ENDBRANCH  20  23
ENDBRANCH  19  20
ENDBRANCH  18  19
ENDBRANCH   1  18
TORSDOF 6
