REMARK  Name = ZINC67382848
REMARK  7 active torsions:
REMARK  status: ('A' for Active; 'I' for Inactive)
REMARK    1  A    between atoms: C_1  and  C_2
REMARK    2  A    between atoms: N_4  and  C_5
REMARK    3  A    between atoms: C_5  and  C_6
REMARK    4  A    between atoms: N_11  and  C_13
REMARK    5  A    between atoms: C_13  and  N_14
REMARK    6  A    between atoms: C_17  and  C_21
REMARK    7  A    between atoms: C_17  and  C_22
REMARK                            x       y       z     vdW  Elec       q    Type
REMARK                         _______ _______ _______ _____ _____    ______ ____
ROOT
ATOM      1  N   UNL     1      -5.287  -6.672  -0.426  0.00  0.00    -0.241 N 
ATOM      2  C   UNL     1      -6.037  -7.077   0.619  0.00  0.00    +0.249 C 
ATOM      3  O   UNL     1      -5.713  -7.101   1.787  0.00  0.00    -0.272 OA
ATOM      4  C   UNL     1      -7.369  -7.496   0.029  0.00  0.00    +0.135 C 
ATOM      5  N   UNL     1      -7.200  -7.255  -1.415  0.00  0.00    -0.281 N 
ATOM      6  C   UNL     1      -5.956  -6.771  -1.581  0.00  0.00    +0.308 C 
ATOM      7  O   UNL     1      -5.490  -6.460  -2.659  0.00  0.00    -0.252 OA
ATOM      8  C   UNL     1      -7.636  -8.978   0.300  0.00  0.00    +0.047 C 
ATOM      9  H   UNL     1      -7.858  -7.413  -2.110  0.00  0.00    +0.152 HD
ENDROOT
BRANCH   4  10
ATOM     10  C   UNL     1      -8.484  -6.645   0.581  0.00  0.00    -0.015 A 
ATOM     11  C   UNL     1      -8.384  -6.114   1.853  0.00  0.00    +0.006 A 
ATOM     12  C   UNL     1      -9.407  -5.335   2.357  0.00  0.00    +0.004 A 
ATOM     13  C   UNL     1     -10.534  -5.083   1.591  0.00  0.00    -0.044 A 
ATOM     14  C   UNL     1     -10.633  -5.614   0.319  0.00  0.00    -0.044 A 
ATOM     15  C   UNL     1      -9.604  -6.391  -0.186  0.00  0.00    +0.010 A 
ATOM     16  C   UNL     1     -11.947  -5.199  -0.307  0.00  0.00    +0.036 C 
ATOM     17  C   UNL     1     -12.825  -4.727   0.871  0.00  0.00    +0.009 C 
ATOM     18  C   UNL     1     -11.774  -4.275   1.907  0.00  0.00    +0.036 C 
ENDBRANCH   4  10
BRANCH   1  19
ATOM     19  C   UNL     1      -3.913  -6.178  -0.310  0.00  0.00    +0.043 C 
BRANCH  19  24
ATOM     20  C   UNL     1      -2.571  -2.688   0.012  0.00  0.00    -0.011 C 
ATOM     21  C   UNL     1      -3.249  -2.302   1.330  0.00  0.00    +0.001 C 
ATOM     22  C   UNL     1      -4.657  -2.903   1.364  0.00  0.00    -0.018 C 
ATOM     23  C   UNL     1      -4.563  -4.419   1.183  0.00  0.00    -0.077 C 
ATOM     24  N   UNL     1      -3.930  -4.724  -0.106  0.00  0.00    +0.391 N 
ATOM     25  C   UNL     1      -2.555  -4.213  -0.120  0.00  0.00    -0.072 C 
ATOM     26  H   UNL     1      -4.457  -4.288  -0.849  0.00  0.00    -0.079 HD
BRANCH  20  27
ATOM     27  C   UNL     1      -1.136  -2.159   0.001  0.00  0.00    +0.105 C 
BRANCH  27  31
ATOM     28  C   UNL     1      -0.018   1.503   0.010  0.00  0.00    +0.109 C 
ATOM     29  C   UNL     1       0.002  -0.004   0.002  0.00  0.00    +0.210 C 
ATOM     30  O   UNL     1       1.060  -0.596  -0.011  0.00  0.00    -0.276 OA
ATOM     31  N   UNL     1      -1.156  -0.694   0.009  0.00  0.00    -0.315 N 
ATOM     32  H   UNL     1      -2.002  -0.220   0.020  0.00  0.00    +0.149 HD
ENDBRANCH  27  31
ENDBRANCH  20  27
ENDBRANCH  19  24
ENDBRANCH   1  19
TORSDOF 5
