REMARK  Name = ZINC40987564
REMARK  8 active torsions:
REMARK  status: ('A' for Active; 'I' for Inactive)
REMARK    1  A    between atoms: C_1  and  O_2
REMARK    2  A    between atoms: O_2  and  C_3
REMARK    3  A    between atoms: C_3  and  C_4
REMARK    4  A    between atoms: C_4  and  N_5
REMARK    5  A    between atoms: C_6  and  C_8
REMARK    6  A    between atoms: C_12  and  N_13
REMARK    7  A    between atoms: C_14  and  C_16
REMARK    8  A    between atoms: N_19  and  C_21
REMARK                            x       y       z     vdW  Elec       q    Type
REMARK                         _______ _______ _______ _____ _____    ______ ____
ROOT
ATOM      1  N   UNL     1      -2.857  -4.245   1.323  0.00  0.00    -0.274 N 
ATOM      2  C   UNL     1      -3.748  -4.446   2.314  0.00  0.00    +0.269 C 
ATOM      3  O   UNL     1      -4.870  -4.834   2.054  0.00  0.00    -0.268 OA
ATOM      4  H   UNL     1      -1.962  -3.935   1.530  0.00  0.00    +0.156 HD
ENDROOT
BRANCH   1   9
ATOM      5  C   UNL     1      -2.445  -4.332  -1.132  0.00  0.00    +0.069 A 
ATOM      6  C   UNL     1      -3.065  -4.656  -2.405  0.00  0.00    -0.023 A 
ATOM      7  C   UNL     1      -4.348  -5.064  -2.307  0.00  0.00    -0.004 A 
ATOM      8  S   UNL     1      -4.704  -5.015  -0.575  0.00  0.00    -0.077 S 
ATOM      9  C   UNL     1      -3.221  -4.482   0.007  0.00  0.00    +0.085 A 
ATOM     10  C   UNL     1      -5.254  -5.464  -3.431  0.00  0.00    +0.043 C 
ATOM     11  C   UNL     1      -4.629  -4.982  -4.748  0.00  0.00    +0.005 C 
ATOM     12  C   UNL     1      -3.152  -5.387  -4.773  0.00  0.00    +0.005 C 
ATOM     13  C   UNL     1      -2.367  -4.558  -3.754  0.00  0.00    +0.037 C 
BRANCH   5  15
ATOM     14  N   UNL     1      -0.776  -2.556  -1.119  0.00  0.00    -0.309 N 
ATOM     15  C   UNL     1      -1.055  -3.873  -1.054  0.00  0.00    +0.247 C 
ATOM     16  O   UNL     1      -0.153  -4.681  -0.931  0.00  0.00    -0.270 OA
ATOM     17  H   UNL     1      -1.495  -1.912  -1.217  0.00  0.00    +0.149 HD
BRANCH  14  18
ATOM     18  C   UNL     1       0.613  -2.097  -1.041  0.00  0.00    +0.132 C 
BRANCH  18  19
ATOM     19  C   UNL     1       0.652  -0.570  -1.138  0.00  0.00    +0.178 C 
BRANCH  19  21
ATOM     20  C   UNL     1      -0.017   1.425   0.010  0.00  0.00    +0.194 C 
ATOM     21  O   UNL     1       0.002  -0.004   0.002  0.00  0.00    -0.381 OA
ENDBRANCH  19  21
ENDBRANCH  18  19
ENDBRANCH  14  18
ENDBRANCH   5  15
ENDBRANCH   1   9
BRANCH   2  22
ATOM     22  C   UNL     1      -3.360  -4.193   3.716  0.00  0.00    +0.151 A 
ATOM     23  C   UNL     1      -4.168  -4.360   4.854  0.00  0.00    +0.006 A 
ATOM     24  C   UNL     1      -3.398  -4.010   5.913  0.00  0.00    +0.044 A 
ATOM     25  N   UNL     1      -2.195  -3.657   5.430  0.00  0.00    -0.263 N 
ATOM     26  N   UNL     1      -2.183  -3.772   4.147  0.00  0.00    -0.166 NA
ATOM     27  C   UNL     1      -3.874  -4.036   7.343  0.00  0.00    +0.055 C 
ATOM     28  C   UNL     1      -5.406  -4.100   7.340  0.00  0.00    +0.006 C 
ATOM     29  C   UNL     1      -5.873  -5.221   6.408  0.00  0.00    +0.005 C 
ATOM     30  C   UNL     1      -5.595  -4.826   4.952  0.00  0.00    +0.039 C 
BRANCH  25  31
ATOM     31  C   UNL     1      -1.061  -3.212   6.244  0.00  0.00    +0.130 C 
ATOM     32  C   UNL     1      -0.629  -1.803   5.806  0.00  0.00    +0.051 C 
ATOM     33  C   UNL     1       0.747  -1.456   6.426  0.00  0.00    +0.168 C 
ATOM     34  S   UNL     1       1.529  -3.109   6.622  0.00  0.00    -0.029 S 
ATOM     35  O   UNL     1       1.751  -3.355   8.003  0.00  0.00    -0.174 OA
ATOM     36  O   UNL     1       2.613  -3.219   5.709  0.00  0.00    -0.174 OA
ATOM     37  C   UNL     1       0.143  -4.174   6.038  0.00  0.00    +0.192 C 
ENDBRANCH  25  31
ENDBRANCH   2  22
TORSDOF 7
