REMARK  Name = ZINC15033660
REMARK  11 active torsions:
REMARK  status: ('A' for Active; 'I' for Inactive)
REMARK    1  A    between atoms: C_1  and  C_2
REMARK    2  A    between atoms: C_2  and  O_3
REMARK    3  A    between atoms: O_3  and  C_4
REMARK    4  A    between atoms: C_4  and  C_6
REMARK    5  A    between atoms: C_7  and  C_35
REMARK    6  A    between atoms: C_8  and  C_31
REMARK    7  A    between atoms: C_10  and  N_11
REMARK    8  A    between atoms: C_12  and  C_14
REMARK    9  A    between atoms: C_14  and  N_15
REMARK   10  A    between atoms: C_23  and  C_25
REMARK   11  A    between atoms: N_33  and  C_34
REMARK                            x       y       z     vdW  Elec       q    Type
REMARK                         _______ _______ _______ _____ _____    ______ ____
ROOT
ATOM      1  N   UNL     1      -0.607  -2.456  -3.930  0.00  0.00    -0.278 N 
ATOM      2  C   UNL     1      -1.123  -2.783  -5.131  0.00  0.00    +0.232 C 
ATOM      3  O   UNL     1      -0.403  -3.225  -6.000  0.00  0.00    -0.274 OA
ATOM      4  H   UNL     1      -1.183  -2.103  -3.234  0.00  0.00    +0.155 HD
ENDROOT
BRANCH   1   9
ATOM      5  C   UNL     1       1.450  -2.345  -2.518  0.00  0.00    +0.091 A 
ATOM      6  C   UNL     1       2.814  -2.606  -2.513  0.00  0.00    -0.015 A 
ATOM      7  C   UNL     1       3.339  -3.113  -3.671  0.00  0.00    +0.079 A 
ATOM      8  S   UNL     1       1.916  -3.213  -4.737  0.00  0.00    -0.068 S 
ATOM      9  C   UNL     1       0.743  -2.625  -3.689  0.00  0.00    +0.087 A 
ATOM     10  C   UNL     1       3.668  -2.345  -1.299  0.00  0.00    +0.046 C 
BRANCH   7  11
ATOM     11  C   UNL     1       4.726  -3.482  -3.960  0.00  0.00    +0.251 C 
ATOM     12  O   UNL     1       5.583  -3.348  -3.106  0.00  0.00    -0.270 OA
ATOM     13  N   UNL     1       5.055  -3.971  -5.173  0.00  0.00    -0.314 N 
ATOM     14  C   UNL     1       6.442  -4.340  -5.463  0.00  0.00    +0.128 C 
ATOM     15  H   UNL     1       4.372  -4.078  -5.853  0.00  0.00    +0.149 HD
ENDBRANCH   7  11
BRANCH   5  16
ATOM     16  C   UNL     1       0.776  -1.800  -1.335  0.00  0.00    +0.342 C 
ATOM     17  O   UNL     1       0.312  -2.551  -0.499  0.00  0.00    -0.245 OA
BRANCH  16  18
ATOM     18  O   UNL     1       0.671  -0.465  -1.174  0.00  0.00    -0.461 OA
BRANCH  18  20
ATOM     19  C   UNL     1      -0.019   1.526   0.010  0.00  0.00    +0.048 C 
ATOM     20  C   UNL     1       0.002  -0.004   0.002  0.00  0.00    +0.229 C 
ENDBRANCH  18  20
ENDBRANCH  16  18
ENDBRANCH   5  16
ENDBRANCH   1   9
BRANCH   2  21
ATOM     21  C   UNL     1      -2.596  -2.599  -5.393  0.00  0.00    +0.181 C 
BRANCH  21  22
ATOM     22  N   UNL     1      -2.906  -3.025  -6.765  0.00  0.00    -0.283 NA
ATOM     23  C   UNL     1      -2.236  -2.162  -7.748  0.00  0.00    +0.091 C 
ATOM     24  C   UNL     1      -2.243  -2.869  -9.114  0.00  0.00    +0.058 C 
ATOM     25  C   UNL     1      -3.623  -3.391  -9.349  0.00  0.00    -0.004 A 
ATOM     26  C   UNL     1      -4.617  -3.508  -8.425  0.00  0.00    -0.016 A 
ATOM     27  C   UNL     1      -5.830  -4.021  -8.877  0.00  0.00    +0.013 A 
ATOM     28  C   UNL     1      -5.973  -4.376 -10.176  0.00  0.00    +0.046 A 
ATOM     29  S   UNL     1      -4.359  -3.992 -10.842  0.00  0.00    -0.101 S 
ATOM     30  C   UNL     1      -4.357  -3.085  -6.982  0.00  0.00    +0.118 C 
BRANCH  30  31
ATOM     31  C   UNL     1      -4.967  -4.092  -6.042  0.00  0.00    -0.026 A 
ATOM     32  C   UNL     1      -4.313  -5.283  -5.784  0.00  0.00    +0.005 A 
ATOM     33  C   UNL     1      -4.873  -6.207  -4.922  0.00  0.00    +0.000 A 
ATOM     34  C   UNL     1      -6.087  -5.940  -4.317  0.00  0.00    +0.000 A 
ATOM     35  C   UNL     1      -6.741  -4.749  -4.573  0.00  0.00    +0.000 A 
ATOM     36  C   UNL     1      -6.179  -3.823  -5.432  0.00  0.00    +0.005 A 
ENDBRANCH  30  31
ENDBRANCH  21  22
ENDBRANCH   2  21
TORSDOF 8
