REMARK  Name = ZINC36531002
REMARK  12 active torsions:
REMARK  status: ('A' for Active; 'I' for Inactive)
REMARK    1  A    between atoms: C_1  and  C_2
REMARK    2  A    between atoms: C_2  and  C_3
REMARK    3  A    between atoms: C_2  and  C_4
REMARK    4  A    between atoms: C_2  and  N_5
REMARK    5  A    between atoms: C_6  and  C_8
REMARK    6  A    between atoms: C_8  and  C_10
REMARK    7  A    between atoms: C_8  and  N_20
REMARK    8  A    between atoms: C_13  and  C_16
REMARK    9  A    between atoms: N_20  and  C_21
REMARK   10  A    between atoms: C_22  and  C_24
REMARK   11  A    between atoms: C_25  and  O_31
REMARK   12  A    between atoms: C_29  and  O_30
REMARK                            x       y       z     vdW  Elec       q    Type
REMARK                         _______ _______ _______ _____ _____    ______ ____
ROOT
ATOM      1  C   UNL     1       2.689  -0.589  -2.682  0.00  0.00    +0.192 C 
ENDROOT
BRANCH   1   2
ATOM      2  C   UNL     1       1.845  -0.064  -3.814  0.00  0.00    -0.018 A 
ATOM      3  C   UNL     1       1.061   1.059  -3.629  0.00  0.00    +0.006 A 
ATOM      4  C   UNL     1       0.287   1.541  -4.668  0.00  0.00    +0.013 A 
ATOM      5  C   UNL     1       0.296   0.899  -5.893  0.00  0.00    +0.055 A 
ATOM      6  C   UNL     1       1.081  -0.224  -6.078  0.00  0.00    +0.013 A 
ATOM      7  C   UNL     1       1.858  -0.703  -5.040  0.00  0.00    +0.006 A 
BRANCH   5   8
ATOM      8  C   UNL     1      -0.548   1.423  -7.025  0.00  0.00    +0.417 C 
ATOM      9  F   UNL     1       0.191   2.349  -7.768  0.00  0.00    -0.166 F 
ATOM     10  F   UNL     1      -0.931   0.361  -7.851  0.00  0.00    -0.166 F 
ATOM     11  F   UNL     1      -1.689   2.045  -6.506  0.00  0.00    -0.166 F 
ENDBRANCH   5   8
ENDBRANCH   1   2
BRANCH   1  13
ATOM     12  N   UNL     1       0.821  -0.600  -1.060  0.00  0.00    -0.309 N 
ATOM     13  C   UNL     1       2.068  -0.192  -1.367  0.00  0.00    +0.238 C 
ATOM     14  O   UNL     1       2.691   0.495  -0.585  0.00  0.00    -0.273 OA
ATOM     15  H   UNL     1       0.323  -1.150  -1.685  0.00  0.00    +0.149 HD
BRANCH  12  17
ATOM     16  C   UNL     1       0.140   1.311   0.305  0.00  0.00    +0.031 C 
ATOM     17  C   UNL     1       0.218  -0.214   0.218  0.00  0.00    +0.026 C 
ATOM     18  C   UNL     1       1.075  -0.747   1.368  0.00  0.00    +0.031 C 
ATOM     19  C   UNL     1      -1.190  -0.804   0.316  0.00  0.00    +0.031 C 
ENDBRANCH  12  17
ENDBRANCH   1  13
BRANCH   1  20
ATOM     20  N   UNL     1       4.037  -0.025  -2.775  0.00  0.00    -0.285 N 
ATOM     21  C   UNL     1       4.237   1.421  -2.646  0.00  0.00    +0.133 C 
ATOM     22  C   UNL     1       5.095  -0.835  -2.981  0.00  0.00    +0.254 C 
ATOM     23  O   UNL     1       4.929  -2.035  -3.088  0.00  0.00    -0.270 OA
BRANCH  22  24
ATOM     24  C   UNL     1       6.450  -0.268  -3.075  0.00  0.00    +0.119 A 
ATOM     25  C   UNL     1       7.238  -0.127  -1.923  0.00  0.00    +0.133 A 
ATOM     26  C   UNL     1       8.512   0.408  -2.023  0.00  0.00    +0.046 A 
ATOM     27  C   UNL     1       9.008   0.802  -3.253  0.00  0.00    +0.007 A 
ATOM     28  C   UNL     1       8.239   0.668  -4.394  0.00  0.00    +0.046 A 
ATOM     29  C   UNL     1       6.964   0.130  -4.317  0.00  0.00    +0.133 A 
BRANCH  29  30
ATOM     30  O   UNL     1       6.214  -0.006  -5.440  0.00  0.00    -0.506 OA
ATOM     31  H   UNL     1       5.666   0.765  -5.642  0.00  0.00    +0.292 HD
ENDBRANCH  29  30
BRANCH  25  32
ATOM     32  O   UNL     1       6.755  -0.512  -0.716  0.00  0.00    -0.506 OA
ATOM     33  H   UNL     1       6.944  -1.434  -0.492  0.00  0.00    +0.292 HD
ENDBRANCH  25  32
ENDBRANCH  22  24
ENDBRANCH   1  20
TORSDOF 8
