REMARK  Name = ZINC40064491
REMARK  10 active torsions:
REMARK  status: ('A' for Active; 'I' for Inactive)
REMARK    1  A    between atoms: C_1  and  C_2
REMARK    2  A    between atoms: C_2  and  C_3
REMARK    3  A    between atoms: C_3  and  C_4
REMARK    4  A    between atoms: C_4  and  O_5
REMARK    5  A    between atoms: O_5  and  C_6
REMARK    6  A    between atoms: C_9  and  C_12
REMARK    7  A    between atoms: C_20  and  C_35
REMARK    8  A    between atoms: C_21  and  C_34
REMARK    9  A    between atoms: N_27  and  C_28
REMARK   10  A    between atoms: C_28  and  C_29
REMARK                            x       y       z     vdW  Elec       q    Type
REMARK                         _______ _______ _______ _____ _____    ______ ____
ROOT
ATOM      1  C   UNL     1       1.846  -8.063  -3.114  0.00  0.00    +0.145 C 
ATOM      2  C   UNL     1       0.846  -8.541  -4.115  0.00  0.00    +0.072 A 
ATOM      3  C   UNL     1      -0.620  -8.492  -4.115  0.00  0.00    +0.199 A 
ATOM      4  O   UNL     1      -1.267  -7.856  -3.302  0.00  0.00    -0.287 OA
ATOM      5  C   UNL     1      -1.241  -9.291  -5.202  0.00  0.00    +0.065 A 
ATOM      6  C   UNL     1      -2.619  -9.509  -5.220  0.00  0.00    +0.015 A 
ATOM      7  C   UNL     1      -3.175 -10.251  -6.224  0.00  0.00    +0.004 A 
ATOM      8  C   UNL     1      -2.374 -10.788  -7.222  0.00  0.00    -0.044 A 
ATOM      9  C   UNL     1      -1.012 -10.581  -7.221  0.00  0.00    -0.005 A 
ATOM     10  C   UNL     1      -0.421  -9.826  -6.208  0.00  0.00    +0.143 A 
ATOM     11  O   UNL     1       0.917  -9.628  -6.232  0.00  0.00    -0.449 OA
ATOM     12  C   UNL     1       1.532  -9.102  -5.154  0.00  0.00    +0.199 A 
ATOM     13  C   UNL     1       2.973  -9.012  -4.860  0.00  0.00    +0.284 C 
ATOM     14  O   UNL     1       3.858  -9.423  -5.583  0.00  0.00    -0.267 OA
ATOM     15  N   UNL     1       3.166  -8.405  -3.669  0.00  0.00    -0.276 N 
ATOM     16  C   UNL     1      -0.160 -11.173  -8.314  0.00  0.00    +0.048 C 
ATOM     17  C   UNL     1      -3.001 -11.606  -8.321  0.00  0.00    +0.044 C 
ENDROOT
BRANCH   1  21
ATOM     18  C   UNL     1       1.514  -3.833  -2.603  0.00  0.00    +0.121 A 
ATOM     19  C   UNL     1       0.980  -4.692  -1.654  0.00  0.00    +0.046 A 
ATOM     20  C   UNL     1       1.088  -6.059  -1.821  0.00  0.00    +0.009 A 
ATOM     21  C   UNL     1       1.729  -6.571  -2.934  0.00  0.00    -0.022 A 
ATOM     22  C   UNL     1       2.262  -5.718  -3.882  0.00  0.00    +0.009 A 
ATOM     23  C   UNL     1       2.151  -4.350  -3.722  0.00  0.00    +0.046 A 
BRANCH  18  24
ATOM     24  O   UNL     1       1.408  -2.488  -2.441  0.00  0.00    -0.492 OA
BRANCH  24  25
ATOM     25  C   UNL     1       0.739  -2.027  -1.265  0.00  0.00    +0.229 C 
BRANCH  25  26
ATOM     26  C   UNL     1       0.718  -0.497  -1.257  0.00  0.00    +0.041 C 
BRANCH  26  28
ATOM     27  C   UNL     1      -0.019   1.526   0.010  0.00  0.00    +0.004 C 
ATOM     28  C   UNL     1       0.002  -0.004   0.002  0.00  0.00    -0.000 C 
ENDBRANCH  26  28
ENDBRANCH  25  26
ENDBRANCH  24  25
ENDBRANCH  18  24
ENDBRANCH   1  21
BRANCH  15  29
ATOM     29  C   UNL     1       4.461  -8.134  -3.039  0.00  0.00    +0.183 C 
BRANCH  29  30
ATOM     30  C   UNL     1       4.851  -9.303  -2.171  0.00  0.00    +0.122 A 
ATOM     31  C   UNL     1       5.569 -10.370  -2.565  0.00  0.00    +0.046 A 
ATOM     32  C   UNL     1       5.699 -11.215  -1.439  0.00  0.00    +0.041 A 
ATOM     33  C   UNL     1       5.054 -10.613  -0.424  0.00  0.00    +0.195 A 
ATOM     34  O   UNL     1       4.547  -9.452  -0.872  0.00  0.00    -0.466 OA
ENDBRANCH  29  30
ENDBRANCH  15  29
TORSDOF 7
