REMARK  Name = ZINC12814923
REMARK  8 active torsions:
REMARK  status: ('A' for Active; 'I' for Inactive)
REMARK    1  A    between atoms: C_1  and  C_2
REMARK    2  A    between atoms: N_5  and  S_8
REMARK    3  A    between atoms: S_8  and  C_11
REMARK    4  A    between atoms: C_14  and  C_17
REMARK    5  A    between atoms: N_19  and  C_20
REMARK    6  A    between atoms: N_19  and  C_21
REMARK    7  A    between atoms: C_21  and  C_22
REMARK    8  A    between atoms: N_24  and  C_25
REMARK                            x       y       z     vdW  Elec       q    Type
REMARK                         _______ _______ _______ _____ _____    ______ ____
ROOT
ATOM      1  C   UNL     1      -0.315  -2.024   0.981  0.00  0.00    +0.247 C 
ATOM      2  O   UNL     1       0.752  -2.017   0.399  0.00  0.00    -0.270 OA
ATOM      3  N   UNL     1      -0.824  -3.183   1.442  0.00  0.00    -0.292 N 
ATOM      4  C   UNL     1      -2.155  -3.207   2.054  0.00  0.00    +0.133 C 
ENDROOT
BRANCH   1   8
ATOM      5  C   UNL     1      -2.441   1.608   1.560  0.00  0.00    +0.106 A 
ATOM      6  C   UNL     1      -3.124   0.460   1.198  0.00  0.00    +0.029 A 
ATOM      7  C   UNL     1      -2.440  -0.723   1.008  0.00  0.00    +0.015 A 
ATOM      8  C   UNL     1      -1.055  -0.760   1.182  0.00  0.00    +0.037 A 
ATOM      9  C   UNL     1      -0.372   0.402   1.547  0.00  0.00    +0.015 A 
ATOM     10  C   UNL     1      -1.069   1.578   1.733  0.00  0.00    +0.029 A 
BRANCH   5  11
ATOM     11  S   UNL     1      -3.323   3.114   1.799  0.00  0.00    +0.061 S 
ATOM     12  O   UNL     1      -2.390   4.167   1.601  0.00  0.00    -0.153 OA
ATOM     13  O   UNL     1      -4.522   3.007   1.045  0.00  0.00    -0.153 OA
BRANCH  11  18
ATOM     14  C   UNL     1      -5.726   5.259   6.543  0.00  0.00    +0.007 C 
ATOM     15  C   UNL     1      -4.948   4.211   5.745  0.00  0.00    -0.012 C 
ATOM     16  C   UNL     1      -3.683   4.847   5.165  0.00  0.00    +0.020 C 
ATOM     17  C   UNL     1      -2.889   3.786   4.396  0.00  0.00    +0.110 C 
ATOM     18  N   UNL     1      -3.770   3.172   3.393  0.00  0.00    -0.177 NA
ATOM     19  C   UNL     1      -5.057   2.615   3.830  0.00  0.00    +0.110 C 
ATOM     20  C   UNL     1      -5.824   3.683   4.606  0.00  0.00    +0.020 C 
ENDBRANCH  11  18
ENDBRANCH   5  11
ENDBRANCH   1   8
BRANCH   3  21
ATOM     21  C   UNL     1      -0.046  -4.420   1.332  0.00  0.00    +0.203 C 
BRANCH  21  22
ATOM     22  C   UNL     1       0.801  -4.592   2.567  0.00  0.00    +0.235 C 
ATOM     23  O   UNL     1       0.759  -3.763   3.452  0.00  0.00    -0.274 OA
ATOM     24  N   UNL     1       1.605  -5.666   2.688  0.00  0.00    -0.282 N 
ATOM     25  H   UNL     1       1.597  -6.358   2.008  0.00  0.00    +0.155 HD
BRANCH  24  26
ATOM     26  C   UNL     1       2.453  -5.785   3.796  0.00  0.00    +0.070 A 
ATOM     27  C   UNL     1       3.153  -4.678   4.260  0.00  0.00    +0.064 A 
ATOM     28  C   UNL     1       3.985  -4.798   5.356  0.00  0.00    +0.022 A 
ATOM     29  C   UNL     1       4.130  -6.020   5.987  0.00  0.00    +0.003 A 
ATOM     30  C   UNL     1       3.439  -7.125   5.525  0.00  0.00    +0.022 A 
ATOM     31  C   UNL     1       2.601  -7.011   4.432  0.00  0.00    +0.064 A 
ATOM     32 CL   UNL     1       1.734  -8.400   3.853  0.00  0.00    -0.082 Cl
ATOM     33 CL   UNL     1       2.977  -3.144   3.465  0.00  0.00    -0.082 Cl
ENDBRANCH  24  26
ENDBRANCH  21  22
ENDBRANCH   3  21
TORSDOF 6
