REMARK  Name = ZINC16041355
REMARK  7 active torsions:
REMARK  status: ('A' for Active; 'I' for Inactive)
REMARK    1  A    between atoms: C_4  and  N_29
REMARK    2  A    between atoms: C_5  and  C_7
REMARK    3  A    between atoms: N_9  and  C_10
REMARK    4  A    between atoms: C_10  and  C_12
REMARK    5  A    between atoms: C_10  and  O_16
REMARK    6  A    between atoms: O_16  and  C_17
REMARK    7  A    between atoms: C_17  and  C_18
REMARK                            x       y       z     vdW  Elec       q    Type
REMARK                         _______ _______ _______ _____ _____    ______ ____
ROOT
ATOM      1  C   UNL     1       4.980   2.291   1.525  0.00  0.00    +0.257 C 
ENDROOT
BRANCH   1   4
ATOM      2  C   UNL     1       5.502   4.651   1.214  0.00  0.00    +0.248 C 
ATOM      3  O   UNL     1       5.821   4.399   0.069  0.00  0.00    -0.270 OA
ATOM      4  N   UNL     1       5.067   3.666   2.025  0.00  0.00    -0.283 N 
ATOM      5  H   UNL     1       4.812   3.866   2.939  0.00  0.00    +0.152 HD
BRANCH   2  10
ATOM      6  C   UNL     1       4.557   7.946   2.749  0.00  0.00    +0.001 A 
ATOM      7  C   UNL     1       5.753   8.636   2.662  0.00  0.00    +0.002 A 
ATOM      8  C   UNL     1       6.867   8.034   2.105  0.00  0.00    +0.033 A 
ATOM      9  C   UNL     1       6.793   6.740   1.633  0.00  0.00    +0.138 A 
ATOM     10  C   UNL     1       5.589   6.038   1.718  0.00  0.00    +0.067 A 
ATOM     11  C   UNL     1       4.467   6.653   2.276  0.00  0.00    +0.015 A 
BRANCH   9  12
ATOM     12  N   UNL     1       7.986   6.097   1.038  0.00  0.00    +0.057 N 
ATOM     13  O   UNL     1       8.999   6.747   0.853  0.00  0.00    -0.126 OA
ATOM     14  O   UNL     1       7.954   4.918   0.735  0.00  0.00    -0.126 OA
ENDBRANCH   9  12
ENDBRANCH   2  10
ENDBRANCH   1   4
BRANCH   1  15
ATOM     15  C   UNL     1       5.328   1.316   2.652  0.00  0.00    +0.233 C 
ATOM     16 CL   UNL     1       5.221  -0.376   2.037  0.00  0.00    -0.079 Cl
ATOM     17 CL   UNL     1       7.005   1.640   3.231  0.00  0.00    -0.079 Cl
ATOM     18 CL   UNL     1       4.169   1.534   4.015  0.00  0.00    -0.079 Cl
ENDBRANCH   1  15
BRANCH   1  19
ATOM     19  O   UNL     1       3.652   2.034   1.066  0.00  0.00    -0.354 OA
BRANCH  19  20
ATOM     20  C   UNL     1       3.342   2.643  -0.189  0.00  0.00    +0.164 C 
BRANCH  20  21
ATOM     21  C   UNL     1       1.903   2.303  -0.580  0.00  0.00    +0.001 C 
ATOM     22  C   UNL     1       1.784   0.797  -0.820  0.00  0.00    +0.002 C 
ATOM     23  C   UNL     1       0.349   0.481  -1.254  0.00  0.00    -0.018 C 
ATOM     24  C   UNL     1       0.032   1.270  -2.524  0.00  0.00    -0.078 C 
ATOM     25  C   UNL     1       1.528   3.064  -1.856  0.00  0.00    -0.063 C 
ATOM     26  C   UNL     1       1.617   4.564  -1.558  0.00  0.00    -0.015 C 
ATOM     27  C   UNL     1       1.206   5.365  -2.795  0.00  0.00    -0.003 C 
ATOM     28  C   UNL     1      -0.218   4.961  -3.191  0.00  0.00    -0.019 C 
ATOM     29  C   UNL     1      -0.245   3.458  -3.470  0.00  0.00    -0.078 C 
ATOM     30  N   UNL     1       0.141   2.715  -2.256  0.00  0.00    +0.382 N 
ATOM     31  H   UNL     1      -0.497   2.964  -1.491  0.00  0.00    -0.081 HD
ENDBRANCH  20  21
ENDBRANCH  19  20
ENDBRANCH   1  19
TORSDOF 7
