REMARK  Name = ZINC52094838
REMARK  3 active torsions:
REMARK  status: ('A' for Active; 'I' for Inactive)
REMARK    1  A    between atoms: C_5  and  C_7
REMARK    2  A    between atoms: C_7  and  C_9
REMARK    3  A    between atoms: C_7  and  O_22
REMARK                            x       y       z     vdW  Elec       q    Type
REMARK                         _______ _______ _______ _____ _____    ______ ____
ROOT
ATOM      1  C   UNL     1       1.244  -2.746  -1.421  0.00  0.00    +0.001 A 
ATOM      2  C   UNL     1       0.053  -3.017  -2.066  0.00  0.00    +0.035 A 
ATOM      3  C   UNL     1       0.066  -3.532  -3.353  0.00  0.00    +0.067 A 
ATOM      4  C   UNL     1       1.284  -3.776  -3.992  0.00  0.00    +0.068 A 
ATOM      5  C   UNL     1       2.475  -3.502  -3.337  0.00  0.00    +0.043 A 
ATOM      6  C   UNL     1       2.451  -2.983  -2.056  0.00  0.00    +0.026 A 
ATOM      7 BR   UNL     1       4.075  -2.600  -1.165  0.00  0.00    -0.050 Br
ATOM      8  N   UNL     1       0.982  -4.284  -5.253  0.00  0.00    -0.306 N 
ATOM      9  H   UNL     1       1.627  -4.548  -5.928  0.00  0.00    +0.170 HD
ATOM     10  C   UNL     1      -0.357  -4.346  -5.376  0.00  0.00    +0.325 A 
ATOM     11  O   UNL     1      -0.952  -4.747  -6.359  0.00  0.00    -0.247 OA
ATOM     12  N   UNL     1      -0.937  -3.900  -4.247  0.00  0.00    -0.306 N 
ATOM     13  H   UNL     1      -1.892  -3.844  -4.083  0.00  0.00    +0.170 HD
ENDROOT
BRANCH   1  14
ATOM     14  C   UNL     1       1.229  -2.186  -0.022  0.00  0.00    +0.177 C 
BRANCH  14  19
ATOM     15  C   UNL     1      -1.403   0.510   0.225  0.00  0.00    +0.000 A 
ATOM     16  C   UNL     1      -0.661   1.646  -0.043  0.00  0.00    +0.001 A 
ATOM     17  C   UNL     1       0.692   1.542  -0.305  0.00  0.00    +0.015 A 
ATOM     18  C   UNL     1       1.304   0.301  -0.298  0.00  0.00    +0.024 A 
ATOM     19  C   UNL     1       0.562  -0.834  -0.029  0.00  0.00    -0.001 A 
ATOM     20  C   UNL     1      -0.791  -0.729   0.232  0.00  0.00    +0.007 A 
ATOM     21 BR   UNL     1       3.156   0.158  -0.656  0.00  0.00    -0.050 Br
ENDBRANCH  14  19
BRANCH  14  22
ATOM     22  O   UNL     1       0.505  -3.069   0.837  0.00  0.00    -0.382 OA
ATOM     23  H   UNL     1      -0.416  -3.206   0.575  0.00  0.00    +0.211 HD
ENDBRANCH  14  22
ENDBRANCH   1  14
TORSDOF 3
