REMARK  Name = ZINC37438948
REMARK  9 active torsions:
REMARK  status: ('A' for Active; 'I' for Inactive)
REMARK    1  A    between atoms: C_1  and  C_2
REMARK    2  A    between atoms: C_7  and  N_8
REMARK    3  A    between atoms: C_11  and  C_14
REMARK    4  A    between atoms: N_16  and  C_17
REMARK    5  A    between atoms: N_16  and  C_24
REMARK    6  A    between atoms: C_17  and  C_18
REMARK    7  A    between atoms: C_24  and  C_25
REMARK    8  A    between atoms: N_27  and  C_28
REMARK    9  A    between atoms: C_28  and  C_29
REMARK                            x       y       z     vdW  Elec       q    Type
REMARK                         _______ _______ _______ _____ _____    ______ ____
ROOT
ATOM      1  C   UNL     1       0.727  -0.530   7.314  0.00  0.00    +0.266 C 
ATOM      2  O   UNL     1       0.721  -0.988   6.187  0.00  0.00    -0.268 OA
ATOM      3  N   UNL     1       0.583   0.797   7.503  0.00  0.00    -0.283 N 
ENDROOT
BRANCH   1   7
ATOM      4  N   UNL     1       1.084  -1.390  12.103  0.00  0.00    -0.293 N 
ATOM      5  C   UNL     1       1.047  -1.720  10.758  0.00  0.00    +0.163 A 
ATOM      6  N   UNL     1       0.903  -0.932   9.711  0.00  0.00    -0.220 NA
ATOM      7  C   UNL     1       0.890  -1.424   8.471  0.00  0.00    +0.135 A 
ATOM      8  C   UNL     1       1.031  -2.778   8.291  0.00  0.00    +0.081 A 
ATOM      9  S   UNL     1       1.192  -3.325   9.985  0.00  0.00    -0.060 S 
ATOM     10  H   UNL     1       0.895  -0.481  12.385  0.00  0.00    +0.154 HD
BRANCH   4  17
ATOM     11  C   UNL     1       0.143  -1.019  14.762  0.00  0.00    +0.045 C 
ATOM     12  C   UNL     1       0.953  -2.226  14.364  0.00  0.00    -0.029 A 
ATOM     13  C   UNL     1       1.255  -3.196  15.300  0.00  0.00    +0.006 A 
ATOM     14  C   UNL     1       1.998  -4.303  14.937  0.00  0.00    +0.020 A 
ATOM     15  C   UNL     1       2.442  -4.444  13.633  0.00  0.00    +0.043 A 
ATOM     16  C   UNL     1       2.144  -3.478  12.692  0.00  0.00    +0.043 A 
ATOM     17  C   UNL     1       1.392  -2.367  13.054  0.00  0.00    +0.037 A 
ATOM     18 CL   UNL     1       3.376  -5.837  13.181  0.00  0.00    -0.083 Cl
ENDBRANCH   4  17
ENDBRANCH   1   7
BRANCH   3  19
ATOM     19  C   UNL     1       0.537   1.700   6.350  0.00  0.00    +0.143 C 
BRANCH  19  20
ATOM     20  C   UNL     1      -0.899   1.965   5.978  0.00  0.00    -0.030 A 
ATOM     21  C   UNL     1      -1.573   1.086   5.151  0.00  0.00    +0.005 A 
ATOM     22  C   UNL     1      -2.890   1.329   4.809  0.00  0.00    +0.000 A 
ATOM     23  C   UNL     1      -3.534   2.452   5.295  0.00  0.00    +0.000 A 
ATOM     24  C   UNL     1      -2.860   3.331   6.122  0.00  0.00    +0.000 A 
ATOM     25  C   UNL     1      -1.544   3.086   6.467  0.00  0.00    +0.005 A 
ENDBRANCH  19  20
ENDBRANCH   3  19
BRANCH   3  26
ATOM     26  C   UNL     1       0.474   1.336   8.860  0.00  0.00    +0.204 C 
BRANCH  26  27
ATOM     27  C   UNL     1       1.853   1.515   9.442  0.00  0.00    +0.231 C 
ATOM     28  O   UNL     1       2.830   1.221   8.787  0.00  0.00    -0.274 OA
ATOM     29  N   UNL     1       2.000   2.002  10.691  0.00  0.00    -0.312 N 
ATOM     30  H   UNL     1       1.218   2.237  11.214  0.00  0.00    +0.149 HD
BRANCH  29  31
ATOM     31  C   UNL     1       3.340   2.175  11.256  0.00  0.00    +0.135 C 
BRANCH  31  32
ATOM     32  C   UNL     1       3.226   2.739  12.674  0.00  0.00    +0.135 C 
ATOM     33  C   UNL     1       4.633   3.039  13.233  0.00  0.00    +0.035 C 
ATOM     34  C   UNL     1       4.501   2.593  14.715  0.00  0.00    +0.031 C 
ATOM     35  C   UNL     1       3.531   1.393  14.576  0.00  0.00    +0.160 C 
ATOM     36  O   UNL     1       2.614   1.770  13.534  0.00  0.00    -0.375 OA
ENDBRANCH  31  32
ENDBRANCH  29  31
ENDBRANCH  26  27
ENDBRANCH   3  26
TORSDOF 8
