REMARK  Name = ZINC04804268
REMARK  7 active torsions:
REMARK  status: ('A' for Active; 'I' for Inactive)
REMARK    1  A    between atoms: C_1  and  C_2
REMARK    2  A    between atoms: C_3  and  C_4
REMARK    3  A    between atoms: C_8  and  C_15
REMARK    4  A    between atoms: C_8  and  C_16
REMARK    5  A    between atoms: C_9  and  C_12
REMARK    6  A    between atoms: C_12  and  C_13
REMARK    7  A    between atoms: C_12  and  C_14
REMARK                            x       y       z     vdW  Elec       q    Type
REMARK                         _______ _______ _______ _____ _____    ______ ____
ROOT
ATOM      1  C   UNL     1       2.218  -0.477   3.320  0.00  0.00    +0.275 C 
ATOM      2  O   UNL     1       1.350  -0.278   4.439  0.00  0.00    -0.347 OA
ATOM      3  C   UNL     1       0.008  -0.718   4.213  0.00  0.00    +0.172 C 
ATOM      4  C   UNL     1      -0.561   0.022   2.998  0.00  0.00    +0.015 C 
ATOM      5  C   UNL     1       0.383  -0.182   1.808  0.00  0.00    +0.132 C 
ATOM      6  O   UNL     1       1.701   0.224   2.186  0.00  0.00    -0.344 OA
ATOM      7  C   UNL     1      -0.674   1.515   3.313  0.00  0.00    +0.016 C 
ATOM      8  C   UNL     1      -1.945  -0.536   2.656  0.00  0.00    +0.016 C 
ENDROOT
BRANCH   1  11
ATOM      9  C   UNL     1       3.542  -4.034   2.733  0.00  0.00    +0.035 C 
ATOM     10  C   UNL     1       3.458  -2.562   3.048  0.00  0.00    -0.030 C 
ATOM     11  C   UNL     1       2.301  -1.948   3.005  0.00  0.00    +0.029 C 
ENDBRANCH   1  11
BRANCH   5  12
ATOM     12  C   UNL     1      -0.095   0.663   0.625  0.00  0.00    +0.012 C 
ATOM     13  C   UNL     1       0.944   0.603  -0.497  0.00  0.00    +0.010 C 
ATOM     14  C   UNL     1      -1.429   0.117   0.113  0.00  0.00    +0.010 C 
ENDBRANCH   5  12
TORSDOF 2
