REMARK  Name = ZINC11634324
REMARK  6 active torsions:
REMARK  status: ('A' for Active; 'I' for Inactive)
REMARK    1  A    between atoms: C_1  and  C_2
REMARK    2  A    between atoms: C_2  and  N_3
REMARK    3  A    between atoms: N_12  and  C_13
REMARK    4  A    between atoms: C_13  and  C_15
REMARK    5  A    between atoms: C_18  and  S_21
REMARK    6  A    between atoms: S_21  and  N_24
REMARK                            x       y       z     vdW  Elec       q    Type
REMARK                         _______ _______ _______ _____ _____    ______ ____
ROOT
ATOM      1  C   UNL     1       0.539  -3.756  -1.426  0.00  0.00    +0.039 A 
ATOM      2  C   UNL     1      -0.335  -3.967  -0.359  0.00  0.00    +0.015 A 
ATOM      3  C   UNL     1      -1.454  -3.172  -0.220  0.00  0.00    +0.029 A 
ATOM      4  C   UNL     1      -1.711  -2.168  -1.136  0.00  0.00    +0.106 A 
ATOM      5  C   UNL     1      -0.851  -1.957  -2.199  0.00  0.00    +0.029 A 
ATOM      6  C   UNL     1       0.275  -2.741  -2.346  0.00  0.00    +0.015 A 
ENDROOT
BRANCH   4   7
ATOM      7  S   UNL     1      -3.143  -1.157  -0.952  0.00  0.00    +0.061 S 
ATOM      8  O   UNL     1      -4.076  -1.911  -0.191  0.00  0.00    -0.153 OA
ATOM      9  O   UNL     1      -3.448  -0.646  -2.242  0.00  0.00    -0.153 OA
BRANCH   7  10
ATOM     10  N   UNL     1      -2.709   0.140  -0.018  0.00  0.00    -0.177 NA
ATOM     11  C   UNL     1      -2.207   1.339  -0.625  0.00  0.00    +0.109 C 
ATOM     12  C   UNL     1      -0.677   1.394  -0.858  0.00  0.00    +0.017 C 
ATOM     13  C   UNL     1       0.070   0.808   0.366  0.00  0.00    +0.001 C 
ATOM     14  C   UNL     1      -0.603   1.212   1.645  0.00  0.00    +0.001 C 
ATOM     15  C   UNL     1      -1.484   0.029   2.032  0.00  0.00    +0.017 C 
ATOM     16  C   UNL     1      -2.836   0.081   1.477  0.00  0.00    +0.109 C 
ENDBRANCH   7  10
ENDBRANCH   4   7
BRANCH   1  17
ATOM     17  C   UNL     1       1.742  -4.606  -1.581  0.00  0.00    +0.269 C 
ATOM     18  O   UNL     1       1.970  -5.492  -0.776  0.00  0.00    -0.268 OA
BRANCH  17  28
ATOM     19  N   UNL     1       4.612  -5.105  -3.711  0.00  0.00    -0.321 N 
ATOM     20  C   UNL     1       5.673  -5.990  -3.691  0.00  0.00    +0.058 A 
ATOM     21  C   UNL     1       6.746  -6.084  -4.592  0.00  0.00    +0.028 A 
ATOM     22  C   UNL     1       7.726  -7.033  -4.422  0.00  0.00    +0.017 A 
ATOM     23  C   UNL     1       7.687  -7.923  -3.360  0.00  0.00    +0.019 A 
ATOM     24  C   UNL     1       6.641  -7.853  -2.457  0.00  0.00    +0.032 A 
ATOM     25  C   UNL     1       5.660  -6.904  -2.627  0.00  0.00    +0.040 A 
ATOM     26  S   UNL     1       4.191  -6.467  -1.733  0.00  0.00    -0.052 S 
ATOM     27  C   UNL     1       3.657  -5.163  -2.744  0.00  0.00    +0.167 A 
ATOM     28  N   UNL     1       2.577  -4.401  -2.604  0.00  0.00    -0.152 NA
ATOM     29 BR   UNL     1       9.049  -9.218  -3.148  0.00  0.00    -0.050 Br
BRANCH  19  31
ATOM     30  C   UNL     1       3.047  -3.907  -5.161  0.00  0.00    +0.027 C 
ATOM     31  C   UNL     1       4.515  -4.102  -4.775  0.00  0.00    +0.121 C 
ENDBRANCH  19  31
ENDBRANCH  17  28
ENDBRANCH   1  17
TORSDOF 5
