REMARK  Name = ZINC38789174
REMARK  9 active torsions:
REMARK  status: ('A' for Active; 'I' for Inactive)
REMARK    1  A    between atoms: C_1  and  C_2
REMARK    2  A    between atoms: C_4  and  C_26
REMARK    3  A    between atoms: C_7  and  N_8
REMARK    4  A    between atoms: N_8  and  C_9
REMARK    5  A    between atoms: C_9  and  C_10
REMARK    6  A    between atoms: C_15  and  O_24
REMARK    7  A    between atoms: C_16  and  O_22
REMARK    8  A    between atoms: O_22  and  C_23
REMARK    9  A    between atoms: O_24  and  C_25
REMARK                            x       y       z     vdW  Elec       q    Type
REMARK                         _______ _______ _______ _____ _____    ______ ____
ROOT
ATOM      1  N   UNL     1       0.025  -0.016   2.415  0.00  0.00    -0.343 N 
ATOM      2  H   UNL     1       0.012   0.954   2.422  0.00  0.00    +0.146 HD
ENDROOT
BRANCH   1   9
ATOM      3  C   UNL     1      -0.018   1.503   0.010  0.00  0.00    +0.045 C 
ATOM      4  C   UNL     1       0.002  -0.004   0.002  0.00  0.00    -0.029 A 
ATOM      5  C   UNL     1       0.006  -0.689  -1.198  0.00  0.00    +0.014 A 
ATOM      6  C   UNL     1       0.024  -2.071  -1.206  0.00  0.00    +0.012 A 
ATOM      7  C   UNL     1       0.039  -2.773  -0.014  0.00  0.00    +0.011 A 
ATOM      8  C   UNL     1       0.036  -2.095   1.188  0.00  0.00    +0.023 A 
ATOM      9  C   UNL     1       0.023  -0.706   1.200  0.00  0.00    +0.030 A 
BRANCH   6  10
ATOM     10  C   UNL     1       0.027  -2.815  -2.517  0.00  0.00    +0.293 C 
ATOM     11  N   UNL     1      -0.624  -4.122  -2.358  0.00  0.00    -0.289 N 
ATOM     12  C   UNL     1       0.339  -5.083  -2.670  0.00  0.00    +0.142 A 
ATOM     13  C   UNL     1       1.526  -4.438  -3.007  0.00  0.00    +0.161 A 
ATOM     14  C   UNL     1       2.633  -5.202  -3.356  0.00  0.00    +0.050 A 
ATOM     15  C   UNL     1       2.511  -6.584  -3.356  0.00  0.00    +0.021 A 
ATOM     16  C   UNL     1       1.303  -7.156  -3.012  0.00  0.00    +0.084 A 
ATOM     17  N   UNL     1       0.267  -6.407  -2.685  0.00  0.00    -0.347 N 
ATOM     18  O   UNL     1       1.370  -3.089  -2.925  0.00  0.00    -0.463 OA
ATOM     19  H   UNL     1      -1.542  -4.285  -2.089  0.00  0.00    +0.151 HD
ATOM     20  H   UNL     1      -0.569  -6.837  -2.448  0.00  0.00    +0.167 HD
ENDBRANCH   6  10
ENDBRANCH   1   9
BRANCH   1  21
ATOM     21  C   UNL     1       0.047  -0.758   3.678  0.00  0.00    +0.118 C 
BRANCH  21  22
ATOM     22  C   UNL     1       0.045   0.228   4.849  0.00  0.00    +0.115 C 
ATOM     23  C   UNL     1      -0.154  -0.566   6.125  0.00  0.00    -0.003 C 
ATOM     24  C   UNL     1       0.804  -0.459   7.084  0.00  0.00    -0.003 A 
ATOM     25  C   UNL     1       0.685  -1.194   8.345  0.00  0.00    +0.059 A 
ATOM     26  C   UNL     1       1.661  -1.063   9.280  0.00  0.00    +0.162 A 
ATOM     27  C   UNL     1       2.778  -0.236   9.056  0.00  0.00    +0.163 A 
ATOM     28  C   UNL     1       2.942   0.477   7.890  0.00  0.00    +0.073 A 
ATOM     29  C   UNL     1       1.983   0.401   6.870  0.00  0.00    +0.044 A 
ATOM     30  N   UNL     1       2.155   1.099   5.745  0.00  0.00    -0.284 N 
ATOM     31  C   UNL     1       1.293   1.075   4.744  0.00  0.00    +0.226 C 
ATOM     32  O   UNL     1       1.504   1.731   3.742  0.00  0.00    -0.275 OA
ATOM     33  H   UNL     1       2.949   1.649   5.658  0.00  0.00    +0.155 HD
BRANCH  27  34
ATOM     34  O   UNL     1       3.724  -0.139  10.021  0.00  0.00    -0.491 OA
ATOM     35  C   UNL     1       4.840   0.712   9.752  0.00  0.00    +0.277 C 
ENDBRANCH  27  34
BRANCH  26  36
ATOM     36  O   UNL     1       1.557  -1.741  10.453  0.00  0.00    -0.491 OA
ATOM     37  C   UNL     1       0.402  -2.565  10.627  0.00  0.00    +0.277 C 
ENDBRANCH  26  36
ENDBRANCH  21  22
ENDBRANCH   1  21
TORSDOF 6
