REMARK  Name = ZINC66178413
REMARK  9 active torsions:
REMARK  status: ('A' for Active; 'I' for Inactive)
REMARK    1  A    between atoms: C_1  and  N_2
REMARK    2  A    between atoms: N_2  and  C_3
REMARK    3  A    between atoms: N_2  and  C_4
REMARK    4  A    between atoms: C_4  and  C_6
REMARK    5  A    between atoms: C_4  and  C_24
REMARK    6  A    between atoms: C_6  and  N_7
REMARK    7  A    between atoms: N_10  and  C_11
REMARK    8  A    between atoms: N_10  and  C_12
REMARK    9  A    between atoms: N_15  and  C_18
REMARK                            x       y       z     vdW  Elec       q    Type
REMARK                         _______ _______ _______ _____ _____    ______ ____
ROOT
ATOM      1  N   UNL     1      -1.766   1.531  -1.169  0.00  0.00    -0.300 N 
ATOM      2  C   UNL     1      -2.260   2.263  -2.188  0.00  0.00    +0.302 C 
ATOM      3  O   UNL     1      -2.936   1.731  -3.047  0.00  0.00    -0.253 OA
ATOM      4  N   UNL     1      -2.004   3.585  -2.254  0.00  0.00    -0.286 N 
ATOM      5  C   UNL     1      -1.189   4.226  -1.219  0.00  0.00    +0.134 C 
ATOM      6  H   UNL     1      -1.227   1.956  -0.484  0.00  0.00    +0.150 HD
ENDROOT
BRANCH   4   7
ATOM      7  C   UNL     1      -2.541   4.380  -3.361  0.00  0.00    +0.074 C 
ATOM      8  C   UNL     1      -1.387   5.024  -4.135  0.00  0.00    +0.004 C 
ATOM      9  C   UNL     1      -1.957   5.917  -5.240  0.00  0.00    -0.077 C 
ATOM     10  N   UNL     1      -2.794   6.965  -4.644  0.00  0.00    +0.382 N 
ATOM     11  C   UNL     1      -3.942   6.357  -3.960  0.00  0.00    -0.077 C 
ATOM     12  C   UNL     1      -3.449   5.482  -2.806  0.00  0.00    +0.004 C 
ATOM     13  H   UNL     1      -2.248   7.492  -3.979  0.00  0.00    -0.081 HD
BRANCH  10  14
ATOM     14  C   UNL     1      -3.276   7.865  -5.701  0.00  0.00    -0.064 C 
ATOM     15  C   UNL     1      -2.080   8.516  -6.403  0.00  0.00    +0.013 C 
ATOM     16  C   UNL     1      -2.592   9.510  -7.448  0.00  0.00    +0.158 C 
ATOM     17  O   UNL     1      -3.423  10.484  -6.812  0.00  0.00    -0.380 OA
ATOM     18  C   UNL     1      -4.581   9.937  -6.179  0.00  0.00    +0.158 C 
ATOM     19  C   UNL     1      -4.149   8.960  -5.082  0.00  0.00    +0.013 C 
ENDBRANCH  10  14
ENDBRANCH   4   7
BRANCH   1  20
ATOM     20  C   UNL     1      -2.044   0.095  -1.098  0.00  0.00    +0.095 C 
BRANCH  20  21
ATOM     21  C   UNL     1      -1.282  -0.514   0.081  0.00  0.00    -0.020 C 
BRANCH  21  22
ATOM     22  C   UNL     1      -1.799   0.071   1.370  0.00  0.00    -0.052 A 
ATOM     23  C   UNL     1      -1.113   1.090   2.003  0.00  0.00    +0.009 A 
ATOM     24  C   UNL     1      -1.605   1.594   3.161  0.00  0.00    +0.045 A 
ATOM     25  S   UNL     1      -3.083   0.619   3.389  0.00  0.00    -0.105 S 
ATOM     26  C   UNL     1      -2.947  -0.391   1.923  0.00  0.00    +0.047 A 
ENDBRANCH  21  22
BRANCH  21  28
ATOM     27  C   UNL     1      -0.983  -2.539  -1.170  0.00  0.00    -0.096 C 
ATOM     28  N   UNL     1      -1.477  -1.970   0.091  0.00  0.00    +0.382 N 
ATOM     29  C   UNL     1      -0.736  -2.556   1.216  0.00  0.00    -0.096 C 
ATOM     30  H   UNL     1      -2.459  -2.177   0.191  0.00  0.00    -0.082 HD
ENDBRANCH  21  28
ENDBRANCH  20  21
ENDBRANCH   1  20
TORSDOF 6
