REMARK  Name = ZINC22745515
REMARK  8 active torsions:
REMARK  status: ('A' for Active; 'I' for Inactive)
REMARK    1  A    between atoms: C_1  and  O_2
REMARK    2  A    between atoms: O_2  and  C_3
REMARK    3  A    between atoms: C_5  and  C_13
REMARK    4  A    between atoms: C_7  and  O_11
REMARK    5  A    between atoms: C_8  and  O_9
REMARK    6  A    between atoms: O_9  and  C_10
REMARK    7  A    between atoms: O_11  and  C_12
REMARK    8  A    between atoms: C_20  and  C_34
REMARK                            x       y       z     vdW  Elec       q    Type
REMARK                         _______ _______ _______ _____ _____    ______ ____
ROOT
ATOM      1  C   UNL     1      -4.871   0.264   0.038  0.00  0.00    +0.032 C 
ATOM      2  C   UNL     1      -5.691  -0.081   1.286  0.00  0.00    +0.088 C 
ATOM      3  C   UNL     1      -6.997   0.659   1.233  0.00  0.00    +0.164 C 
ATOM      4  O   UNL     1      -7.557   0.951   2.272  0.00  0.00    -0.292 OA
ATOM      5  C   UNL     1      -7.588   1.023   0.008  0.00  0.00    +0.040 C 
ATOM      6  H   UNL     1      -7.237   0.660  -3.198  0.00  0.00    +0.155 HD
ATOM      7  C   UNL     1      -8.899   1.773   0.076  0.00  0.00    +0.162 C 
ATOM      8  N   UNL     1      -9.207   2.369  -1.221  0.00  0.00    -0.299 N 
ATOM      9  C   UNL     1     -10.126   3.322  -1.553  0.00  0.00    +0.071 A 
ATOM     10  C   UNL     1     -11.052   4.043  -0.807  0.00  0.00    +0.028 A 
ATOM     11  C   UNL     1     -11.844   4.951  -1.491  0.00  0.00    +0.002 A 
ATOM     12  C   UNL     1     -11.728   5.143  -2.857  0.00  0.00    +0.002 A 
ATOM     13  C   UNL     1     -10.814   4.440  -3.621  0.00  0.00    +0.030 A 
ATOM     14  C   UNL     1     -10.003   3.517  -2.952  0.00  0.00    +0.091 A 
ATOM     15  N   UNL     1      -9.032   2.690  -3.389  0.00  0.00    -0.214 NA
ATOM     16  C   UNL     1      -8.555   2.012  -2.381  0.00  0.00    +0.202 A 
ATOM     17  N   UNL     1      -7.549   1.062  -2.372  0.00  0.00    -0.288 N 
ATOM     18  C   UNL     1      -7.002   0.702  -1.164  0.00  0.00    +0.020 C 
ATOM     19  C   UNL     1      -5.708  -0.077  -1.196  0.00  0.00    +0.060 C 
ENDROOT
BRANCH   1  22
ATOM     20  C   UNL     1      -1.201  -0.638   0.010  0.00  0.00    +0.165 A 
ATOM     21  C   UNL     1      -2.375   0.101   0.019  0.00  0.00    +0.053 A 
ATOM     22  C   UNL     1      -3.598  -0.543   0.028  0.00  0.00    -0.036 A 
ATOM     23  C   UNL     1      -3.657  -1.924   0.027  0.00  0.00    +0.053 A 
ATOM     24  C   UNL     1      -2.488  -2.670   0.017  0.00  0.00    +0.165 A 
ATOM     25  C   UNL     1      -1.256  -2.027   0.003  0.00  0.00    +0.204 A 
BRANCH  20  27
ATOM     26  C   UNL     1      -0.017   1.425   0.010  0.00  0.00    +0.277 C 
ATOM     27  O   UNL     1       0.002  -0.004   0.002  0.00  0.00    -0.491 OA
ENDBRANCH  20  27
BRANCH  25  28
ATOM     28  O   UNL     1      -0.106  -2.755  -0.012  0.00  0.00    -0.488 OA
ATOM     29  C   UNL     1       0.454  -3.109   1.254  0.00  0.00    +0.277 C 
ENDBRANCH  25  28
BRANCH  24  30
ATOM     30  O   UNL     1      -2.547  -4.028   0.017  0.00  0.00    -0.491 OA
ATOM     31  C   UNL     1      -3.847  -4.621   0.026  0.00  0.00    +0.277 C 
ENDBRANCH  24  30
ENDBRANCH   1  22
BRANCH   7  32
ATOM     32  C   UNL     1     -10.001   0.820   0.459  0.00  0.00    +0.017 A 
ATOM     33  C   UNL     1     -10.829   0.857   1.532  0.00  0.00    +0.013 A 
ATOM     34  C   UNL     1     -11.778  -0.136   1.681  0.00  0.00    +0.008 A 
ATOM     35  C   UNL     1     -11.854  -1.118   0.750  0.00  0.00    +0.045 A 
ATOM     36  S   UNL     1     -10.561  -0.649  -0.388  0.00  0.00    -0.099 S 
ENDBRANCH   7  32
TORSDOF 5
