REMARK  Name = ZINC33073479
REMARK  9 active torsions:
REMARK  status: ('A' for Active; 'I' for Inactive)
REMARK    1  A    between atoms: C_1  and  C_2
REMARK    2  A    between atoms: C_2  and  N_3
REMARK    3  A    between atoms: N_6  and  C_9
REMARK    4  A    between atoms: C_9  and  C_10
REMARK    5  A    between atoms: C_10  and  C_11
REMARK    6  A    between atoms: C_11  and  N_12
REMARK    7  A    between atoms: C_13  and  C_15
REMARK    8  A    between atoms: C_21  and  C_23
REMARK    9  A    between atoms: C_24  and  C_34
REMARK                            x       y       z     vdW  Elec       q    Type
REMARK                         _______ _______ _______ _____ _____    ______ ____
ROOT
ATOM      1  C   UNL     1      -3.029   2.859  -1.482  0.00  0.00    +0.078 C 
ATOM      2  C   UNL     1      -3.106   1.921  -2.689  0.00  0.00    +0.032 C 
ATOM      3  C   UNL     1      -3.637   0.557  -2.236  0.00  0.00    +0.109 C 
ATOM      4  N   UNL     1      -4.917   0.754  -1.542  0.00  0.00    -0.297 N 
ATOM      5  C   UNL     1      -4.975   1.705  -0.424  0.00  0.00    +0.109 C 
ATOM      6  C   UNL     1      -4.428   3.056  -0.896  0.00  0.00    +0.032 C 
ATOM      7  C   UNL     1      -6.017   0.076  -1.925  0.00  0.00    +0.254 C 
ATOM      8  O   UNL     1      -7.051   0.189  -1.294  0.00  0.00    -0.269 OA
ENDROOT
BRANCH   7   9
ATOM      9  C   UNL     1      -5.967  -0.799  -3.100  0.00  0.00    +0.080 A 
ATOM     10  C   UNL     1      -6.859  -0.895  -4.128  0.00  0.00    -0.017 A 
ATOM     11  C   UNL     1      -6.626  -1.798  -5.168  0.00  0.00    +0.076 A 
ATOM     12  C   UNL     1      -7.442  -2.067  -6.374  0.00  0.00    +0.260 A 
ATOM     13  O   UNL     1      -8.479  -1.459  -6.575  0.00  0.00    -0.267 OA
ATOM     14  N   UNL     1      -7.009  -3.001  -7.243  0.00  0.00    -0.313 N 
ATOM     15  H   UNL     1      -7.593  -3.224  -8.148  0.00  0.00    +0.170 HD
ATOM     16  C   UNL     1      -5.857  -3.683  -7.029  0.00  0.00    +0.200 A 
ATOM     17  N   UNL     1      -5.114  -3.470  -5.978  0.00  0.00    -0.230 NA
ATOM     18  C   UNL     1      -5.449  -2.572  -5.060  0.00  0.00    +0.116 A 
ATOM     19  S   UNL     1      -4.729  -2.007  -3.538  0.00  0.00    -0.064 S 
ATOM     20  C   UNL     1      -8.091  -0.027  -4.143  0.00  0.00    +0.046 C 
ENDBRANCH   7   9
BRANCH   1  22
ATOM     21  N   UNL     1      -1.246   4.263  -2.466  0.00  0.00    -0.315 N 
ATOM     22  C   UNL     1      -2.474   4.191  -1.917  0.00  0.00    +0.216 C 
ATOM     23  O   UNL     1      -3.134   5.199  -1.773  0.00  0.00    -0.276 OA
ATOM     24  H   UNL     1      -0.645   3.350  -2.593  0.00  0.00    +0.149 HD
BRANCH  21  25
ATOM     25  C   UNL     1      -0.709   5.557  -2.895  0.00  0.00    +0.105 C 
BRANCH  25  26
ATOM     26  C   UNL     1       0.688   5.360  -3.486  0.00  0.00    +0.034 C 
BRANCH  26  27
ATOM     27  C   UNL     1       1.248   6.712  -3.933  0.00  0.00    +0.086 C 
BRANCH  27  31
ATOM     28  N   UNL     1       5.376   7.044  -4.769  0.00  0.00    +0.381 N 
ATOM     29  C   UNL     1       4.427   7.489  -5.799  0.00  0.00    -0.063 C 
ATOM     30  C   UNL     1       3.064   7.750  -5.154  0.00  0.00    +0.066 C 
ATOM     31  N   UNL     1       2.590   6.522  -4.500  0.00  0.00    -0.306 NA
ATOM     32  C   UNL     1       3.539   6.078  -3.470  0.00  0.00    +0.066 C 
ATOM     33  C   UNL     1       4.902   5.816  -4.115  0.00  0.00    -0.063 C 
ATOM     34  H   UNL     1       5.442   7.832  -4.004  0.00  0.00    -0.082 HD
BRANCH  28  36
ATOM     35  C   UNL     1       7.724   6.637  -4.204  0.00  0.00    -0.017 C 
ATOM     36  C   UNL     1       6.718   6.854  -5.336  0.00  0.00    -0.082 C 
ENDBRANCH  28  36
ENDBRANCH  27  31
ENDBRANCH  26  27
ENDBRANCH  25  26
ENDBRANCH  21  25
ENDBRANCH   1  22
TORSDOF 7
