REMARK  Name = ZINC09516454
REMARK  9 active torsions:
REMARK  status: ('A' for Active; 'I' for Inactive)
REMARK    1  A    between atoms: C_1  and  C_2
REMARK    2  A    between atoms: C_11  and  S_21
REMARK    3  A    between atoms: C_13  and  C_15
REMARK    4  A    between atoms: C_15  and  N_60
REMARK    5  A    between atoms: S_21  and  C_22
REMARK    6  A    between atoms: N_26  and  C_27
REMARK    7  A    between atoms: C_27  and  C_28
REMARK    8  A    between atoms: C_28  and  C_29
REMARK    9  A    between atoms: C_28  and  C_30
REMARK                            x       y       z     vdW  Elec       q    Type
REMARK                         _______ _______ _______ _____ _____    ______ ____
ROOT
ATOM      1  C   UNL     1       3.873   9.867   0.100  0.00  0.00    +0.008 C 
ATOM      2  C   UNL     1       2.905   8.719   0.393  0.00  0.00    -0.009 C 
ATOM      3  C   UNL     1       3.278   7.499  -0.454  0.00  0.00    +0.008 C 
ATOM      4  C   UNL     1       2.480   6.281   0.011  0.00  0.00    +0.037 C 
ATOM      5  C   UNL     1       0.997   6.641   0.028  0.00  0.00    -0.025 A 
ATOM      6  C   UNL     1       0.601   7.930   0.039  0.00  0.00    -0.004 A 
ATOM      7  S   UNL     1      -1.171   7.870   0.057  0.00  0.00    -0.073 S 
ATOM      8  C   UNL     1      -1.379   6.109   0.051  0.00  0.00    +0.113 A 
ATOM      9  C   UNL     1      -0.055   5.623   0.040  0.00  0.00    +0.043 A 
ATOM     10  C   UNL     1       0.076   4.207   0.025  0.00  0.00    +0.116 A 
ATOM     11  N   UNL     1      -1.017   3.459   0.032  0.00  0.00    -0.227 NA
ATOM     12  C   UNL     1      -2.228   3.984   0.047  0.00  0.00    +0.115 A 
ATOM     13  N   UNL     1      -2.413   5.291   0.056  0.00  0.00    -0.227 NA
ATOM     14  C   UNL     1       1.474   9.148   0.036  0.00  0.00    +0.046 C 
ENDROOT
BRANCH  12  15
ATOM     15  C   UNL     1      -3.427   3.071   0.054  0.00  0.00    -0.001 C 
BRANCH  15  21
ATOM     16  C   UNL     1      -2.760   1.970   2.106  0.00  0.00    -0.050 C 
ATOM     17  C   UNL     1      -3.163   1.726   3.562  0.00  0.00    +0.141 C 
ATOM     18  O   UNL     1      -4.440   1.083   3.597  0.00  0.00    -0.383 OA
ATOM     19  C   UNL     1      -5.479   1.831   2.959  0.00  0.00    +0.141 C 
ATOM     20  C   UNL     1      -5.099   2.076   1.496  0.00  0.00    -0.050 C 
ATOM     21  N   UNL     1      -3.805   2.788   1.456  0.00  0.00    +0.387 N 
ATOM     22  H   UNL     1      -3.897   3.677   1.962  0.00  0.00    -0.081 HD
ENDBRANCH  15  21
ENDBRANCH  12  15
BRANCH  10  23
ATOM     23  S   UNL     1       1.671   3.458   0.005  0.00  0.00    -0.028 S 
BRANCH  23  24
ATOM     24  C   UNL     1       1.210   1.757  -0.000  0.00  0.00    +0.215 A 
ATOM     25  N   UNL     1      -0.015   1.280   0.009  0.00  0.00    -0.101 NA
ATOM     26  N   UNL     1       0.002  -0.004   0.002  0.00  0.00    -0.022 NA
ATOM     27  N   UNL     1       1.217  -0.435  -0.012  0.00  0.00    -0.043 NA
ATOM     28  N   UNL     1       2.050   0.697  -0.014  0.00  0.00    -0.220 N 
BRANCH  28  29
ATOM     29  C   UNL     1       3.515   0.722  -0.028  0.00  0.00    +0.151 C 
BRANCH  29  30
ATOM     30  C   UNL     1       4.011   0.739  -1.475  0.00  0.00    +0.004 C 
ATOM     31  C   UNL     1       5.534   0.891  -1.490  0.00  0.00    +0.009 C 
ATOM     32  C   UNL     1       3.623  -0.572  -2.162  0.00  0.00    +0.009 C 
ENDBRANCH  29  30
ENDBRANCH  28  29
ENDBRANCH  23  24
ENDBRANCH  10  23
TORSDOF 6
