REMARK  Name = ZINC13500610
REMARK  11 active torsions:
REMARK  status: ('A' for Active; 'I' for Inactive)
REMARK    1  A    between atoms: C_1  and  C_2
REMARK    2  A    between atoms: C_12  and  C_14
REMARK    3  A    between atoms: C_14  and  N_69
REMARK    4  A    between atoms: C_15  and  N_69
REMARK    5  A    between atoms: C_20  and  C_22
REMARK    6  A    between atoms: C_20  and  C_35
REMARK    7  A    between atoms: C_20  and  N_69
REMARK    8  A    between atoms: N_26  and  C_27
REMARK    9  A    between atoms: C_27  and  C_28
REMARK   10  A    between atoms: C_35  and  C_36
REMARK   11  A    between atoms: C_35  and  C_37
REMARK                            x       y       z     vdW  Elec       q    Type
REMARK                         _______ _______ _______ _____ _____    ______ ____
ROOT
ATOM      1  N   UNL     1       1.360   0.917  -0.301  0.00  0.00    +0.391 N 
ATOM      2  H   UNL     1       1.670   1.785  -0.755  0.00  0.00    -0.080 HD
ENDROOT
BRANCH   1   3
ATOM      3  C   UNL     1      -0.071   0.702  -0.603  0.00  0.00    -0.067 C 
ATOM      4  C   UNL     1      -0.956   1.510   0.377  0.00  0.00    -0.015 C 
ATOM      5  C   UNL     1      -2.271   1.693  -0.428  0.00  0.00    -0.002 C 
ATOM      6  C   UNL     1      -1.800   1.922  -1.879  0.00  0.00    -0.002 C 
ATOM      7  C   UNL     1      -0.400   1.292  -1.990  0.00  0.00    -0.015 C 
ENDBRANCH   1   3
BRANCH   1   8
ATOM      8  C   UNL     1       2.162  -0.210  -0.822  0.00  0.00    -0.036 C 
BRANCH   8  20
ATOM      9  C   UNL     1       0.740  -0.915  -7.201  0.00  0.00    +0.046 C 
ATOM     10  C   UNL     1       1.866  -0.194  -6.506  0.00  0.00    -0.026 A 
ATOM     11  C   UNL     1       2.823   0.468  -7.244  0.00  0.00    +0.005 A 
ATOM     12  C   UNL     1       3.865   1.137  -6.616  0.00  0.00    +0.001 A 
ATOM     13  C   UNL     1       3.962   1.150  -5.253  0.00  0.00    +0.010 A 
ATOM     14  C   UNL     1       3.002   0.485  -4.484  0.00  0.00    -0.001 A 
ATOM     15  C   UNL     1       1.944  -0.194  -5.117  0.00  0.00    +0.052 A 
ATOM     16  N   UNL     1       1.000  -0.849  -4.354  0.00  0.00    -0.322 N 
ATOM     17  H   UNL     1       0.272  -1.317  -4.792  0.00  0.00    +0.169 HD
ATOM     18  C   UNL     1       1.079  -0.853  -3.012  0.00  0.00    +0.251 A 
ATOM     19  O   UNL     1       0.230  -1.446  -2.369  0.00  0.00    -0.268 OA
ATOM     20  C   UNL     1       2.116  -0.183  -2.328  0.00  0.00    +0.001 A 
ATOM     21  C   UNL     1       3.075   0.479  -3.022  0.00  0.00    +0.017 A 
ENDBRANCH   8  20
ENDBRANCH   1   8
BRANCH   1  22
ATOM     22  C   UNL     1       1.554   1.043   1.159  0.00  0.00    +0.006 C 
BRANCH  22  23
ATOM     23  C   UNL     1       0.959  -0.141   1.875  0.00  0.00    +0.139 A 
ATOM     24  N   UNL     1       0.875  -1.369   1.423  0.00  0.00    -0.115 NA
ATOM     25  N   UNL     1       0.305  -2.088   2.327  0.00  0.00    -0.023 NA
ATOM     26  N   UNL     1       0.021  -1.351   3.344  0.00  0.00    -0.044 NA
ATOM     27  N   UNL     1       0.414  -0.145   3.106  0.00  0.00    -0.226 N 
BRANCH  27  28
ATOM     28  C   UNL     1       0.287   1.004   4.005  0.00  0.00    +0.182 C 
BRANCH  28  29
ATOM     29  C   UNL     1      -1.089   1.602   3.866  0.00  0.00    -0.026 A 
ATOM     30  C   UNL     1      -1.284   2.705   3.055  0.00  0.00    +0.008 A 
ATOM     31  C   UNL     1      -2.546   3.251   2.923  0.00  0.00    +0.038 A 
ATOM     32  C   UNL     1      -3.614   2.700   3.610  0.00  0.00    +0.123 A 
ATOM     33  C   UNL     1      -3.417   1.598   4.425  0.00  0.00    +0.038 A 
ATOM     34  C   UNL     1      -2.155   1.050   4.552  0.00  0.00    +0.008 A 
ATOM     35  F   UNL     1      -4.848   3.236   3.485  0.00  0.00    -0.205 F 
ENDBRANCH  28  29
ENDBRANCH  27  28
ENDBRANCH  22  23
BRANCH  22  36
ATOM     36  C   UNL     1       3.053   1.120   1.458  0.00  0.00    -0.024 C 
ATOM     37  C   UNL     1       3.686   2.227   0.613  0.00  0.00    +0.006 C 
ATOM     38  C   UNL     1       3.261   1.429   2.942  0.00  0.00    +0.006 C 
ENDBRANCH  22  36
ENDBRANCH   1  22
TORSDOF 8
