REMARK  Name = ZINC23042756
REMARK  6 active torsions:
REMARK  status: ('A' for Active; 'I' for Inactive)
REMARK    1  A    between atoms: C_1  and  C_2
REMARK    2  A    between atoms: C_2  and  C_3
REMARK    3  A    between atoms: N_10  and  C_13
REMARK    4  A    between atoms: C_13  and  N_14
REMARK    5  A    between atoms: N_17  and  C_20
REMARK    6  A    between atoms: C_25  and  N_26
REMARK                            x       y       z     vdW  Elec       q    Type
REMARK                         _______ _______ _______ _____ _____    ______ ____
ROOT
ATOM      1  N   UNL     1       3.134   5.794  -1.402  0.00  0.00    +0.394 N 
ATOM      2  C   UNL     1       4.497   5.662  -1.936  0.00  0.00    -0.057 C 
ATOM      3  C   UNL     1       4.513   6.105  -3.401  0.00  0.00    +0.086 C 
ATOM      4  N   UNL     1       4.046   7.496  -3.494  0.00  0.00    -0.332 N 
ATOM      5  C   UNL     1       2.683   7.628  -2.960  0.00  0.00    +0.086 C 
ATOM      6  C   UNL     1       2.667   7.184  -1.496  0.00  0.00    -0.057 C 
ATOM      7  H   UNL     1       2.467   5.170  -2.015  0.00  0.00    -0.079 HD
ENDROOT
BRANCH   4   8
ATOM      8  C   UNL     1       4.115   7.960  -4.811  0.00  0.00    +0.060 A 
ATOM      9  C   UNL     1       3.405   7.313  -5.815  0.00  0.00    +0.027 A 
ATOM     10  C   UNL     1       3.475   7.774  -7.114  0.00  0.00    +0.022 A 
ATOM     11  C   UNL     1       4.251   8.880  -7.417  0.00  0.00    +0.043 A 
ATOM     12  C   UNL     1       4.958   9.526  -6.419  0.00  0.00    +0.054 A 
ATOM     13  C   UNL     1       4.888   9.072  -5.116  0.00  0.00    +0.148 A 
ATOM     14 CL   UNL     1       4.336   9.457  -9.052  0.00  0.00    -0.083 Cl
BRANCH  13  15
ATOM     15  N   UNL     1       5.641   9.767  -4.048  0.00  0.00    +0.058 N 
ATOM     16  O   UNL     1       6.244  10.796  -4.298  0.00  0.00    -0.126 OA
ATOM     17  O   UNL     1       5.659   9.310  -2.919  0.00  0.00    -0.126 OA
ENDBRANCH  13  15
ENDBRANCH   4   8
BRANCH   1  18
ATOM     18  C   UNL     1       3.061   5.306  -0.018  0.00  0.00    +0.051 C 
BRANCH  18  26
ATOM     19  C   UNL     1       0.565  -0.315  -0.077  0.00  0.00    -0.008 A 
ATOM     20  C   UNL     1       0.427   1.020  -0.080  0.00  0.00    +0.026 A 
ATOM     21  C   UNL     1       1.613   1.855  -0.052  0.00  0.00    +0.072 A 
ATOM     22  C   UNL     1       2.833   1.154  -0.023  0.00  0.00    +0.115 A 
ATOM     23  S   UNL     1       2.332  -0.548  -0.035  0.00  0.00    -0.073 S 
ATOM     24  N   UNL     1       4.004   1.782   0.005  0.00  0.00    -0.230 NA
ATOM     25  C   UNL     1       4.068   3.087   0.006  0.00  0.00    +0.201 A 
ATOM     26  N   UNL     1       2.942   3.846  -0.021  0.00  0.00    -0.316 N 
ATOM     27  C   UNL     1       1.720   3.284  -0.050  0.00  0.00    +0.260 A 
ATOM     28  O   UNL     1       0.719   3.979  -0.074  0.00  0.00    -0.267 OA
BRANCH  19  30
ATOM     29  C   UNL     1      -0.848  -1.722  -1.552  0.00  0.00    +0.009 C 
ATOM     30  C   UNL     1      -0.515  -1.366  -0.101  0.00  0.00    +0.039 C 
ENDBRANCH  19  30
ENDBRANCH  18  26
ENDBRANCH   1  18
TORSDOF 5
