REMARK  Name = ZINC03297643
REMARK  13 active torsions:
REMARK  status: ('A' for Active; 'I' for Inactive)
REMARK    1  A    between atoms: C_1  and  C_2
REMARK    2  A    between atoms: C_2  and  O_3
REMARK    3  A    between atoms: O_3  and  C_4
REMARK    4  A    between atoms: C_4  and  C_6
REMARK    5  A    between atoms: C_7  and  C_32
REMARK    6  A    between atoms: C_10  and  N_11
REMARK    7  A    between atoms: C_12  and  C_14
REMARK    8  A    between atoms: C_14  and  O_15
REMARK    9  A    between atoms: O_15  and  C_16
REMARK   10  A    between atoms: C_16  and  C_18
REMARK   11  A    between atoms: N_23  and  C_25
REMARK   12  A    between atoms: C_25  and  C_26
REMARK   13  A    between atoms: C_35  and  C_37
REMARK                            x       y       z     vdW  Elec       q    Type
REMARK                         _______ _______ _______ _____ _____    ______ ____
ROOT
ATOM      1  N   UNL     1      -3.539   6.418   0.054  0.00  0.00    -0.277 N 
ATOM      2  C   UNL     1      -2.458   5.614   0.044  0.00  0.00    +0.255 C 
ATOM      3  O   UNL     1      -1.344   6.095   0.042  0.00  0.00    -0.272 OA
ATOM      4  H   UNL     1      -4.430   6.034   0.056  0.00  0.00    +0.155 HD
ENDROOT
BRANCH   1   9
ATOM      5  C   UNL     1      -4.362   8.775   0.065  0.00  0.00    +0.098 A 
ATOM      6  C   UNL     1      -3.910  10.154   0.076  0.00  0.00    +0.040 A 
ATOM      7  C   UNL     1      -2.565  10.355   0.070  0.00  0.00    +0.059 A 
ATOM      8  S   UNL     1      -1.904   8.702   0.058  0.00  0.00    -0.080 S 
ATOM      9  C   UNL     1      -3.379   7.795   0.060  0.00  0.00    +0.087 A 
BRANCH   6  10
ATOM     10  C   UNL     1      -4.862  11.283   0.087  0.00  0.00    +0.137 A 
ATOM     11  C   UNL     1      -4.832  12.345   0.936  0.00  0.00    +0.050 A 
ATOM     12  C   UNL     1      -5.920  13.172   0.590  0.00  0.00    +0.045 A 
ATOM     13  C   UNL     1      -6.553  12.581  -0.441  0.00  0.00    +0.103 A 
ATOM     14  O   UNL     1      -5.909  11.442  -0.747  0.00  0.00    -0.460 OA
ATOM     15  C   UNL     1      -7.778  13.112  -1.141  0.00  0.00    +0.086 C 
ENDBRANCH   6  10
BRANCH   5  16
ATOM     16  C   UNL     1      -5.785   8.434   0.062  0.00  0.00    +0.342 C 
ATOM     17  O   UNL     1      -6.377   8.287   1.115  0.00  0.00    -0.245 OA
BRANCH  16  18
ATOM     18  O   UNL     1      -6.440   8.282  -1.107  0.00  0.00    -0.461 OA
BRANCH  18  20
ATOM     19  C   UNL     1      -8.395   7.819  -2.450  0.00  0.00    +0.048 C 
ATOM     20  C   UNL     1      -7.827   7.949  -1.035  0.00  0.00    +0.229 C 
ENDBRANCH  18  20
ENDBRANCH  16  18
ENDBRANCH   5  16
ENDBRANCH   1   9
BRANCH   2  21
ATOM     21  C   UNL     1      -2.632   4.117   0.037  0.00  0.00    +0.328 C 
BRANCH  21  22
ATOM     22  O   UNL     1      -1.329   3.478   0.027  0.00  0.00    -0.451 OA
BRANCH  22  23
ATOM     23  C   UNL     1      -1.308   2.131   0.020  0.00  0.00    +0.360 C 
ATOM     24  O   UNL     1      -2.350   1.508   0.021  0.00  0.00    -0.243 OA
BRANCH  23  25
ATOM     25  C   UNL     1      -0.017   1.412   0.010  0.00  0.00    +0.168 A 
ATOM     26  C   UNL     1       0.002  -0.004   0.002  0.00  0.00    +0.042 A 
ATOM     27  C   UNL     1       1.212  -0.632  -0.013  0.00  0.00    +0.074 A 
ATOM     28  C   UNL     1       2.374   0.170  -0.020  0.00  0.00    +0.268 A 
ATOM     29  O   UNL     1       3.478  -0.349  -0.033  0.00  0.00    -0.266 OA
ATOM     30  N   UNL     1       2.256   1.511  -0.011  0.00  0.00    -0.224 N 
ATOM     31  N   UNL     1       1.110   2.089   0.003  0.00  0.00    -0.161 NA
BRANCH  30  32
ATOM     32  C   UNL     1       3.469   2.333  -0.019  0.00  0.00    +0.182 C 
BRANCH  32  33
ATOM     33  C   UNL     1       3.871   2.622  -1.442  0.00  0.00    -0.026 A 
ATOM     34  C   UNL     1       4.731   1.768  -2.104  0.00  0.00    +0.005 A 
ATOM     35  C   UNL     1       5.096   2.030  -3.412  0.00  0.00    +0.000 A 
ATOM     36  C   UNL     1       4.609   3.154  -4.053  0.00  0.00    +0.000 A 
ATOM     37  C   UNL     1       3.752   4.012  -3.388  0.00  0.00    +0.000 A 
ATOM     38  C   UNL     1       3.383   3.746  -2.083  0.00  0.00    +0.005 A 
ENDBRANCH  32  33
ENDBRANCH  30  32
ENDBRANCH  23  25
ENDBRANCH  22  23
ENDBRANCH  21  22
ENDBRANCH   2  21
TORSDOF 11
