REMARK  Name = ZINC12534113
REMARK  3 active torsions:
REMARK  status: ('A' for Active; 'I' for Inactive)
REMARK    1  A    between atoms: C_4  and  N_25
REMARK    2  A    between atoms: C_5  and  C_7
REMARK    3  A    between atoms: C_13  and  C_16
REMARK                            x       y       z     vdW  Elec       q    Type
REMARK                         _______ _______ _______ _____ _____    ______ ____
ROOT
ATOM      1  C   UNL     1       1.490  -2.141  -0.041  0.00  0.00    +0.134 C 
ATOM      2  N   UNL     1       2.697  -2.685   0.046  0.00  0.00    -0.161 NA
ATOM      3  C   UNL     1       2.843  -4.011   0.022  0.00  0.00    +0.279 C 
ATOM      4  O   UNL     1       3.950  -4.503   0.119  0.00  0.00    -0.270 OA
ATOM      5  C   UNL     1       1.638  -4.895  -0.124  0.00  0.00    +0.198 C 
ATOM      6  C   UNL     1       1.849  -6.219   0.626  0.00  0.00    +0.112 C 
ATOM      7  C   UNL     1       1.762  -7.267  -0.462  0.00  0.00    +0.073 C 
ATOM      8  N   UNL     1       1.548  -6.692  -1.596  0.00  0.00    -0.189 NA
ATOM      9  N   UNL     1       1.457  -5.302  -1.521  0.00  0.00    -0.238 N 
ATOM     10  N   UNL     1       0.442  -4.210   0.375  0.00  0.00    -0.209 NA
ATOM     11  N   UNL     1       0.385  -2.942  -0.141  0.00  0.00    -0.264 N 
ATOM     12  H   UNL     1       1.300  -4.704  -2.269  0.00  0.00    +0.171 HD
ATOM     13  H   UNL     1      -0.393  -4.731   0.151  0.00  0.00    +0.147 HD
ATOM     14  H   UNL     1      -0.422  -2.620  -0.573  0.00  0.00    +0.168 HD
ENDROOT
BRANCH   7  15
ATOM     15  C   UNL     1       1.901  -8.721  -0.257  0.00  0.00    +0.033 A 
ATOM     16  C   UNL     1       2.126  -9.231   1.023  0.00  0.00    +0.012 A 
ATOM     17  C   UNL     1       2.254 -10.591   1.208  0.00  0.00    +0.001 A 
ATOM     18  C   UNL     1       2.160 -11.453   0.129  0.00  0.00    +0.003 A 
ATOM     19  C   UNL     1       1.937 -10.957  -1.143  0.00  0.00    +0.039 A 
ATOM     20  C   UNL     1       1.801  -9.596  -1.343  0.00  0.00    +0.132 A 
ATOM     21  F   UNL     1       1.578  -9.113  -2.585  0.00  0.00    -0.205 F 
ENDBRANCH   7  15
BRANCH   1  26
ATOM     22  C   UNL     1      -0.067   1.269   0.024  0.00  0.00    +0.001 A 
ATOM     23  C   UNL     1       1.055   2.083   0.011  0.00  0.00    +0.002 A 
ATOM     24  C   UNL     1       2.319   1.530  -0.019  0.00  0.00    +0.023 A 
ATOM     25  C   UNL     1       2.475   0.150  -0.037  0.00  0.00    +0.035 A 
ATOM     26  C   UNL     1       1.340  -0.678  -0.022  0.00  0.00    +0.034 A 
ATOM     27  C   UNL     1       0.066  -0.101   0.008  0.00  0.00    +0.013 A 
BRANCH  25  28
ATOM     28  N   UNL     1       3.746  -0.408  -0.068  0.00  0.00    -0.357 N 
ATOM     29  H   UNL     1       4.525   0.163  -0.157  0.00  0.00    +0.142 HD
ATOM     30  H   UNL     1       3.855  -1.370  -0.001  0.00  0.00    +0.142 HD
ENDBRANCH  25  28
ENDBRANCH   1  26
TORSDOF 3
