REMARK  Name = ZINC10066012
REMARK  6 active torsions:
REMARK  status: ('A' for Active; 'I' for Inactive)
REMARK    1  A    between atoms: C_1  and  N_45
REMARK    2  A    between atoms: C_2  and  N_45
REMARK    3  A    between atoms: C_3  and  C_4
REMARK    4  A    between atoms: C_3  and  N_45
REMARK    5  A    between atoms: C_4  and  N_5
REMARK    6  A    between atoms: C_19  and  C_21
REMARK                            x       y       z     vdW  Elec       q    Type
REMARK                         _______ _______ _______ _____ _____    ______ ____
ROOT
ATOM      1  N   UNL     1      -1.077  -0.897  -0.390  0.00  0.00    -0.248 N 
ATOM      2  C   UNL     1       0.017  -0.049  -0.434  0.00  0.00    +0.168 A 
ATOM      3  N   UNL     1       0.071   1.238  -0.183  0.00  0.00    -0.224 NA
ATOM      4  C   UNL     1       1.220   1.947  -0.266  0.00  0.00    +0.084 A 
ATOM      5  C   UNL     1       1.411   3.326  -0.024  0.00  0.00    +0.078 A 
ATOM      6  C   UNL     1       2.655   3.903  -0.153  0.00  0.00    +0.164 A 
ATOM      7  C   UNL     1       3.762   3.141  -0.525  0.00  0.00    +0.163 A 
ATOM      8  C   UNL     1       3.606   1.786  -0.770  0.00  0.00    +0.066 A 
ATOM      9  C   UNL     1       2.366   1.211  -0.643  0.00  0.00    +0.044 A 
ATOM     10  S   UNL     1       1.714  -0.429  -0.848  0.00  0.00    -0.052 S 
ATOM     11  O   UNL     1       4.995   3.705  -0.646  0.00  0.00    -0.485 OA
ATOM     12  C   UNL     1       5.042   5.132  -0.752  0.00  0.00    +0.270 C 
ATOM     13  C   UNL     1       4.116   5.722   0.321  0.00  0.00    +0.270 C 
ATOM     14  O   UNL     1       2.790   5.240   0.085  0.00  0.00    -0.485 OA
ATOM     15  C   UNL     1      -2.290  -0.416  -0.052  0.00  0.00    +0.254 C 
ATOM     16  O   UNL     1      -2.423   0.763   0.215  0.00  0.00    -0.270 OA
ENDROOT
BRANCH  15  17
ATOM     17  C   UNL     1      -3.451  -1.316  -0.005  0.00  0.00    +0.064 A 
ATOM     18  C   UNL     1      -3.296  -2.738   0.181  0.00  0.00    +0.042 A 
ATOM     19  C   UNL     1      -4.421  -3.478   0.215  0.00  0.00    +0.080 A 
ATOM     20  S   UNL     1      -5.708  -2.269  -0.017  0.00  0.00    -0.064 S 
ATOM     21  C   UNL     1      -4.740  -0.839  -0.144  0.00  0.00    +0.091 A 
ATOM     22 CL   UNL     1      -5.263   0.798  -0.385  0.00  0.00    -0.075 Cl
ATOM     23 CL   UNL     1      -4.578  -5.194   0.425  0.00  0.00    -0.076 Cl
ENDBRANCH  15  17
BRANCH   1  24
ATOM     24  C   UNL     1      -0.916  -2.317  -0.711  0.00  0.00    +0.097 C 
BRANCH  24  25
ATOM     25  C   UNL     1      -0.336  -3.051   0.499  0.00  0.00    -0.060 C 
BRANCH  25  28
ATOM     26  C   UNL     1       0.842  -5.073   1.122  0.00  0.00    -0.097 C 
ATOM     27  C   UNL     1      -1.286  -5.216  -0.025  0.00  0.00    -0.097 C 
ATOM     28  N   UNL     1      -0.032  -4.444   0.109  0.00  0.00    +0.377 N 
ATOM     29  H   UNL     1       0.455  -4.439  -0.795  0.00  0.00    -0.083 HD
ENDBRANCH  25  28
ENDBRANCH  24  25
ENDBRANCH   1  24
TORSDOF 4
