REMARK  Name = ZINC37936285
REMARK  7 active torsions:
REMARK  status: ('A' for Active; 'I' for Inactive)
REMARK    1  A    between atoms: C_1  and  O_2
REMARK    2  A    between atoms: O_2  and  C_3
REMARK    3  A    between atoms: C_5  and  C_11
REMARK    4  A    between atoms: C_8  and  O_9
REMARK    5  A    between atoms: C_11  and  C_13
REMARK    6  A    between atoms: C_11  and  N_15
REMARK    7  A    between atoms: N_15  and  C_16
REMARK                            x       y       z     vdW  Elec       q    Type
REMARK                         _______ _______ _______ _____ _____    ______ ____
ROOT
ATOM      1  C   UNL     1      -4.871   0.258   0.039  0.00  0.00    +0.205 C 
ENDROOT
BRANCH   1   4
ATOM      2  C   UNL     1      -1.201  -0.638   0.010  0.00  0.00    +0.163 A 
ATOM      3  C   UNL     1      -2.374   0.100   0.019  0.00  0.00    +0.056 A 
ATOM      4  C   UNL     1      -3.597  -0.546   0.028  0.00  0.00    -0.009 A 
ATOM      5  C   UNL     1      -3.653  -1.927   0.028  0.00  0.00    +0.025 A 
ATOM      6  C   UNL     1      -2.486  -2.669   0.018  0.00  0.00    +0.063 A 
ATOM      7  C   UNL     1      -1.257  -2.028   0.003  0.00  0.00    +0.173 A 
ATOM      8 BR   UNL     1      -2.567  -4.559   0.019  0.00  0.00    -0.046 Br
BRANCH   2  10
ATOM      9  C   UNL     1      -0.017   1.425   0.010  0.00  0.00    +0.277 C 
ATOM     10  O   UNL     1       0.002  -0.004   0.002  0.00  0.00    -0.491 OA
ENDBRANCH   2  10
BRANCH   7  11
ATOM     11  O   UNL     1      -0.108  -2.756  -0.012  0.00  0.00    -0.503 OA
ATOM     12  H   UNL     1       0.233  -2.971   0.867  0.00  0.00    +0.292 HD
ENDBRANCH   7  11
ENDBRANCH   1   4
BRANCH   1  13
ATOM     13  C   UNL     1      -5.426   0.318  -1.323  0.00  0.00    +0.090 C 
ATOM     14  N   UNL     1      -5.853   0.364  -2.375  0.00  0.00    -0.194 NA
ENDBRANCH   1  13
BRANCH   1  15
ATOM     15  N   UNL     1      -5.842  -0.377   0.934  0.00  0.00    -0.325 N 
ATOM     16  H   UNL     1      -5.783  -1.328   1.117  0.00  0.00    +0.148 HD
BRANCH  15  17
ATOM     17  C   UNL     1      -6.853   0.386   1.522  0.00  0.00    +0.028 A 
ATOM     18  C   UNL     1      -6.943   1.746   1.256  0.00  0.00    +0.024 A 
ATOM     19  C   UNL     1      -7.944   2.498   1.840  0.00  0.00    +0.017 A 
ATOM     20  C   UNL     1      -8.856   1.898   2.689  0.00  0.00    +0.018 A 
ATOM     21  C   UNL     1      -8.769   0.543   2.956  0.00  0.00    +0.017 A 
ATOM     22  C   UNL     1      -7.774  -0.215   2.371  0.00  0.00    +0.024 A 
ATOM     23 BR   UNL     1     -10.224   2.932   3.487  0.00  0.00    -0.050 Br
ENDBRANCH  15  17
ENDBRANCH   1  15
TORSDOF 6
