REMARK  Name = ZINC08302799
REMARK  5 active torsions:
REMARK  status: ('A' for Active; 'I' for Inactive)
REMARK    1  A    between atoms: C_1  and  O_2
REMARK    2  A    between atoms: O_2  and  C_3
REMARK    3  A    between atoms: C_6  and  C_10
REMARK    4  A    between atoms: N_12  and  N_13
REMARK    5  A    between atoms: N_13  and  C_14
REMARK                            x       y       z     vdW  Elec       q    Type
REMARK                         _______ _______ _______ _____ _____    ______ ____
ROOT
ATOM      1  C   UNL     1      -1.295   2.125  -0.087  0.00  0.00    +0.260 C 
ATOM      2  O   UNL     1      -2.331   1.496   0.017  0.00  0.00    -0.269 OA
ATOM      3  N   UNL     1      -1.321   3.472  -0.085  0.00  0.00    -0.232 N 
ATOM      4  H   UNL     1      -0.495   3.974  -0.168  0.00  0.00    +0.173 HD
ENDROOT
BRANCH   1   8
ATOM      5  C   UNL     1       2.405   0.073  -0.467  0.00  0.00    +0.157 A 
ATOM      6  C   UNL     1       1.223  -0.647  -0.343  0.00  0.00    +0.085 A 
ATOM      7  C   UNL     1       0.021   0.015  -0.217  0.00  0.00    +0.036 A 
ATOM      8  C   UNL     1      -0.009   1.412  -0.215  0.00  0.00    +0.041 A 
ATOM      9  C   UNL     1       1.182   2.132  -0.341  0.00  0.00    +0.036 A 
ATOM     10  C   UNL     1       2.380   1.464  -0.465  0.00  0.00    +0.085 A 
ATOM     11 CL   UNL     1       3.860   2.358  -0.620  0.00  0.00    -0.080 Cl
ATOM     12 CL   UNL     1       1.260  -2.383  -0.346  0.00  0.00    -0.080 Cl
BRANCH   5  14
ATOM     13  C   UNL     1       4.021  -0.897  -1.916  0.00  0.00    +0.277 C 
ATOM     14  O   UNL     1       3.588  -0.582  -0.590  0.00  0.00    -0.492 OA
ENDBRANCH   5  14
ENDBRANCH   1   8
BRANCH   3  15
ATOM     15  N   UNL     1      -2.542   4.149   0.037  0.00  0.00    -0.259 N 
ATOM     16  H   UNL     1      -3.374   3.650   0.042  0.00  0.00    +0.170 HD
BRANCH  15  17
ATOM     17  C   UNL     1      -2.561   5.545   0.150  0.00  0.00    +0.121 A 
ATOM     18  C   UNL     1      -1.555   6.200   0.851  0.00  0.00    +0.186 A 
ATOM     19  C   UNL     1      -1.573   7.581   0.957  0.00  0.00    +0.198 A 
ATOM     20  C   UNL     1      -2.599   8.309   0.375  0.00  0.00    +0.199 A 
ATOM     21  C   UNL     1      -3.606   7.657  -0.320  0.00  0.00    +0.198 A 
ATOM     22  C   UNL     1      -3.588   6.277  -0.433  0.00  0.00    +0.186 A 
ATOM     23  F   UNL     1      -4.570   5.642  -1.110  0.00  0.00    -0.200 F 
ATOM     24  F   UNL     1      -4.604   8.369  -0.887  0.00  0.00    -0.199 F 
ATOM     25  F   UNL     1      -2.617   9.655   0.485  0.00  0.00    -0.199 F 
ATOM     26  F   UNL     1      -0.592   8.218   1.633  0.00  0.00    -0.199 F 
ATOM     27  F   UNL     1      -0.558   5.490   1.423  0.00  0.00    -0.200 F 
ENDBRANCH  15  17
ENDBRANCH   3  15
TORSDOF 4
