REMARK  Name = ZINC36571207
REMARK  11 active torsions:
REMARK  status: ('A' for Active; 'I' for Inactive)
REMARK    1  A    between atoms: C_1  and  C_2
REMARK    2  A    between atoms: C_2  and  C_3
REMARK    3  A    between atoms: C_3  and  N_4
REMARK    4  A    between atoms: N_4  and  C_5
REMARK    5  A    between atoms: C_5  and  C_7
REMARK    6  A    between atoms: C_5  and  C_14
REMARK    7  A    between atoms: C_11  and  O_13
REMARK    8  A    between atoms: N_16  and  C_17
REMARK    9  A    between atoms: C_23  and  C_25
REMARK   10  A    between atoms: C_29  and  O_32
REMARK   11  A    between atoms: C_30  and  O_31
REMARK                            x       y       z     vdW  Elec       q    Type
REMARK                         _______ _______ _______ _____ _____    ______ ____
ROOT
ATOM      1  C   UNL     1      -0.112  -3.229   0.755  0.00  0.00    +0.193 C 
ENDROOT
BRANCH   1   2
ATOM      2  C   UNL     1      -0.877  -2.920   2.016  0.00  0.00    -0.015 A 
ATOM      3  C   UNL     1      -1.556  -1.722   2.137  0.00  0.00    +0.006 A 
ATOM      4  C   UNL     1      -2.258  -1.435   3.292  0.00  0.00    +0.004 A 
ATOM      5  C   UNL     1      -2.283  -2.347   4.331  0.00  0.00    +0.045 A 
ATOM      6  C   UNL     1      -1.603  -3.550   4.213  0.00  0.00    +0.117 A 
ATOM      7  C   UNL     1      -0.903  -3.837   3.049  0.00  0.00    +0.051 A 
BRANCH   6   8
ATOM      8  O   UNL     1      -1.625  -4.448   5.232  0.00  0.00    -0.507 OA
ATOM      9  H   UNL     1      -2.354  -5.082   5.182  0.00  0.00    +0.292 HD
ENDBRANCH   6   8
ENDBRANCH   1   2
BRANCH   1  10
ATOM     10  C   UNL     1       1.204  -3.872   1.110  0.00  0.00    +0.238 C 
ATOM     11  O   UNL     1       2.193  -3.186   1.261  0.00  0.00    -0.273 OA
ATOM     12  N   UNL     1       1.282  -5.209   1.259  0.00  0.00    -0.311 N 
ATOM     13  H   UNL     1       0.491  -5.758   1.139  0.00  0.00    +0.149 HD
BRANCH  12  14
ATOM     14  C   UNL     1       2.562  -5.834   1.605  0.00  0.00    +0.073 C 
ATOM     15  C   UNL     1       3.371  -6.077   0.329  0.00  0.00    +0.022 C 
ATOM     16  C   UNL     1       4.707  -6.729   0.689  0.00  0.00    +0.002 C 
ATOM     17  C   UNL     1       4.450  -8.064   1.392  0.00  0.00    +0.000 C 
ATOM     18  C   UNL     1       3.640  -7.822   2.667  0.00  0.00    +0.002 C 
ATOM     19  C   UNL     1       2.304  -7.169   2.307  0.00  0.00    +0.022 C 
ENDBRANCH  12  14
ENDBRANCH   1  10
BRANCH   1  20
ATOM     20  N   UNL     1       0.134  -1.988   0.017  0.00  0.00    -0.282 N 
ATOM     21  C   UNL     1      -0.390  -1.820  -1.213  0.00  0.00    +0.251 C 
ATOM     22  O   UNL     1      -0.229  -0.770  -1.805  0.00  0.00    -0.270 OA
BRANCH  21  23
ATOM     23  C   UNL     1      -1.159  -2.911  -1.843  0.00  0.00    +0.082 A 
ATOM     24  C   UNL     1      -2.162  -3.568  -1.124  0.00  0.00    +0.017 A 
ATOM     25  C   UNL     1      -2.878  -4.586  -1.715  0.00  0.00    +0.005 A 
ATOM     26  C   UNL     1      -2.610  -4.963  -3.021  0.00  0.00    +0.049 A 
ATOM     27  C   UNL     1      -1.620  -4.322  -3.745  0.00  0.00    +0.159 A 
ATOM     28  C   UNL     1      -0.892  -3.289  -3.164  0.00  0.00    +0.171 A 
BRANCH  28  29
ATOM     29  O   UNL     1       0.076  -2.653  -3.872  0.00  0.00    -0.503 OA
ATOM     30  H   UNL     1       0.952  -3.055  -3.790  0.00  0.00    +0.292 HD
ENDBRANCH  28  29
BRANCH  27  31
ATOM     31  O   UNL     1      -1.362  -4.699  -5.026  0.00  0.00    -0.503 OA
ATOM     32  H   UNL     1      -1.881  -4.221  -5.689  0.00  0.00    +0.292 HD
ENDBRANCH  27  31
ENDBRANCH  21  23
BRANCH  20  33
ATOM     33  C   UNL     1       0.950  -0.929   0.616  0.00  0.00    +0.109 C 
BRANCH  33  35
ATOM     34  C   UNL     1       3.132   0.281   0.478  0.00  0.00    +0.005 C 
ATOM     35  C   UNL     1       2.213  -0.722  -0.223  0.00  0.00    +0.016 C 
ENDBRANCH  33  35
ENDBRANCH  20  33
ENDBRANCH   1  20
TORSDOF 10
