REMARK  Name = ZINC63315535
REMARK  8 active torsions:
REMARK  status: ('A' for Active; 'I' for Inactive)
REMARK    1  A    between atoms: C_1  and  C_2
REMARK    2  A    between atoms: C_2  and  C_3
REMARK    3  A    between atoms: C_2  and  C_4
REMARK    4  A    between atoms: C_4  and  C_6
REMARK    5  A    between atoms: C_4  and  N_15
REMARK    6  A    between atoms: N_8  and  C_9
REMARK    7  A    between atoms: C_9  and  C_10
REMARK    8  A    between atoms: C_24  and  C_26
REMARK                            x       y       z     vdW  Elec       q    Type
REMARK                         _______ _______ _______ _____ _____    ______ ____
ROOT
ATOM      1  N   UNL     1      -2.151   0.037   1.155  0.00  0.00    -0.288 N 
ATOM      2  C   UNL     1      -2.067  -0.550   2.366  0.00  0.00    +0.303 C 
ATOM      3  O   UNL     1      -1.468  -1.600   2.492  0.00  0.00    -0.253 OA
ATOM      4  N   UNL     1      -2.648   0.028   3.436  0.00  0.00    -0.283 N 
ATOM      5  C   UNL     1      -3.476   1.232   3.279  0.00  0.00    +0.128 C 
ATOM      6  C   UNL     1      -4.856   0.960   3.889  0.00  0.00    +0.127 C 
ATOM      7  N   UNL     1      -4.673   0.396   5.234  0.00  0.00    -0.297 N 
ATOM      8  C   UNL     1      -3.845  -0.808   5.391  0.00  0.00    +0.127 C 
ATOM      9  C   UNL     1      -2.469  -0.539   4.780  0.00  0.00    +0.128 C 
ATOM     10  C   UNL     1      -5.253   0.974   6.305  0.00  0.00    +0.242 C 
ATOM     11  O   UNL     1      -5.934   1.968   6.163  0.00  0.00    -0.273 OA
ATOM     12  H   UNL     1      -2.693   0.833   1.039  0.00  0.00    +0.151 HD
ENDROOT
BRANCH  10  13
ATOM     13  C   UNL     1      -5.057   0.385   7.678  0.00  0.00    +0.190 C 
ATOM     14  C   UNL     1      -5.630  -1.013   7.732  0.00  0.00    +0.016 C 
ATOM     15  C   UNL     1      -6.598  -0.985   8.677  0.00  0.00    -0.004 A 
ATOM     16  C   UNL     1      -7.513  -2.009   9.194  0.00  0.00    +0.010 A 
ATOM     17  C   UNL     1      -8.394  -1.672  10.163  0.00  0.00    +0.001 A 
ATOM     18  C   UNL     1      -8.455  -0.373  10.685  0.00  0.00    +0.002 A 
ATOM     19  C   UNL     1      -7.647   0.622  10.261  0.00  0.00    +0.026 A 
ATOM     20  C   UNL     1      -6.682   0.380   9.245  0.00  0.00    +0.043 A 
ATOM     21  N   UNL     1      -5.799   1.165   8.674  0.00  0.00    -0.370 N 
ATOM     22  H   UNL     1      -5.660   2.104   8.876  0.00  0.00    +0.161 HD
ENDBRANCH  10  13
BRANCH   1  23
ATOM     23  C   UNL     1      -1.425  -0.528   0.015  0.00  0.00    +0.163 C 
BRANCH  23  24
ATOM     24  C   UNL     1      -2.112  -0.131  -1.266  0.00  0.00    +0.234 C 
ATOM     25  O   UNL     1      -3.111   0.557  -1.230  0.00  0.00    -0.274 OA
ATOM     26  N   UNL     1      -1.617  -0.539  -2.451  0.00  0.00    -0.307 N 
ATOM     27  H   UNL     1      -0.819  -1.089  -2.479  0.00  0.00    +0.149 HD
BRANCH  26  28
ATOM     28  C   UNL     1      -2.286  -0.152  -3.696  0.00  0.00    +0.178 C 
BRANCH  28  29
ATOM     29  C   UNL     1      -1.538  -0.734  -4.869  0.00  0.00    +0.122 A 
ATOM     30  C   UNL     1      -1.769  -1.933  -5.432  0.00  0.00    +0.046 A 
ATOM     31  C   UNL     1      -0.845  -2.072  -6.493  0.00  0.00    +0.041 A 
ATOM     32  C   UNL     1      -0.105  -0.949  -6.514  0.00  0.00    +0.195 A 
ATOM     33  O   UNL     1      -0.533  -0.139  -5.532  0.00  0.00    -0.466 OA
ENDBRANCH  28  29
ENDBRANCH  26  28
ENDBRANCH  23  24
BRANCH  23  35
ATOM     34  C   UNL     1      -0.013   1.533   0.022  0.00  0.00    +0.009 C 
ATOM     35  C   UNL     1       0.010   0.003   0.011  0.00  0.00    +0.012 C 
ATOM     36  C   UNL     1       0.746  -0.505   1.252  0.00  0.00    +0.009 C 
ENDBRANCH  23  35
ENDBRANCH   1  23
TORSDOF 6
