REMARK  Name = ZINC03200907
REMARK  5 active torsions:
REMARK  status: ('A' for Active; 'I' for Inactive)
REMARK    1  A    between atoms: C_7  and  C_16
REMARK    2  A    between atoms: N_17  and  N_18
REMARK    3  A    between atoms: C_19  and  C_21
REMARK    4  A    between atoms: C_25  and  S_27
REMARK    5  A    between atoms: S_27  and  N_30
REMARK                            x       y       z     vdW  Elec       q    Type
REMARK                         _______ _______ _______ _____ _____    ______ ____
ROOT
ATOM      1  N   UNL     1      -1.191   1.870   0.033  0.00  0.00    -0.203 N 
ATOM      2  C   UNL     1      -0.014   1.212   0.039  0.00  0.00    +0.263 C 
ATOM      3  O   UNL     1       0.002  -0.004   0.046  0.00  0.00    -0.268 OA
ATOM      4  H   UNL     1      -1.204   2.840   0.027  0.00  0.00    +0.178 HD
ENDROOT
BRANCH   2   5
ATOM      5  C   UNL     1       1.255   1.968   0.031  0.00  0.00    +0.040 A 
ATOM      6  C   UNL     1       1.240   3.364   0.017  0.00  0.00    +0.013 A 
ATOM      7  C   UNL     1       2.429   4.064   0.014  0.00  0.00    +0.003 A 
ATOM      8  C   UNL     1       3.635   3.385   0.015  0.00  0.00    +0.028 A 
ATOM      9  C   UNL     1       3.657   2.002   0.024  0.00  0.00    +0.106 A 
ATOM     10  C   UNL     1       2.475   1.290   0.031  0.00  0.00    +0.041 A 
BRANCH   9  11
ATOM     11  S   UNL     1       5.198   1.148   0.024  0.00  0.00    +0.061 S 
ATOM     12  O   UNL     1       6.159   2.043   0.567  0.00  0.00    -0.153 OA
ATOM     13  O   UNL     1       4.951  -0.135   0.583  0.00  0.00    -0.153 OA
BRANCH  11  14
ATOM     14  N   UNL     1       5.622   0.901  -1.557  0.00  0.00    -0.172 NA
ATOM     15  C   UNL     1       5.209  -0.318  -2.271  0.00  0.00    +0.137 C 
ATOM     16  C   UNL     1       4.562   0.101  -3.601  0.00  0.00    +0.177 C 
ATOM     17  O   UNL     1       5.451   0.975  -4.300  0.00  0.00    -0.377 OA
ATOM     18  C   UNL     1       5.725   2.200  -3.616  0.00  0.00    +0.177 C 
ATOM     19  C   UNL     1       6.427   1.892  -2.289  0.00  0.00    +0.137 C 
ENDBRANCH  11  14
ENDBRANCH   9  11
ENDBRANCH   2   5
BRANCH   1  21
ATOM     20  C   UNL     1      -3.531   1.788   0.029  0.00  0.00    +0.139 C 
ATOM     21  N   UNL     1      -2.394   1.153   0.034  0.00  0.00    -0.187 NA
BRANCH  20  28
ATOM     22  C   UNL     1      -3.604  -2.434  -0.308  0.00  0.00    +0.001 A 
ATOM     23  C   UNL     1      -4.803  -3.144  -0.305  0.00  0.00    +0.001 A 
ATOM     24  C   UNL     1      -6.003  -2.516  -0.196  0.00  0.00    +0.010 A 
ATOM     25  C   UNL     1      -6.044  -1.110  -0.081  0.00  0.00    +0.002 A 
ATOM     26  C   UNL     1      -4.782  -0.367  -0.083  0.00  0.00    -0.007 A 
ATOM     27  C   UNL     1      -3.576  -1.079  -0.200  0.00  0.00    +0.009 A 
ATOM     28  C   UNL     1      -4.790   1.039   0.030  0.00  0.00    +0.010 A 
ATOM     29  C   UNL     1      -6.022   1.714   0.152  0.00  0.00    -0.007 A 
ATOM     30  C   UNL     1      -6.073   3.114   0.273  0.00  0.00    +0.009 A 
ATOM     31  C   UNL     1      -7.277   3.735   0.389  0.00  0.00    +0.001 A 
ATOM     32  C   UNL     1      -8.472   3.018   0.390  0.00  0.00    +0.001 A 
ATOM     33  C   UNL     1      -8.492   1.665   0.264  0.00  0.00    +0.010 A 
ATOM     34  C   UNL     1      -7.276   0.959   0.147  0.00  0.00    +0.002 A 
ATOM     35  C   UNL     1      -7.261  -0.433   0.034  0.00  0.00    +0.056 A 
ATOM     36 CL   UNL     1      -8.752  -1.321   0.035  0.00  0.00    -0.082 Cl
ENDBRANCH  20  28
ENDBRANCH   1  21
TORSDOF 5
