REMARK  Name = ZINC17112510
REMARK  4 active torsions:
REMARK  status: ('A' for Active; 'I' for Inactive)
REMARK    1  A    between atoms: C_8  and  C_26
REMARK    2  A    between atoms: C_10  and  C_17
REMARK    3  A    between atoms: C_21  and  N_23
REMARK    4  A    between atoms: C_26  and  C_28
REMARK                            x       y       z     vdW  Elec       q    Type
REMARK                         _______ _______ _______ _____ _____    ______ ____
ROOT
ATOM      1  C   UNL     1      -0.389   5.847   0.610  0.00  0.00    +0.000 A 
ATOM      2  C   UNL     1       0.970   5.729   0.837  0.00  0.00    +0.002 A 
ATOM      3  C   UNL     1       1.564   4.485   0.882  0.00  0.00    +0.023 A 
ATOM      4  C   UNL     1       0.798   3.336   0.699  0.00  0.00    +0.036 A 
ATOM      5  C   UNL     1      -0.568   3.467   0.470  0.00  0.00    -0.027 A 
ATOM      6  C   UNL     1      -1.157   4.711   0.426  0.00  0.00    +0.004 A 
ATOM      7  C   UNL     1      -1.095   2.068   0.307  0.00  0.00    +0.051 C 
ATOM      8  C   UNL     1      -2.170   1.755   1.353  0.00  0.00    +0.069 C 
ATOM      9  C   UNL     1      -3.499   2.093   0.645  0.00  0.00    +0.016 C 
ATOM     10  C   UNL     1      -3.164   2.167  -0.850  0.00  0.00    -0.059 C 
ATOM     11  C   UNL     1      -1.629   0.443  -1.391  0.00  0.00    -0.076 C 
ATOM     12  C   UNL     1      -2.865   0.217  -2.295  0.00  0.00    -0.020 C 
ATOM     13  C   UNL     1      -3.946   1.097  -1.625  0.00  0.00    -0.016 C 
ATOM     14  C   UNL     1       0.107   1.178   0.479  0.00  0.00    +0.212 C 
ATOM     15  O   UNL     1       0.125  -0.033   0.424  0.00  0.00    -0.277 OA
ATOM     16  N   UNL     1       1.161   1.988   0.700  0.00  0.00    -0.286 N 
ATOM     17  H   UNL     1       2.066   1.671   0.843  0.00  0.00    +0.155 HD
ATOM     18  N   UNL     1      -1.752   1.857  -0.993  0.00  0.00    +0.395 N 
ATOM     19  H   UNL     1      -1.324   2.461  -1.705  0.00  0.00    -0.079 HD
ENDROOT
BRANCH   9  20
ATOM     20  C   UNL     1      -4.022   3.422   1.128  0.00  0.00    -0.043 A 
ATOM     21  C   UNL     1      -3.822   3.808   2.440  0.00  0.00    +0.004 A 
ATOM     22  C   UNL     1      -4.299   5.028   2.882  0.00  0.00    +0.002 A 
ATOM     23  C   UNL     1      -4.982   5.858   2.013  0.00  0.00    +0.033 A 
ATOM     24  C   UNL     1      -5.187   5.470   0.702  0.00  0.00    +0.126 A 
ATOM     25  C   UNL     1      -4.707   4.251   0.260  0.00  0.00    +0.036 A 
BRANCH  24  26
ATOM     26  N   UNL     1      -5.919   6.359  -0.228  0.00  0.00    +0.056 N 
ATOM     27  O   UNL     1      -6.099   6.016  -1.383  0.00  0.00    -0.126 OA
ATOM     28  O   UNL     1      -6.342   7.432   0.162  0.00  0.00    -0.126 OA
ENDBRANCH  24  26
ENDBRANCH   9  20
BRANCH   8  29
ATOM     29  C   UNL     1      -2.130   0.297   1.730  0.00  0.00    +0.166 C 
ATOM     30  O   UNL     1      -2.819  -0.503   1.133  0.00  0.00    -0.292 OA
BRANCH  29  31
ATOM     31  C   UNL     1      -1.257  -0.156   2.821  0.00  0.00    +0.021 A 
ATOM     32  C   UNL     1      -0.456   0.764   3.508  0.00  0.00    +0.015 A 
ATOM     33  C   UNL     1       0.357   0.338   4.533  0.00  0.00    +0.050 A 
ATOM     34  C   UNL     1       0.396  -1.006   4.883  0.00  0.00    +0.166 A 
ATOM     35  C   UNL     1      -0.395  -1.931   4.199  0.00  0.00    +0.167 A 
ATOM     36  C   UNL     1      -1.218  -1.511   3.173  0.00  0.00    +0.061 A 
ATOM     37  O   UNL     1      -0.175  -3.169   4.730  0.00  0.00    -0.453 OA
ATOM     38  C   UNL     1       0.445  -2.933   6.008  0.00  0.00    +0.466 C 
ATOM     39  O   UNL     1       1.109  -1.667   5.839  0.00  0.00    -0.453 OA
ENDBRANCH  29  31
ENDBRANCH   8  29
TORSDOF 4
