REMARK  Name = ZINC39991338
REMARK  11 active torsions:
REMARK  status: ('A' for Active; 'I' for Inactive)
REMARK    1  A    between atoms: C_1  and  C_2
REMARK    2  A    between atoms: C_2  and  C_3
REMARK    3  A    between atoms: C_3  and  C_4
REMARK    4  A    between atoms: C_4  and  N_5
REMARK    5  A    between atoms: C_6  and  N_29
REMARK    6  A    between atoms: C_7  and  C_15
REMARK    7  A    between atoms: C_8  and  C_14
REMARK    8  A    between atoms: C_9  and  C_12
REMARK    9  A    between atoms: N_19  and  C_23
REMARK   10  A    between atoms: C_31  and  C_38
REMARK   11  A    between atoms: C_34  and  C_37
REMARK                            x       y       z     vdW  Elec       q    Type
REMARK                         _______ _______ _______ _____ _____    ______ ____
ROOT
ATOM      1  N   UNL     1      -3.047  -1.935   0.261  0.00  0.00    -0.295 N 
ATOM      2  C   UNL     1      -3.418  -2.370   1.493  0.00  0.00    +0.112 A 
ATOM      3  C   UNL     1      -4.477  -3.281   1.639  0.00  0.00    +0.019 A 
ATOM      4  C   UNL     1      -5.153  -3.743   0.497  0.00  0.00    -0.017 A 
ATOM      5  C   UNL     1      -4.754  -3.282  -0.754  0.00  0.00    +0.120 A 
ATOM      6  C   UNL     1      -3.683  -2.358  -0.847  0.00  0.00    +0.270 A 
ATOM      7  O   UNL     1      -3.332  -1.946  -1.939  0.00  0.00    -0.266 OA
ATOM      8  C   UNL     1      -6.292  -4.722   0.625  0.00  0.00    +0.046 C 
ENDROOT
BRANCH   3   9
ATOM      9  C   UNL     1      -4.871  -3.747   2.969  0.00  0.00    +0.032 C 
ATOM     10  C   UNL     1      -6.121  -3.486   3.439  0.00  0.00    +0.077 C 
ATOM     11  C   UNL     1      -6.751  -3.928   4.642  0.00  0.00    +0.259 C 
ATOM     12  O   UNL     1      -6.164  -4.649   5.429  0.00  0.00    -0.269 OA
ATOM     13  N   UNL     1      -7.989  -3.530   4.877  0.00  0.00    -0.252 N 
ATOM     14  C   UNL     1      -8.640  -2.730   4.003  0.00  0.00    +0.121 C 
ATOM     15  S   UNL     1     -10.230  -2.102   4.104  0.00  0.00    -0.027 S 
ATOM     16  S   UNL     1      -7.420  -2.488   2.722  0.00  0.00    -0.061 S 
BRANCH  13  17
ATOM     17  C   UNL     1      -8.667  -3.965   6.101  0.00  0.00    +0.083 C 
ATOM     18  C   UNL     1      -9.927  -4.752   5.734  0.00  0.00    +0.023 C 
ATOM     19  C   UNL     1     -10.635  -5.205   7.013  0.00  0.00    +0.002 C 
ATOM     20  C   UNL     1     -11.022  -3.980   7.843  0.00  0.00    +0.000 C 
ATOM     21  C   UNL     1      -9.762  -3.193   8.209  0.00  0.00    +0.002 C 
ATOM     22  C   UNL     1      -9.055  -2.739   6.931  0.00  0.00    +0.023 C 
ENDBRANCH  13  17
ENDBRANCH   3   9
BRANCH   2  23
ATOM     23  N   UNL     1      -2.757  -1.918   2.597  0.00  0.00    -0.311 N 
ATOM     24  C   UNL     1      -2.986  -0.559   3.114  0.00  0.00    +0.137 C 
ATOM     25  C   UNL     1      -3.280  -0.657   4.616  0.00  0.00    +0.133 C 
ATOM     26  O   UNL     1      -2.244  -1.411   5.250  0.00  0.00    -0.371 OA
ATOM     27  C   UNL     1      -2.145  -2.764   4.799  0.00  0.00    +0.133 C 
ATOM     28  C   UNL     1      -1.798  -2.776   3.310  0.00  0.00    +0.137 C 
ATOM     29  C   UNL     1      -1.051  -3.487   5.587  0.00  0.00    +0.039 C 
ATOM     30  C   UNL     1      -4.625  -1.355   4.830  0.00  0.00    +0.039 C 
ENDBRANCH   2  23
BRANCH   5  31
ATOM     31  C   UNL     1      -5.423  -3.733  -1.937  0.00  0.00    +0.105 C 
ATOM     32  N   UNL     1      -5.954  -4.091  -2.876  0.00  0.00    -0.191 NA
ENDBRANCH   5  31
BRANCH   1  33
ATOM     33  C   UNL     1      -1.940  -0.984   0.137  0.00  0.00    +0.126 C 
BRANCH  33  34
ATOM     34  C   UNL     1      -2.497   0.436   0.024  0.00  0.00    +0.021 C 
BRANCH  34  36
ATOM     35  C   UNL     1      -1.897   2.858  -0.105  0.00  0.00    +0.004 C 
ATOM     36  C   UNL     1      -1.340   1.438   0.008  0.00  0.00    -0.002 C 
ENDBRANCH  34  36
ENDBRANCH  33  34
ENDBRANCH   1  33
TORSDOF 7
