REMARK  Name = ZINC35107085
REMARK  6 active torsions:
REMARK  status: ('A' for Active; 'I' for Inactive)
REMARK    1  A    between atoms: C_1  and  C_2
REMARK    2  A    between atoms: C_7  and  N_8
REMARK    3  A    between atoms: C_9  and  C_35
REMARK    4  A    between atoms: C_11  and  C_14
REMARK    5  A    between atoms: C_12  and  C_13
REMARK    6  A    between atoms: C_26  and  C_27
REMARK                            x       y       z     vdW  Elec       q    Type
REMARK                         _______ _______ _______ _____ _____    ______ ____
ROOT
ATOM      1  C   UNL     1       1.586   1.591   5.223  0.00  0.00    +0.026 C 
ATOM      2  C   UNL     1       1.030   2.293   6.273  0.00  0.00    +0.085 A 
ATOM      3  C   UNL     1       1.871   3.021   7.263  0.00  0.00    +0.160 A 
ATOM      4  N   UNL     1       3.006   3.595   6.960  0.00  0.00    -0.281 NA
ATOM      5  N   UNL     1       1.321   3.031   8.561  0.00  0.00    -0.212 N 
ATOM      6  C   UNL     1      -0.048   2.882   8.677  0.00  0.00    +0.199 A 
ATOM      7  N   UNL     1      -0.895   2.603   7.725  0.00  0.00    -0.182 NA
ATOM      8  C   UNL     1      -0.436   2.369   6.473  0.00  0.00    +0.283 A 
ATOM      9  O   UNL     1      -1.205   2.220   5.538  0.00  0.00    -0.265 OA
ATOM     10  S   UNL     1      -0.339   3.150  10.405  0.00  0.00    -0.031 S 
ATOM     11  C   UNL     1       1.363   3.328  10.920  0.00  0.00    +0.101 A 
ATOM     12  N   UNL     1       2.041   3.188   9.728  0.00  0.00    -0.283 N 
ATOM     13  C   UNL     1       1.863   3.547  12.170  0.00  0.00    +0.102 C 
ATOM     14  H   UNL     1       3.514   4.057   7.644  0.00  0.00    +0.188 HD
ATOM     15  H   UNL     1       3.010   3.198   9.710  0.00  0.00    +0.188 HD
ENDROOT
BRANCH  13  16
ATOM     16  C   UNL     1       3.249   3.659  12.362  0.00  0.00    +0.242 C 
ATOM     17  O   UNL     1       4.000   3.656  11.402  0.00  0.00    -0.271 OA
ATOM     18  N   UNL     1       3.750   3.769  13.608  0.00  0.00    -0.298 N 
ATOM     19  C   UNL     1       5.202   3.776  13.834  0.00  0.00    +0.108 C 
ATOM     20  C   UNL     1       5.569   5.020  14.649  0.00  0.00    +0.019 C 
ATOM     21  C   UNL     1       4.734   5.050  15.931  0.00  0.00    +0.003 C 
ATOM     22  C   UNL     1       3.248   5.129  15.572  0.00  0.00    +0.019 C 
ATOM     23  C   UNL     1       2.855   3.892  14.767  0.00  0.00    +0.108 C 
ENDBRANCH  13  16
BRANCH   1  27
ATOM     24  N   UNL     1      -0.126  -0.218   2.636  0.00  0.00    -0.317 N 
ATOM     25  C   UNL     1      -0.820  -0.675   3.723  0.00  0.00    +0.022 A 
ATOM     26  C   UNL     1      -0.326  -0.105   4.834  0.00  0.00    +0.031 A 
ATOM     27  C   UNL     1       0.765   0.778   4.400  0.00  0.00    -0.003 A 
ATOM     28  C   UNL     1       0.831   0.649   3.022  0.00  0.00    +0.028 A 
ATOM     29  C   UNL     1       1.802   1.358   2.113  0.00  0.00    +0.064 C 
ATOM     30  C   UNL     1      -1.959  -1.661   3.679  0.00  0.00    +0.064 C 
BRANCH  24  37
ATOM     31  C   UNL     1      -1.980   1.312   1.114  0.00  0.00    +0.046 C 
ATOM     32  C   UNL     1      -1.268   0.118   0.533  0.00  0.00    -0.027 A 
ATOM     33  C   UNL     1      -1.504  -0.259  -0.775  0.00  0.00    +0.007 A 
ATOM     34  C   UNL     1      -0.851  -1.354  -1.309  0.00  0.00    +0.020 A 
ATOM     35  C   UNL     1       0.040  -2.078  -0.534  0.00  0.00    +0.043 A 
ATOM     36  C   UNL     1       0.279  -1.705   0.775  0.00  0.00    +0.046 A 
ATOM     37  C   UNL     1      -0.371  -0.602   1.311  0.00  0.00    +0.051 A 
ATOM     38 CL   UNL     1       0.857  -3.453  -1.208  0.00  0.00    -0.083 Cl
ENDBRANCH  24  37
ENDBRANCH   1  27
TORSDOF 3
