REMARK  Name = ZINC09409193
REMARK  9 active torsions:
REMARK  status: ('A' for Active; 'I' for Inactive)
REMARK    1  A    between atoms: C_4  and  O_7
REMARK    2  A    between atoms: O_7  and  C_8
REMARK    3  A    between atoms: C_12  and  C_14
REMARK    4  A    between atoms: C_17  and  C_29
REMARK    5  A    between atoms: N_24  and  C_25
REMARK    6  A    between atoms: C_25  and  C_26
REMARK    7  A    between atoms: C_26  and  C_27
REMARK    8  A    between atoms: C_27  and  O_28
REMARK    9  A    between atoms: C_34  and  O_35
REMARK                            x       y       z     vdW  Elec       q    Type
REMARK                         _______ _______ _______ _____ _____    ______ ____
ROOT
ATOM      1  C   UNL     1       5.783  -4.823   0.052  0.00  0.00    +0.141 C 
ATOM      2  C   UNL     1       6.506  -5.235  -1.201  0.00  0.00    +0.035 A 
ATOM      3  C   UNL     1       7.077  -4.843  -2.417  0.00  0.00    +0.102 A 
ATOM      4  N   UNL     1       7.557  -5.926  -2.995  0.00  0.00    -0.173 NA
ATOM      5  N   UNL     1       7.347  -6.963  -2.265  0.00  0.00    -0.272 N 
ATOM      6  H   UNL     1       7.615  -7.867  -2.491  0.00  0.00    +0.189 HD
ATOM      7  C   UNL     1       6.690  -6.602  -1.123  0.00  0.00    +0.126 A 
ATOM      8  C   UNL     1       6.110  -7.080   0.138  0.00  0.00    +0.265 C 
ATOM      9  O   UNL     1       6.109  -8.239   0.506  0.00  0.00    -0.268 OA
ATOM     10  N   UNL     1       5.581  -6.053   0.829  0.00  0.00    -0.285 N 
ENDROOT
BRANCH   1  15
ATOM     11  C   UNL     1       3.026  -2.283  -0.421  0.00  0.00    +0.129 A 
ATOM     12  C   UNL     1       2.009  -3.074  -0.935  0.00  0.00    +0.046 A 
ATOM     13  C   UNL     1       2.218  -4.426  -1.128  0.00  0.00    +0.004 A 
ATOM     14  C   UNL     1       3.439  -4.991  -0.808  0.00  0.00    +0.006 A 
ATOM     15  C   UNL     1       4.454  -4.205  -0.295  0.00  0.00    -0.019 A 
ATOM     16  C   UNL     1       4.252  -2.851  -0.107  0.00  0.00    +0.052 A 
BRANCH  11  17
ATOM     17  O   UNL     1       2.824  -0.953  -0.231  0.00  0.00    -0.456 OA
BRANCH  17  21
ATOM     18  C   UNL     1       1.125   0.260   3.327  0.00  0.00    +0.000 A 
ATOM     19  C   UNL     1       1.330  -1.086   3.083  0.00  0.00    +0.004 A 
ATOM     20  C   UNL     1       1.898  -1.495   1.892  0.00  0.00    +0.046 A 
ATOM     21  C   UNL     1       2.264  -0.553   0.941  0.00  0.00    +0.128 A 
ATOM     22  C   UNL     1       2.058   0.796   1.188  0.00  0.00    +0.046 A 
ATOM     23  C   UNL     1       1.489   1.200   2.381  0.00  0.00    +0.004 A 
ENDBRANCH  17  21
ENDBRANCH  11  17
ENDBRANCH   1  15
BRANCH   3  24
ATOM     24  C   UNL     1       7.131  -3.461  -2.956  0.00  0.00    +0.044 A 
ATOM     25  C   UNL     1       6.700  -2.389  -2.178  0.00  0.00    +0.014 A 
ATOM     26  C   UNL     1       6.753  -1.106  -2.685  0.00  0.00    +0.001 A 
ATOM     27  C   UNL     1       7.231  -0.881  -3.963  0.00  0.00    +0.004 A 
ATOM     28  C   UNL     1       7.660  -1.938  -4.744  0.00  0.00    +0.046 A 
ATOM     29  C   UNL     1       7.619  -3.230  -4.245  0.00  0.00    +0.126 A 
BRANCH  29  30
ATOM     30  O   UNL     1       8.046  -4.269  -5.009  0.00  0.00    -0.506 OA
ATOM     31  H   UNL     1       7.354  -4.666  -5.556  0.00  0.00    +0.292 HD
ENDBRANCH  29  30
ENDBRANCH   3  24
BRANCH  10  32
ATOM     32  C   UNL     1       4.916  -6.145   2.132  0.00  0.00    +0.111 C 
BRANCH  32  33
ATOM     33  C   UNL     1       3.420  -6.386   1.925  0.00  0.00    +0.047 C 
BRANCH  33  34
ATOM     34  C   UNL     1       2.726  -6.483   3.285  0.00  0.00    +0.157 C 
BRANCH  34  35
ATOM     35  O   UNL     1       1.328  -6.708   3.092  0.00  0.00    -0.395 OA
ATOM     36  H   UNL     1       0.824  -6.780   3.914  0.00  0.00    +0.209 HD
ENDBRANCH  34  35
ENDBRANCH  33  34
ENDBRANCH  32  33
ENDBRANCH  10  32
TORSDOF 9
