REMARK  Name = ZINC40046186
REMARK  9 active torsions:
REMARK  status: ('A' for Active; 'I' for Inactive)
REMARK    1  A    between atoms: C_1  and  C_2
REMARK    2  A    between atoms: C_2  and  C_3
REMARK    3  A    between atoms: C_3  and  C_4
REMARK    4  A    between atoms: C_4  and  O_5
REMARK    5  A    between atoms: O_5  and  C_6
REMARK    6  A    between atoms: C_10  and  C_12
REMARK    7  A    between atoms: C_19  and  C_38
REMARK    8  A    between atoms: C_33  and  C_37
REMARK    9  A    between atoms: C_38  and  C_39
REMARK                            x       y       z     vdW  Elec       q    Type
REMARK                         _______ _______ _______ _____ _____    ______ ____
ROOT
ATOM      1  C   UNL     1       3.035  -6.334   4.985  0.00  0.00    +0.152 C 
ATOM      2  C   UNL     1       2.042  -6.801   5.997  0.00  0.00    +0.072 A 
ATOM      3  C   UNL     1       1.015  -6.073   6.750  0.00  0.00    +0.199 A 
ATOM      4  O   UNL     1       0.704  -4.920   6.510  0.00  0.00    -0.287 OA
ATOM      5  C   UNL     1       0.390  -6.876   7.832  0.00  0.00    +0.065 A 
ATOM      6  C   UNL     1      -0.456  -6.272   8.761  0.00  0.00    +0.019 A 
ATOM      7  C   UNL     1      -1.019  -7.024   9.755  0.00  0.00    -0.047 A 
ATOM      8  C   UNL     1      -0.751  -8.383   9.839  0.00  0.00    +0.007 A 
ATOM      9  C   UNL     1       0.081  -8.996   8.930  0.00  0.00    +0.047 A 
ATOM     10  C   UNL     1       0.666  -8.251   7.905  0.00  0.00    +0.139 A 
ATOM     11  O   UNL     1       1.471  -8.876   7.016  0.00  0.00    -0.450 OA
ATOM     12  C   UNL     1       2.221  -8.145   6.168  0.00  0.00    +0.199 A 
ATOM     13  C   UNL     1       3.321  -8.579   5.291  0.00  0.00    +0.289 C 
ATOM     14  O   UNL     1       3.735  -9.718   5.207  0.00  0.00    -0.266 OA
ATOM     15  N   UNL     1       3.804  -7.528   4.595  0.00  0.00    -0.232 N 
ATOM     16  C   UNL     1       4.839  -7.564   3.677  0.00  0.00    +0.169 A 
ATOM     17  N   UNL     1       5.354  -6.580   2.977  0.00  0.00    -0.224 NA
ATOM     18  C   UNL     1       6.372  -6.763   2.109  0.00  0.00    +0.080 A 
ATOM     19  C   UNL     1       7.013  -5.796   1.299  0.00  0.00    +0.029 A 
ATOM     20  C   UNL     1       8.040  -6.152   0.465  0.00  0.00    +0.005 A 
ATOM     21  C   UNL     1       8.487  -7.463   0.383  0.00  0.00    -0.049 A 
ATOM     22  C   UNL     1       7.883  -8.434   1.160  0.00  0.00    +0.020 A 
ATOM     23  C   UNL     1       6.854  -8.087   2.000  0.00  0.00    +0.041 A 
ATOM     24  S   UNL     1       5.820  -8.962   3.149  0.00  0.00    -0.052 S 
ATOM     25  C   UNL     1       9.618  -7.825  -0.545  0.00  0.00    +0.044 C 
ENDROOT
BRANCH   1  30
ATOM     26  C   UNL     1       1.563  -3.861   2.537  0.00  0.00    +0.121 A 
ATOM     27  C   UNL     1       1.020  -4.709   1.582  0.00  0.00    +0.045 A 
ATOM     28  C   UNL     1       1.133  -6.078   1.733  0.00  0.00    +0.004 A 
ATOM     29  C   UNL     1       1.785  -6.602   2.833  0.00  0.00    +0.006 A 
ATOM     30  C   UNL     1       2.326  -5.759   3.786  0.00  0.00    -0.019 A 
ATOM     31  C   UNL     1       2.221  -4.389   3.637  0.00  0.00    +0.051 A 
BRANCH  26  32
ATOM     32  O   UNL     1       1.454  -2.514   2.391  0.00  0.00    -0.492 OA
BRANCH  32  33
ATOM     33  C   UNL     1       0.763  -2.041   1.233  0.00  0.00    +0.229 C 
BRANCH  33  34
ATOM     34  C   UNL     1       0.742  -0.511   1.242  0.00  0.00    +0.041 C 
BRANCH  34  36
ATOM     35  C   UNL     1      -0.019   1.526   0.010  0.00  0.00    +0.004 C 
ATOM     36  C   UNL     1       0.002  -0.004   0.002  0.00  0.00    -0.000 C 
ENDBRANCH  34  36
ENDBRANCH  33  34
ENDBRANCH  32  33
ENDBRANCH  26  32
ENDBRANCH   1  30
BRANCH   7  37
ATOM     37  C   UNL     1      -1.934  -6.374  10.761  0.00  0.00    +0.032 C 
ATOM     38  C   UNL     1      -3.375  -6.431  10.250  0.00  0.00    +0.009 C 
ENDBRANCH   7  37
TORSDOF 6
