REMARK  Name = ZINC38679061
REMARK  2 active torsions:
REMARK  status: ('A' for Active; 'I' for Inactive)
REMARK    1  A    between atoms: C_8  and  C_11
REMARK    2  A    between atoms: N_13  and  C_14
REMARK                            x       y       z     vdW  Elec       q    Type
REMARK                         _______ _______ _______ _____ _____    ______ ____
ROOT
ATOM      1  C   UNL     1       0.932  -5.281  -0.044  0.00  0.00    +0.267 C 
ATOM      2  O   UNL     1       1.531  -6.340  -0.061  0.00  0.00    -0.268 OA
ATOM      3  N   UNL     1      -0.416  -5.269  -0.039  0.00  0.00    -0.278 N 
ATOM      4  H   UNL     1      -0.893  -4.428   0.041  0.00  0.00    +0.155 HD
ENDROOT
BRANCH   1  12
ATOM      5  C   UNL     1      -0.015   1.343   0.056  0.00  0.00    +0.019 A 
ATOM      6  C   UNL     1       1.323   1.785   0.051  0.00  0.00    +0.019 A 
ATOM      7  C   UNL     1       2.111   0.692   0.031  0.00  0.00    +0.093 A 
ATOM      8  N   UNL     1       1.307  -0.414   0.024  0.00  0.00    -0.302 N 
ATOM      9  C   UNL     1       0.003  -0.005   0.040  0.00  0.00    +0.093 A 
ATOM     10  C   UNL     1       1.743  -1.736   0.003  0.00  0.00    +0.178 A 
ATOM     11  N   UNL     1       1.033  -2.845  -0.010  0.00  0.00    -0.218 NA
ATOM     12  C   UNL     1       1.679  -4.013  -0.029  0.00  0.00    +0.135 A 
ATOM     13  C   UNL     1       3.046  -4.012  -0.035  0.00  0.00    +0.081 A 
ATOM     14  S   UNL     1       3.411  -2.369  -0.020  0.00  0.00    -0.057 S 
ENDBRANCH   1  12
BRANCH   3  15
ATOM     15  C   UNL     1      -1.125  -6.466  -0.149  0.00  0.00    +0.062 A 
ATOM     16  C   UNL     1      -0.636  -7.601   0.420  0.00  0.00    +0.025 A 
ATOM     17  C   UNL     1      -1.319  -8.812   0.328  0.00  0.00    +0.004 A 
ATOM     18  C   UNL     1      -2.498  -8.913  -0.331  0.00  0.00    +0.031 A 
ATOM     19  C   UNL     1      -3.072  -7.770  -0.952  0.00  0.00    +0.102 A 
ATOM     20  C   UNL     1      -2.365  -6.499  -0.854  0.00  0.00    +0.121 A 
ATOM     21  N   UNL     1      -2.997  -5.498  -1.466  0.00  0.00    -0.189 NA
ATOM     22  S   UNL     1      -4.339  -6.142  -2.078  0.00  0.00    +0.117 S 
ATOM     23  N   UNL     1      -4.213  -7.684  -1.637  0.00  0.00    -0.191 NA
ENDBRANCH   3  15
TORSDOF 2
