REMARK  Name = ZINC35934121
REMARK  8 active torsions:
REMARK  status: ('A' for Active; 'I' for Inactive)
REMARK    1  A    between atoms: C_1  and  N_2
REMARK    2  A    between atoms: C_5  and  C_10
REMARK    3  A    between atoms: N_19  and  C_21
REMARK    4  A    between atoms: C_21  and  C_23
REMARK    5  A    between atoms: C_21  and  C_30
REMARK    6  A    between atoms: C_23  and  C_24
REMARK    7  A    between atoms: N_32  and  C_33
REMARK    8  A    between atoms: C_33  and  C_34
REMARK                            x       y       z     vdW  Elec       q    Type
REMARK                         _______ _______ _______ _____ _____    ______ ____
ROOT
ATOM      1  C   UNL     1      -0.553   1.416   0.034  0.00  0.00    +0.139 C 
ATOM      2  N   UNL     1      -0.348  -0.035   0.019  0.00  0.00    -0.260 N 
ATOM      3  C   UNL     1      -1.443  -0.843   0.128  0.00  0.00    +0.042 C 
ATOM      4  C   UNL     1      -1.324  -2.186   0.120  0.00  0.00    +0.058 C 
ATOM      5  C   UNL     1       0.068  -2.769  -0.014  0.00  0.00    +0.143 C 
ATOM      6  N   UNL     1       1.183  -1.814  -0.126  0.00  0.00    -0.288 N 
ATOM      7  C   UNL     1       0.903  -0.496  -0.107  0.00  0.00    +0.307 C 
ATOM      8  O   UNL     1       1.817   0.301  -0.203  0.00  0.00    -0.252 OA
ATOM      9  C   UNL     1      -2.591  -2.792   0.246  0.00  0.00    +0.247 C 
ATOM     10  O   UNL     1      -2.780  -3.994   0.268  0.00  0.00    -0.270 OA
ATOM     11  N   UNL     1      -3.564  -1.867   0.339  0.00  0.00    -0.280 N 
ATOM     12  C   UNL     1      -2.919  -0.548   0.272  0.00  0.00    +0.160 C 
ATOM     13  H   UNL     1       2.097  -2.126  -0.214  0.00  0.00    +0.151 HD
ENDROOT
BRANCH   5  14
ATOM     14  C   UNL     1       0.087  -3.650  -1.237  0.00  0.00    -0.004 A 
ATOM     15  C   UNL     1      -0.886  -3.505  -2.209  0.00  0.00    +0.007 A 
ATOM     16  C   UNL     1      -0.868  -4.312  -3.331  0.00  0.00    +0.000 A 
ATOM     17  C   UNL     1       0.122  -5.265  -3.482  0.00  0.00    +0.001 A 
ATOM     18  C   UNL     1       1.095  -5.411  -2.512  0.00  0.00    +0.020 A 
ATOM     19  C   UNL     1       1.081  -4.599  -1.391  0.00  0.00    +0.046 A 
ATOM     20 CL   UNL     1       2.307  -4.777  -0.175  0.00  0.00    -0.083 Cl
ENDBRANCH   5  14
BRANCH  11  21
ATOM     21  C   UNL     1      -4.999  -2.127   0.480  0.00  0.00    +0.167 C 
BRANCH  21  22
ATOM     22  C   UNL     1      -5.246  -2.912   1.743  0.00  0.00    +0.234 C 
ATOM     23  O   UNL     1      -4.315  -3.223   2.455  0.00  0.00    -0.274 OA
ATOM     24  N   UNL     1      -6.501  -3.268   2.081  0.00  0.00    -0.310 N 
ATOM     25  H   UNL     1      -7.246  -3.018   1.511  0.00  0.00    +0.149 HD
BRANCH  24  26
ATOM     26  C   UNL     1      -6.741  -4.030   3.308  0.00  0.00    +0.139 C 
BRANCH  26  27
ATOM     27  C   UNL     1      -8.217  -4.298   3.453  0.00  0.00    -0.030 A 
ATOM     28  C   UNL     1      -9.020  -3.395   4.125  0.00  0.00    +0.005 A 
ATOM     29  C   UNL     1     -10.374  -3.640   4.258  0.00  0.00    +0.000 A 
ATOM     30  C   UNL     1     -10.925  -4.788   3.719  0.00  0.00    +0.000 A 
ATOM     31  C   UNL     1     -10.122  -5.690   3.046  0.00  0.00    +0.000 A 
ATOM     32  C   UNL     1      -8.769  -5.442   2.909  0.00  0.00    +0.005 A 
ENDBRANCH  26  27
ENDBRANCH  24  26
ENDBRANCH  21  22
BRANCH  21  33
ATOM     33  C   UNL     1      -5.493  -2.931  -0.725  0.00  0.00    +0.067 C 
BRANCH  33  34
ATOM     34  C   UNL     1      -5.359  -2.098  -1.974  0.00  0.00    -0.045 A 
ATOM     35  C   UNL     1      -6.401  -1.284  -2.376  0.00  0.00    +0.004 A 
ATOM     36  C   UNL     1      -6.279  -0.520  -3.521  0.00  0.00    +0.000 A 
ATOM     37  C   UNL     1      -5.114  -0.570  -4.264  0.00  0.00    +0.000 A 
ATOM     38  C   UNL     1      -4.072  -1.383  -3.861  0.00  0.00    +0.000 A 
ATOM     39  C   UNL     1      -4.192  -2.144  -2.713  0.00  0.00    +0.004 A 
ENDBRANCH  33  34
ENDBRANCH  21  33
ENDBRANCH  11  21
TORSDOF 7
