REMARK  Name = ZINC38984501
REMARK  8 active torsions:
REMARK  status: ('A' for Active; 'I' for Inactive)
REMARK    1  A    between atoms: C_1  and  O_2
REMARK    2  A    between atoms: O_2  and  C_3
REMARK    3  A    between atoms: C_6  and  N_11
REMARK    4  A    between atoms: C_7  and  O_9
REMARK    5  A    between atoms: O_9  and  C_10
REMARK    6  A    between atoms: N_11  and  C_12
REMARK    7  A    between atoms: N_15  and  S_16
REMARK    8  A    between atoms: S_16  and  C_19
REMARK                            x       y       z     vdW  Elec       q    Type
REMARK                         _______ _______ _______ _____ _____    ______ ____
ROOT
ATOM      1  C   UNL     1      -6.133  -1.796   0.157  0.00  0.00    +0.235 C 
ATOM      2  C   UNL     1      -7.125  -2.344  -0.843  0.00  0.00    +0.170 C 
ATOM      3  N   UNL     1      -6.835  -2.376  -2.110  0.00  0.00    -0.111 NA
ATOM      4  N   UNL     1      -8.310  -2.798  -0.403  0.00  0.00    -0.338 N 
ATOM      5  C   UNL     1      -8.627  -2.777   0.874  0.00  0.00    +0.064 A 
ATOM      6  C   UNL     1      -9.887  -3.265   1.303  0.00  0.00    +0.028 A 
ATOM      7  C   UNL     1     -10.217  -3.245   2.613  0.00  0.00    +0.002 A 
ATOM      8  C   UNL     1      -9.355  -2.753   3.607  0.00  0.00    +0.002 A 
ATOM      9  C   UNL     1      -8.131  -2.264   3.307  0.00  0.00    +0.027 A 
ATOM     10  C   UNL     1      -7.695  -2.251   1.903  0.00  0.00    +0.061 A 
ATOM     11  N   UNL     1      -6.522  -1.788   1.576  0.00  0.00    -0.359 N 
ATOM     12  H   UNL     1      -5.918  -1.447   2.254  0.00  0.00    +0.162 HD
ATOM     13  H   UNL     1      -8.948  -3.150  -1.043  0.00  0.00    +0.167 HD
ENDROOT
BRANCH   3  14
ATOM     14  S   UNL     1      -7.932  -2.979  -3.195  0.00  0.00    +0.107 S 
ATOM     15  O   UNL     1      -8.065  -4.365  -2.910  0.00  0.00    -0.146 OA
ATOM     16  O   UNL     1      -9.040  -2.090  -3.190  0.00  0.00    -0.146 OA
BRANCH  14  17
ATOM     17  C   UNL     1      -7.200  -2.863  -4.794  0.00  0.00    +0.150 A 
ATOM     18  C   UNL     1      -6.438  -3.771  -5.452  0.00  0.00    +0.037 A 
ATOM     19  C   UNL     1      -5.967  -3.461  -6.714  0.00  0.00    +0.010 A 
ATOM     20  C   UNL     1      -6.280  -2.259  -7.256  0.00  0.00    +0.047 A 
ATOM     21  S   UNL     1      -7.276  -1.522  -5.970  0.00  0.00    -0.076 S 
ENDBRANCH  14  17
ENDBRANCH   3  14
BRANCH   1  22
ATOM     22  N   UNL     1      -4.899  -2.575   0.036  0.00  0.00    -0.315 N 
ATOM     23  H   UNL     1      -4.932  -3.544   0.067  0.00  0.00    +0.149 HD
BRANCH  22  27
ATOM     24  C   UNL     1      -1.238  -0.626  -0.441  0.00  0.00    +0.124 A 
ATOM     25  C   UNL     1      -2.389   0.106  -0.193  0.00  0.00    +0.047 A 
ATOM     26  C   UNL     1      -3.601  -0.538  -0.036  0.00  0.00    +0.030 A 
ATOM     27  C   UNL     1      -3.669  -1.921  -0.125  0.00  0.00    +0.071 A 
ATOM     28  C   UNL     1      -2.514  -2.658  -0.374  0.00  0.00    +0.144 A 
ATOM     29  C   UNL     1      -1.302  -2.009  -0.537  0.00  0.00    +0.093 A 
BRANCH  24  31
ATOM     30  C   UNL     1      -0.054   1.436  -0.484  0.00  0.00    +0.277 C 
ATOM     31  O   UNL     1      -0.047   0.011  -0.596  0.00  0.00    -0.495 OA
ENDBRANCH  24  31
BRANCH  28  32
ATOM     32  O   UNL     1      -2.577  -4.014  -0.462  0.00  0.00    -0.493 OA
ATOM     33  C   UNL     1      -1.353  -4.705  -0.719  0.00  0.00    +0.277 C 
ENDBRANCH  28  32
ENDBRANCH  22  27
ENDBRANCH   1  22
TORSDOF 6
