REMARK  Name = ZINC08721226
REMARK  5 active torsions:
REMARK  status: ('A' for Active; 'I' for Inactive)
REMARK    1  A    between atoms: C_1  and  C_2
REMARK    2  A    between atoms: C_2  and  C_3
REMARK    3  A    between atoms: C_10  and  N_25
REMARK    4  A    between atoms: C_11  and  C_23
REMARK    5  A    between atoms: C_14  and  C_22
REMARK                            x       y       z     vdW  Elec       q    Type
REMARK                         _______ _______ _______ _____ _____    ______ ____
ROOT
ATOM      1  C   UNL     1       0.707  -0.490  -1.238  0.00  0.00    +0.071 A 
ATOM      2  C   UNL     1       0.111  -0.758  -2.462  0.00  0.00    +0.061 A 
ATOM      3  C   UNL     1       1.087  -1.176  -3.326  0.00  0.00    +0.223 A 
ATOM      4  N   UNL     1       2.251  -1.167  -2.657  0.00  0.00    -0.246 N 
ATOM      5  H   UNL     1       3.117  -1.415  -3.016  0.00  0.00    +0.192 HD
ATOM      6  N   UNL     1       1.993  -0.728  -1.349  0.00  0.00    -0.176 NA
ATOM      7  O   UNL     1       0.826  -1.519  -4.612  0.00  0.00    -0.423 OA
ATOM      8  C   UNL     1      -0.462  -1.698  -4.969  0.00  0.00    +0.201 C 
ATOM      9  C   UNL     1      -1.513  -1.315  -4.207  0.00  0.00    +0.110 C 
ATOM     10  C   UNL     1      -1.329  -0.643  -2.874  0.00  0.00    +0.145 C 
ATOM     11  C   UNL     1      -1.770   0.785  -2.920  0.00  0.00    +0.001 A 
ATOM     12  C   UNL     1      -1.333   1.854  -3.672  0.00  0.00    -0.044 A 
ATOM     13  C   UNL     1      -1.970   3.073  -3.466  0.00  0.00    +0.004 A 
ATOM     14  C   UNL     1      -2.993   3.203  -2.549  0.00  0.00    +0.002 A 
ATOM     15  C   UNL     1      -3.438   2.133  -1.789  0.00  0.00    +0.023 A 
ATOM     16  C   UNL     1      -2.808   0.903  -1.987  0.00  0.00    +0.039 A 
ATOM     17  N   UNL     1      -3.047  -0.315  -1.376  0.00  0.00    -0.284 N 
ATOM     18  C   UNL     1      -2.225  -1.282  -1.837  0.00  0.00    +0.238 C 
ATOM     19  O   UNL     1      -2.209  -2.443  -1.486  0.00  0.00    -0.274 OA
ATOM     20  C   UNL     1      -0.215   1.708  -4.673  0.00  0.00    +0.044 C 
ATOM     21  H   UNL     1      -3.724  -0.458  -0.697  0.00  0.00    +0.155 HD
ENDROOT
BRANCH   8  22
ATOM     22  N   UNL     1      -0.721  -2.303  -6.174  0.00  0.00    -0.328 N 
ATOM     23  H   UNL     1       0.012  -2.588  -6.742  0.00  0.00    +0.145 HD
ATOM     24  H   UNL     1      -1.638  -2.445  -6.458  0.00  0.00    +0.145 HD
ENDBRANCH   8  22
BRANCH   1  26
ATOM     25  C   UNL     1      -0.019   1.526   0.010  0.00  0.00    +0.010 C 
ATOM     26  C   UNL     1       0.002  -0.004   0.002  0.00  0.00    +0.054 C 
ENDBRANCH   1  26
BRANCH   9  27
ATOM     27  C   UNL     1      -2.841  -1.557  -4.685  0.00  0.00    +0.102 C 
ATOM     28  N   UNL     1      -3.894  -1.750  -5.064  0.00  0.00    -0.191 NA
ENDBRANCH   9  27
TORSDOF 3
