REMARK  Name = ZINC39531485
REMARK  10 active torsions:
REMARK  status: ('A' for Active; 'I' for Inactive)
REMARK    1  A    between atoms: C_1  and  C_2
REMARK    2  A    between atoms: C_2  and  C_3
REMARK    3  A    between atoms: C_2  and  S_4
REMARK    4  A    between atoms: S_4  and  C_7
REMARK    5  A    between atoms: N_10  and  C_14
REMARK    6  A    between atoms: C_14  and  C_16
REMARK    7  A    between atoms: C_14  and  C_19
REMARK    8  A    between atoms: C_16  and  N_17
REMARK    9  A    between atoms: C_22  and  C_25
REMARK   10  A    between atoms: C_25  and  C_26
REMARK                            x       y       z     vdW  Elec       q    Type
REMARK                         _______ _______ _______ _____ _____    ______ ____
ROOT
ATOM      1  C   UNL     1       5.559  -0.015  -3.526  0.00  0.00    +0.101 C 
ENDROOT
BRANCH   1   4
ATOM      2  C   UNL     1       2.649   0.522  -1.196  0.00  0.00    +0.212 C 
ATOM      3  C   UNL     1       3.416  -0.031  -2.399  0.00  0.00    +0.127 C 
ATOM      4  N   UNL     1       4.809   0.434  -2.346  0.00  0.00    -0.290 NA
ATOM      5  C   UNL     1       5.462  -0.009  -1.106  0.00  0.00    +0.100 C 
ATOM      6  C   UNL     1       4.695   0.544   0.097  0.00  0.00    +0.098 C 
ATOM      7  N   UNL     1       3.302   0.080   0.044  0.00  0.00    -0.293 NA
ATOM      8  H   UNL     1       2.786   0.388   0.854  0.00  0.00    +0.124 HD
BRANCH   2   9
ATOM      9  S   UNL     1       0.942  -0.089  -1.233  0.00  0.00    -0.012 S 
ATOM     10  O   UNL     1       0.965  -1.499  -1.054  0.00  0.00    -0.173 OA
ATOM     11  O   UNL     1       0.295   0.452  -2.376  0.00  0.00    -0.173 OA
BRANCH   9  13
ATOM     12  C   UNL     1       0.299   2.189   0.139  0.00  0.00    +0.031 C 
ATOM     13  C   UNL     1       0.214   0.665   0.248  0.00  0.00    +0.126 C 
ATOM     14  C   UNL     1      -1.252   0.242   0.368  0.00  0.00    +0.031 C 
ENDBRANCH   9  13
ENDBRANCH   2   9
ENDBRANCH   1   4
BRANCH   1  15
ATOM     15  C   UNL     1       6.958   0.543  -3.474  0.00  0.00    -0.029 A 
ATOM     16  C   UNL     1       7.169   1.838  -3.039  0.00  0.00    +0.005 A 
ATOM     17  C   UNL     1       8.452   2.351  -2.991  0.00  0.00    +0.004 A 
ATOM     18  C   UNL     1       9.524   1.568  -3.379  0.00  0.00    -0.043 A 
ATOM     19  C   UNL     1       9.313   0.273  -3.813  0.00  0.00    +0.004 A 
ATOM     20  C   UNL     1       8.030  -0.241  -3.857  0.00  0.00    +0.005 A 
BRANCH  18  21
ATOM     21  C   UNL     1      10.923   2.127  -3.328  0.00  0.00    +0.070 C 
BRANCH  21  22
ATOM     22  C   UNL     1      11.528   1.843  -1.977  0.00  0.00    -0.043 A 
ATOM     23  C   UNL     1      11.371   2.750  -0.945  0.00  0.00    +0.004 A 
ATOM     24  C   UNL     1      11.926   2.490   0.294  0.00  0.00    +0.000 A 
ATOM     25  C   UNL     1      12.638   1.323   0.501  0.00  0.00    +0.000 A 
ATOM     26  C   UNL     1      12.795   0.416  -0.531  0.00  0.00    +0.000 A 
ATOM     27  C   UNL     1      12.236   0.674  -1.769  0.00  0.00    +0.004 A 
ENDBRANCH  21  22
ENDBRANCH  18  21
ENDBRANCH   1  15
BRANCH   1  28
ATOM     28  C   UNL     1       4.860   0.479  -4.794  0.00  0.00    +0.115 C 
BRANCH  28  29
ATOM     29  N   UNL     1       5.569  -0.030  -5.975  0.00  0.00    -0.259 NA
ATOM     30  I   UNL     1       4.777   0.745  -7.699  0.00  0.00    +0.018 I 
ATOM     31  H   UNL     1       5.561  -1.039  -5.995  0.00  0.00    +0.134 HD
ENDBRANCH  28  29
ENDBRANCH   1  28
TORSDOF 8
