REMARK  Name = ZINC01812475
REMARK  12 active torsions:
REMARK  status: ('A' for Active; 'I' for Inactive)
REMARK    1  A    between atoms: C_1  and  C_2
REMARK    2  A    between atoms: C_2  and  C_4
REMARK    3  A    between atoms: C_2  and  S_8
REMARK    4  A    between atoms: C_4  and  O_6
REMARK    5  A    between atoms: O_6  and  C_7
REMARK    6  A    between atoms: S_8  and  C_9
REMARK    7  A    between atoms: C_21  and  C_24
REMARK    8  A    between atoms: C_24  and  C_25
REMARK    9  A    between atoms: C_24  and  C_26
REMARK   10  A    between atoms: N_29  and  C_30
REMARK   11  A    between atoms: C_33  and  O_36
REMARK   12  A    between atoms: O_36  and  C_37
REMARK                            x       y       z     vdW  Elec       q    Type
REMARK                         _______ _______ _______ _____ _____    ______ ____
ROOT
ATOM      1  C   UNL     1       0.777   1.028   3.268  0.00  0.00    +0.199 A 
ATOM      2  N   UNL     1      -0.083   2.016   3.303  0.00  0.00    -0.120 NA
ATOM      3  N   UNL     1      -0.876   1.862   4.446  0.00  0.00    -0.109 NA
ATOM      4  C   UNL     1      -0.476   0.782   5.076  0.00  0.00    +0.245 A 
ATOM      5  N   UNL     1       0.555   0.232   4.361  0.00  0.00    -0.249 N 
ATOM      6  C   UNL     1       1.164  -0.925   4.797  0.00  0.00    +0.102 A 
ATOM      7  C   UNL     1       0.760  -1.570   5.961  0.00  0.00    +0.075 A 
ATOM      8  C   UNL     1       1.500  -2.785   6.294  0.00  0.00    -0.018 A 
ATOM      9  C   UNL     1       2.478  -3.114   5.423  0.00  0.00    +0.021 A 
ATOM     10  S   UNL     1       2.421  -1.849   4.191  0.00  0.00    -0.072 S 
ATOM     11  C   UNL     1       3.384  -4.300   5.526  0.00  0.00    +0.203 C 
ATOM     12  O   UNL     1       3.255  -4.837   6.853  0.00  0.00    -0.371 OA
ATOM     13  C   UNL     1       1.899  -5.017   7.271  0.00  0.00    +0.126 C 
ATOM     14  C   UNL     1       1.236  -3.657   7.513  0.00  0.00    +0.068 C 
ATOM     15  C   UNL     1      -0.359  -0.949   6.705  0.00  0.00    +0.268 A 
ATOM     16  O   UNL     1      -0.766  -1.457   7.734  0.00  0.00    -0.266 OA
ATOM     17  N   UNL     1      -0.917   0.184   6.246  0.00  0.00    -0.245 N 
ENDROOT
BRANCH  17  18
ATOM     18  C   UNL     1      -1.977   0.764   6.956  0.00  0.00    +0.053 A 
ATOM     19  C   UNL     1      -3.286   0.396   6.673  0.00  0.00    +0.030 A 
ATOM     20  C   UNL     1      -4.330   0.967   7.374  0.00  0.00    +0.047 A 
ATOM     21  C   UNL     1      -4.072   1.908   8.360  0.00  0.00    +0.120 A 
ATOM     22  C   UNL     1      -2.764   2.276   8.643  0.00  0.00    +0.047 A 
ATOM     23  C   UNL     1      -1.719   1.701   7.947  0.00  0.00    +0.030 A 
BRANCH  21  24
ATOM     24  O   UNL     1      -5.100   2.470   9.049  0.00  0.00    -0.495 OA
ATOM     25  C   UNL     1      -4.761   3.431  10.051  0.00  0.00    +0.277 C 
ENDBRANCH  21  24
ENDBRANCH  17  18
BRANCH  13  26
ATOM     26  C   UNL     1       1.873  -5.829   8.568  0.00  0.00    +0.012 C 
ATOM     27  C   UNL     1       2.520  -7.195   8.328  0.00  0.00    +0.010 C 
ATOM     28  C   UNL     1       2.648  -5.081   9.654  0.00  0.00    +0.010 C 
ENDBRANCH  13  26
BRANCH   1  29
ATOM     29  S   UNL     1       2.001   0.764   2.028  0.00  0.00    -0.071 S 
BRANCH  29  31
ATOM     30  C   UNL     1       2.105   3.464   1.598  0.00  0.00    +0.031 C 
ATOM     31  C   UNL     1       1.772   2.153   0.883  0.00  0.00    +0.160 C 
BRANCH  31  32
ATOM     32  C   UNL     1       2.685   1.982  -0.303  0.00  0.00    +0.320 C 
ATOM     33  O   UNL     1       3.650   1.258  -0.224  0.00  0.00    -0.250 OA
BRANCH  32  34
ATOM     34  O   UNL     1       2.427   2.633  -1.448  0.00  0.00    -0.467 OA
ATOM     35  C   UNL     1       3.335   2.424  -2.532  0.00  0.00    +0.280 C 
ENDBRANCH  32  34
ENDBRANCH  31  32
ENDBRANCH  29  31
ENDBRANCH   1  29
TORSDOF 7
