REMARK  Name = ZINC00846362
REMARK  4 active torsions:
REMARK  status: ('A' for Active; 'I' for Inactive)
REMARK    1  A    between atoms: C_3  and  C_6
REMARK    2  A    between atoms: C_9  and  C_20
REMARK    3  A    between atoms: C_15  and  N_19
REMARK    4  A    between atoms: C_16  and  C_17
REMARK                            x       y       z     vdW  Elec       q    Type
REMARK                         _______ _______ _______ _____ _____    ______ ____
ROOT
ATOM      1  C   UNL     1       3.761   1.845  -0.024  0.00  0.00    +0.108 C 
ATOM      2  C   UNL     1       4.495   1.331   1.187  0.00  0.00    +0.055 A 
ATOM      3  C   UNL     1       4.361   1.705   2.527  0.00  0.00    +0.100 A 
ATOM      4  N   UNL     1       5.210   0.985   3.236  0.00  0.00    -0.171 NA
ATOM      5  N   UNL     1       5.906   0.135   2.363  0.00  0.00    -0.246 N 
ATOM      6  H   UNL     1       6.591  -0.504   2.614  0.00  0.00    +0.192 HD
ATOM      7  C   UNL     1       5.454   0.363   1.112  0.00  0.00    +0.223 A 
ATOM      8  O   UNL     1       5.825  -0.211  -0.060  0.00  0.00    -0.423 OA
ATOM      9  C   UNL     1       5.422   0.382  -1.202  0.00  0.00    +0.200 C 
ATOM     10  C   UNL     1       4.472   1.343  -1.256  0.00  0.00    +0.099 C 
ENDROOT
BRANCH   3  11
ATOM     11  C   UNL     1       3.429   2.730   3.059  0.00  0.00    +0.006 A 
ATOM     12  C   UNL     1       3.137   3.865   2.306  0.00  0.00    +0.014 A 
ATOM     13  C   UNL     1       2.270   4.818   2.800  0.00  0.00    +0.050 A 
ATOM     14  C   UNL     1       1.687   4.650   4.047  0.00  0.00    +0.166 A 
ATOM     15  C   UNL     1       1.975   3.516   4.805  0.00  0.00    +0.167 A 
ATOM     16  C   UNL     1       2.840   2.556   4.309  0.00  0.00    +0.059 A 
ATOM     17  O   UNL     1       1.282   3.588   5.979  0.00  0.00    -0.453 OA
ATOM     18  C   UNL     1       0.887   4.966   6.108  0.00  0.00    +0.466 C 
ATOM     19  O   UNL     1       0.812   5.430   4.747  0.00  0.00    -0.453 OA
ENDBRANCH   3  11
BRANCH   1  22
ATOM     20  C   UNL     1      -0.016   1.351   0.009  0.00  0.00    +0.008 A 
ATOM     21  C   UNL     1       1.183   2.038   0.002  0.00  0.00    +0.012 A 
ATOM     22  C   UNL     1       2.343   1.336  -0.013  0.00  0.00    +0.003 A 
ATOM     23  S   UNL     1       1.754  -0.349  -0.017  0.00  0.00    -0.101 S 
ATOM     24  C   UNL     1       0.002  -0.004   0.002  0.00  0.00    +0.045 A 
ENDBRANCH   1  22
BRANCH   9  25
ATOM     25  N   UNL     1       6.011  -0.012  -2.377  0.00  0.00    -0.328 N 
ATOM     26  H   UNL     1       6.696  -0.699  -2.371  0.00  0.00    +0.145 HD
ATOM     27  H   UNL     1       5.742   0.397  -3.215  0.00  0.00    +0.145 HD
ENDBRANCH   9  25
BRANCH  10  28
ATOM     28  C   UNL     1       4.129   1.905  -2.528  0.00  0.00    +0.101 C 
ATOM     29  N   UNL     1       3.857   2.350  -3.537  0.00  0.00    -0.191 NA
ENDBRANCH  10  28
TORSDOF 4
