REMARK  Name = ZINC63229094
REMARK  8 active torsions:
REMARK  status: ('A' for Active; 'I' for Inactive)
REMARK    1  A    between atoms: C_1  and  N_2
REMARK    2  A    between atoms: N_2  and  C_3
REMARK    3  A    between atoms: N_2  and  C_4
REMARK    4  A    between atoms: C_7  and  C_10
REMARK    5  A    between atoms: C_10  and  C_12
REMARK    6  A    between atoms: C_10  and  C_26
REMARK    7  A    between atoms: C_12  and  N_13
REMARK    8  A    between atoms: C_14  and  C_16
REMARK                            x       y       z     vdW  Elec       q    Type
REMARK                         _______ _______ _______ _____ _____    ______ ____
ROOT
ATOM      1  C   UNL     1      -4.870  -2.906   0.033  0.00  0.00    +0.064 C 
ENDROOT
BRANCH   1   2
ATOM      2  C   UNL     1      -5.656  -2.555   1.269  0.00  0.00    -0.033 C 
ATOM      3  C   UNL     1      -6.051  -3.399   2.250  0.00  0.00    -0.000 A 
ATOM      4  C   UNL     1      -5.873  -4.842   2.450  0.00  0.00    +0.010 A 
ATOM      5  C   UNL     1      -6.395  -5.420   3.555  0.00  0.00    +0.001 A 
ATOM      6  C   UNL     1      -7.100  -4.678   4.512  0.00  0.00    +0.002 A 
ATOM      7  C   UNL     1      -7.304  -3.348   4.398  0.00  0.00    +0.026 A 
ATOM      8  C   UNL     1      -6.799  -2.637   3.275  0.00  0.00    +0.043 A 
ATOM      9  N   UNL     1      -6.864  -1.371   2.942  0.00  0.00    -0.380 N 
ATOM     10  C   UNL     1      -6.159  -1.185   1.669  0.00  0.00    +0.145 C 
ATOM     11  H   UNL     1      -7.302  -0.673   3.454  0.00  0.00    +0.160 HD
ENDBRANCH   1   2
BRANCH   1  15
ATOM     12  C   UNL     1      -1.198  -0.719   0.010  0.00  0.00    +0.029 A 
ATOM     13  C   UNL     1      -1.181  -2.108   0.008  0.00  0.00    +0.023 A 
ATOM     14  C   UNL     1      -2.369  -2.812   0.016  0.00  0.00    +0.006 A 
ATOM     15  C   UNL     1      -3.575  -2.135   0.025  0.00  0.00    -0.039 A 
ATOM     16  C   UNL     1      -3.596  -0.752   0.027  0.00  0.00    +0.006 A 
ATOM     17  C   UNL     1      -2.411  -0.042   0.025  0.00  0.00    +0.023 A 
BRANCH  12  19
ATOM     18  C   UNL     1      -0.018   1.461   0.010  0.00  0.00    +0.129 C 
ATOM     19  N   UNL     1       0.002  -0.004   0.002  0.00  0.00    -0.336 N 
ATOM     20  C   UNL     1       1.281  -0.719  -0.014  0.00  0.00    +0.129 C 
ENDBRANCH  12  19
ENDBRANCH   1  15
BRANCH   1  21
ATOM     21  C   UNL     1      -5.686  -2.545  -1.210  0.00  0.00    +0.117 C 
BRANCH  21  22
ATOM     22  N   UNL     1      -6.888  -3.381  -1.265  0.00  0.00    -0.310 N 
ATOM     23  C   UNL     1      -7.762  -3.239  -2.280  0.00  0.00    +0.244 C 
ATOM     24  O   UNL     1      -7.553  -2.416  -3.151  0.00  0.00    -0.270 OA
ATOM     25  H   UNL     1      -7.054  -4.037  -0.570  0.00  0.00    +0.149 HD
BRANCH  23  26
ATOM     26  C   UNL     1      -8.972  -4.080  -2.336  0.00  0.00    +0.038 A 
ATOM     27  C   UNL     1      -9.226  -5.028  -1.334  0.00  0.00    +0.015 A 
ATOM     28  C   UNL     1     -10.332  -5.811  -1.365  0.00  0.00    +0.029 A 
ATOM     29  C   UNL     1     -11.276  -5.701  -2.416  0.00  0.00    +0.080 A 
ATOM     30  C   UNL     1     -10.998  -4.737  -3.415  0.00  0.00    +0.041 A 
ATOM     31  C   UNL     1      -9.887  -3.941  -3.385  0.00  0.00    +0.030 A 
ATOM     32  S   UNL     1     -12.385  -4.915  -4.511  0.00  0.00    -0.053 S 
ATOM     33  C   UNL     1     -13.219  -6.212  -3.607  0.00  0.00    +0.157 A 
ATOM     34  N   UNL     1     -12.414  -6.403  -2.584  0.00  0.00    -0.225 NA
ATOM     35  N   UNL     1     -14.404  -6.850  -3.905  0.00  0.00    -0.337 N 
ATOM     36  H   UNL     1     -14.899  -6.604  -4.702  0.00  0.00    +0.144 HD
ATOM     37  H   UNL     1     -14.742  -7.544  -3.318  0.00  0.00    +0.144 HD
ENDBRANCH  23  26
ENDBRANCH  21  22
ENDBRANCH   1  21
TORSDOF 6
