REMARK  Name = ZINC13616659
REMARK  4 active torsions:
REMARK  status: ('A' for Active; 'I' for Inactive)
REMARK    1  A    between atoms: C_1  and  C_2
REMARK    2  A    between atoms: C_2  and  C_3
REMARK    3  A    between atoms: C_2  and  C_4
REMARK    4  A    between atoms: C_10  and  C_12
REMARK                            x       y       z     vdW  Elec       q    Type
REMARK                         _______ _______ _______ _____ _____    ______ ____
ROOT
ATOM      1  C   UNL     1      -0.935   2.072  -1.086  0.00  0.00    +0.281 C 
ATOM      2  N   UNL     1      -0.759   3.524  -1.213  0.00  0.00    -0.209 N 
ATOM      3  C   UNL     1       0.545   4.096  -1.621  0.00  0.00    +0.136 C 
ATOM      4  C   UNL     1       0.176   5.530  -2.024  0.00  0.00    +0.087 C 
ATOM      5  C   UNL     1      -1.242   5.691  -1.515  0.00  0.00    +0.075 C 
ATOM      6  N   UNL     1      -1.673   4.552  -1.071  0.00  0.00    -0.184 NA
ATOM      7  C   UNL     1       1.016   3.283  -2.798  0.00  0.00    +0.018 A 
ATOM      8  C   UNL     1       2.022   3.782  -3.604  0.00  0.00    +0.024 A 
ATOM      9  C   UNL     1       2.482   3.048  -4.681  0.00  0.00    +0.018 A 
ATOM     10  C   UNL     1       1.933   1.806  -4.949  0.00  0.00    +0.019 A 
ATOM     11  C   UNL     1       0.927   1.308  -4.151  0.00  0.00    +0.047 A 
ATOM     12  C   UNL     1       0.449   2.046  -3.068  0.00  0.00    +0.128 A 
ATOM     13  O   UNL     1      -0.575   1.512  -2.353  0.00  0.00    -0.469 OA
ATOM     14 BR   UNL     1       3.856   3.737  -5.783  0.00  0.00    -0.050 Br
ENDROOT
BRANCH   5  15
ATOM     15  C   UNL     1      -2.009   6.942  -1.523  0.00  0.00    +0.035 A 
ATOM     16  C   UNL     1      -3.301   7.176  -1.087  0.00  0.00    +0.017 A 
ATOM     17  C   UNL     1      -3.807   8.452  -1.197  0.00  0.00    +0.008 A 
ATOM     18  C   UNL     1      -3.034   9.430  -1.734  0.00  0.00    +0.046 A 
ATOM     19  S   UNL     1      -1.521   8.558  -2.106  0.00  0.00    -0.095 S 
ENDBRANCH   5  15
BRANCH   1  21
ATOM     20  C   UNL     1      -0.332   2.226   1.334  0.00  0.00    +0.013 C 
ATOM     21  C   UNL     1      -0.019   1.526   0.010  0.00  0.00    +0.044 C 
ATOM     22  C   UNL     1      -0.248   0.021   0.163  0.00  0.00    +0.013 C 
ENDBRANCH   1  21
TORSDOF 2
