REMARK  Name = ZINC19203760
REMARK  10 active torsions:
REMARK  status: ('A' for Active; 'I' for Inactive)
REMARK    1  A    between atoms: C_1  and  C_2
REMARK    2  A    between atoms: C_2  and  C_3
REMARK    3  A    between atoms: C_3  and  C_4
REMARK    4  A    between atoms: C_4  and  N_5
REMARK    5  A    between atoms: N_5  and  C_6
REMARK    6  A    between atoms: C_7  and  N_18
REMARK    7  A    between atoms: N_8  and  C_15
REMARK    8  A    between atoms: C_15  and  C_16
REMARK    9  A    between atoms: C_16  and  C_17
REMARK   10  A    between atoms: C_19  and  C_21
REMARK                            x       y       z     vdW  Elec       q    Type
REMARK                         _______ _______ _______ _____ _____    ______ ____
ROOT
ATOM      1  N   UNL     1       2.013   5.193   0.083  0.00  0.00    -0.260 N 
ATOM      2  C   UNL     1       2.112   3.876  -0.182  0.00  0.00    +0.252 C 
ATOM      3  O   UNL     1       1.115   3.180  -0.191  0.00  0.00    -0.270 OA
ENDROOT
BRANCH   1   4
ATOM      4  C   UNL     1       3.173   5.994   0.124  0.00  0.00    +0.140 A 
ATOM      5  C   UNL     1       3.971   6.130  -0.994  0.00  0.00    +0.127 A 
ATOM      6  N   UNL     1       5.096   6.918  -0.923  0.00  0.00    -0.280 N 
ATOM      7  C   UNL     1       5.414   7.551   0.221  0.00  0.00    +0.331 A 
ATOM      8  O   UNL     1       6.413   8.243   0.263  0.00  0.00    -0.246 OA
ATOM      9  N   UNL     1       4.648   7.430   1.319  0.00  0.00    -0.273 N 
ATOM     10  H   UNL     1       4.929   7.953   2.246  0.00  0.00    +0.173 HD
ATOM     11  C   UNL     1       3.533   6.674   1.302  0.00  0.00    +0.277 A 
ATOM     12  O   UNL     1       2.843   6.576   2.303  0.00  0.00    -0.266 OA
BRANCH   5  13
ATOM     13  N   UNL     1       3.647   5.484  -2.163  0.00  0.00    -0.343 N 
ATOM     14  H   UNL     1       4.288   5.596  -3.049  0.00  0.00    +0.144 HD
ATOM     15  H   UNL     1       2.746   4.855  -2.212  0.00  0.00    +0.144 HD
ENDBRANCH   5  13
BRANCH   6  16
ATOM     16  C   UNL     1       5.953   7.071  -2.102  0.00  0.00    +0.128 C 
BRANCH  16  17
ATOM     17  C   UNL     1       5.476   8.267  -2.928  0.00  0.00    +0.018 C 
ATOM     18  C   UNL     1       6.371   8.427  -4.159  0.00  0.00    +0.005 C 
ENDBRANCH  16  17
ENDBRANCH   6  16
ENDBRANCH   1   4
BRANCH   2  19
ATOM     19  C   UNL     1       3.434   3.276  -0.463  0.00  0.00    +0.054 A 
ATOM     20  C   UNL     1       4.581   3.796   0.139  0.00  0.00    +0.052 A 
ATOM     21  C   UNL     1       5.813   3.231  -0.128  0.00  0.00    +0.124 A 
ATOM     22  C   UNL     1       5.910   2.148  -0.987  0.00  0.00    +0.039 A 
ATOM     23  C   UNL     1       4.778   1.633  -1.590  0.00  0.00    +0.019 A 
ATOM     24  C   UNL     1       3.540   2.188  -1.332  0.00  0.00    +0.030 A 
ATOM     25 BR   UNL     1       1.992   1.477  -2.153  0.00  0.00    -0.050 Br
ATOM     26  F   UNL     1       6.925   3.732   0.453  0.00  0.00    -0.205 F 
ENDBRANCH   2  19
BRANCH   1  27
ATOM     27  C   UNL     1       0.699   5.793   0.330  0.00  0.00    +0.114 C 
BRANCH  27  28
ATOM     28  C   UNL     1       0.298   5.562   1.788  0.00  0.00    +0.019 C 
BRANCH  28  30
ATOM     29  C   UNL     1      -1.530   5.834   3.469  0.00  0.00    +0.004 C 
ATOM     30  C   UNL     1      -1.129   6.065   2.011  0.00  0.00    -0.002 C 
ENDBRANCH  28  30
ENDBRANCH  27  28
ENDBRANCH   1  27
TORSDOF 8
