REMARK  Name = ZINC36586917
REMARK  21 active torsions:
REMARK  status: ('A' for Active; 'I' for Inactive)
REMARK    1  A    between atoms: C_1  and  C_2
REMARK    2  A    between atoms: C_2  and  C_3
REMARK    3  A    between atoms: C_2  and  C_4
REMARK    4  A    between atoms: C_2  and  C_5
REMARK    5  A    between atoms: C_5  and  C_6
REMARK    6  A    between atoms: C_6  and  C_7
REMARK    7  A    between atoms: C_6  and  C_8
REMARK    8  A    between atoms: C_6  and  N_9
REMARK    9  A    between atoms: C_10  and  C_12
REMARK   10  A    between atoms: C_12  and  C_14
REMARK   11  A    between atoms: C_12  and  N_23
REMARK   12  A    between atoms: C_15  and  O_22
REMARK   13  A    between atoms: C_17  and  O_21
REMARK   14  A    between atoms: C_19  and  O_20
REMARK   15  A    between atoms: N_23  and  C_34
REMARK   16  A    between atoms: C_24  and  C_26
REMARK   17  A    between atoms: C_30  and  O_33
REMARK   18  A    between atoms: C_31  and  O_32
REMARK   19  A    between atoms: C_34  and  C_35
REMARK   20  A    between atoms: C_34  and  C_36
REMARK   21  A    between atoms: C_34  and  C_37
REMARK                            x       y       z     vdW  Elec       q    Type
REMARK                         _______ _______ _______ _____ _____    ______ ____
ROOT
ATOM      1  C   UNL     1       3.946  -0.823  -2.069  0.00  0.00    +0.200 C 
ENDROOT
BRANCH   1   2
ATOM      2  C   UNL     1       2.925  -0.337  -3.065  0.00  0.00    +0.065 A 
ATOM      3  C   UNL     1       3.106   0.880  -3.705  0.00  0.00    +0.129 A 
ATOM      4  C   UNL     1       2.166   1.327  -4.622  0.00  0.00    +0.091 A 
ATOM      5  C   UNL     1       1.046   0.558  -4.898  0.00  0.00    +0.124 A 
ATOM      6  C   UNL     1       0.866  -0.659  -4.258  0.00  0.00    +0.091 A 
ATOM      7  C   UNL     1       1.807  -1.109  -3.345  0.00  0.00    +0.129 A 
BRANCH   7   8
ATOM      8  O   UNL     1       1.633  -2.303  -2.721  0.00  0.00    -0.506 OA
ATOM      9  H   UNL     1       1.141  -2.245  -1.891  0.00  0.00    +0.292 HD
ENDBRANCH   7   8
BRANCH   5  10
ATOM     10  O   UNL     1       0.124   0.997  -5.795  0.00  0.00    -0.507 OA
ATOM     11  H   UNL     1       0.297   0.717  -6.705  0.00  0.00    +0.292 HD
ENDBRANCH   5  10
BRANCH   3  12
ATOM     12  O   UNL     1       4.204   1.633  -3.435  0.00  0.00    -0.506 OA
ATOM     13  H   UNL     1       4.935   1.500  -4.054  0.00  0.00    +0.292 HD
ENDBRANCH   3  12
ENDBRANCH   1   2
BRANCH   1  15
ATOM     14  N   UNL     1       2.390  -0.739  -0.148  0.00  0.00    -0.308 N 
ATOM     15  C   UNL     1       3.564  -0.356  -0.688  0.00  0.00    +0.239 C 
ATOM     16  O   UNL     1       4.312   0.365  -0.063  0.00  0.00    -0.273 OA
ATOM     17  H   UNL     1       1.791  -1.315  -0.648  0.00  0.00    +0.149 HD
BRANCH  14  18
ATOM     18  C   UNL     1       2.018  -0.284   1.194  0.00  0.00    +0.030 C 
ATOM     19  C   UNL     1       1.958   1.244   1.216  0.00  0.00    +0.031 C 
ATOM     20  C   UNL     1       3.061  -0.769   2.203  0.00  0.00    +0.031 C 
BRANCH  18  21
ATOM     21  C   UNL     1       0.647  -0.854   1.564  0.00  0.00    +0.031 C 
BRANCH  21  23
ATOM     22  C   UNL     1      -0.164  -1.498  -0.710  0.00  0.00    +0.010 C 
ATOM     23  C   UNL     1      -0.357  -0.527   0.456  0.00  0.00    -0.036 C 
ATOM     24  C   UNL     1      -0.131   0.906  -0.030  0.00  0.00    +0.010 C 
ATOM     25  C   UNL     1      -1.780  -0.662   1.002  0.00  0.00    +0.010 C 
ENDBRANCH  21  23
ENDBRANCH  18  21
ENDBRANCH  14  18
ENDBRANCH   1  15
BRANCH   1  26
ATOM     26  N   UNL     1       5.264  -0.286  -2.419  0.00  0.00    -0.277 N 
ATOM     27  C   UNL     1       5.730  -0.411  -3.677  0.00  0.00    +0.252 C 
ATOM     28  O   UNL     1       6.752   0.160  -4.006  0.00  0.00    -0.270 OA
BRANCH  27  29
ATOM     29  C   UNL     1       5.000  -1.240  -4.655  0.00  0.00    +0.082 A 
ATOM     30  C   UNL     1       3.946  -2.057  -4.236  0.00  0.00    +0.017 A 
ATOM     31  C   UNL     1       3.266  -2.829  -5.152  0.00  0.00    +0.005 A 
ATOM     32  C   UNL     1       3.621  -2.801  -6.491  0.00  0.00    +0.049 A 
ATOM     33  C   UNL     1       4.663  -1.997  -6.922  0.00  0.00    +0.159 A 
ATOM     34  C   UNL     1       5.355  -1.207  -6.009  0.00  0.00    +0.171 A 
BRANCH  34  35
ATOM     35  O   UNL     1       6.373  -0.413  -6.428  0.00  0.00    -0.503 OA
ATOM     36  H   UNL     1       7.239  -0.844  -6.416  0.00  0.00    +0.292 HD
ENDBRANCH  34  35
BRANCH  33  37
ATOM     37  O   UNL     1       5.006  -1.976  -8.238  0.00  0.00    -0.503 OA
ATOM     38  H   UNL     1       4.537  -1.307  -8.755  0.00  0.00    +0.292 HD
ENDBRANCH  33  37
ENDBRANCH  27  29
BRANCH  26  39
ATOM     39  C   UNL     1       6.074   0.386  -1.401  0.00  0.00    +0.030 C 
ATOM     40  C   UNL     1       6.182  -0.507  -0.163  0.00  0.00    +0.031 C 
ATOM     41  C   UNL     1       7.474   0.655  -1.958  0.00  0.00    +0.031 C 
ATOM     42  C   UNL     1       5.415   1.712  -1.017  0.00  0.00    +0.031 C 
ENDBRANCH  26  39
ENDBRANCH   1  26
TORSDOF 13
