REMARK  Name = ZINC16082716
REMARK  14 active torsions:
REMARK  status: ('A' for Active; 'I' for Inactive)
REMARK    1  A    between atoms: C_1  and  C_2
REMARK    2  A    between atoms: C_2  and  O_3
REMARK    3  A    between atoms: O_3  and  C_4
REMARK    4  A    between atoms: C_4  and  C_6
REMARK    5  A    between atoms: C_9  and  C_12
REMARK    6  A    between atoms: C_14  and  C_32
REMARK    7  A    between atoms: C_16  and  C_25
REMARK    8  A    between atoms: C_18  and  C_20
REMARK    9  A    between atoms: C_20  and  O_22
REMARK   10  A    between atoms: O_22  and  C_23
REMARK   11  A    between atoms: C_23  and  C_24
REMARK   12  A    between atoms: C_32  and  O_34
REMARK   13  A    between atoms: O_34  and  C_35
REMARK   14  A    between atoms: C_35  and  C_36
REMARK                            x       y       z     vdW  Elec       q    Type
REMARK                         _______ _______ _______ _____ _____    ______ ____
ROOT
ATOM      1  C   UNL     1      -4.661   1.093   1.192  0.00  0.00    +0.028 C 
ATOM      2  C   UNL     1      -3.141   0.983   1.430  0.00  0.00    +0.094 C 
ATOM      3  C   UNL     1      -2.514   0.979   0.019  0.00  0.00    -0.025 C 
ATOM      4  C   UNL     1      -4.824   1.146  -0.342  0.00  0.00    +0.048 C 
ATOM      5  N   UNL     1      -3.526   1.630  -0.813  0.00  0.00    +0.393 N 
ATOM      6  H   UNL     1      -3.390   1.379  -1.799  0.00  0.00    -0.084 HD
ATOM      7  H   UNL     1      -3.469   2.650  -0.709  0.00  0.00    -0.084 HD
ENDROOT
BRANCH   3   8
ATOM      8  C   UNL     1      -1.219   1.751   0.017  0.00  0.00    -0.061 A 
ATOM      9  C   UNL     1      -0.013   1.076   0.008  0.00  0.00    +0.003 A 
ATOM     10  C   UNL     1       1.175   1.783   0.000  0.00  0.00    +0.015 A 
ATOM     11  C   UNL     1       1.156   3.166   0.008  0.00  0.00    +0.018 A 
ATOM     12  C   UNL     1      -0.051   3.841   0.022  0.00  0.00    +0.015 A 
ATOM     13  C   UNL     1      -1.238   3.133   0.030  0.00  0.00    +0.003 A 
ATOM     14 BR   UNL     1       2.780   4.134  -0.003  0.00  0.00    -0.050 Br
ENDBRANCH   3   8
BRANCH   1  18
ATOM     15  C   UNL     1      -6.664  -2.334   2.782  0.00  0.00    +0.059 A 
ATOM     16  C   UNL     1      -7.016  -1.054   3.213  0.00  0.00    +0.015 A 
ATOM     17  C   UNL     1      -6.366   0.048   2.696  0.00  0.00    +0.004 A 
ATOM     18  C   UNL     1      -5.367  -0.115   1.752  0.00  0.00    -0.045 A 
ATOM     19  C   UNL     1      -5.017  -1.381   1.317  0.00  0.00    +0.004 A 
ATOM     20  C   UNL     1      -5.655  -2.491   1.829  0.00  0.00    +0.015 A 
BRANCH  15  21
ATOM     21  C   UNL     1      -7.356  -3.518   3.332  0.00  0.00    +0.339 C 
ATOM     22  O   UNL     1      -8.233  -3.379   4.160  0.00  0.00    -0.245 OA
BRANCH  21  23
ATOM     23  O   UNL     1      -7.014  -4.752   2.913  0.00  0.00    -0.461 OA
BRANCH  23  25
ATOM     24  C   UNL     1      -7.213  -7.179   2.904  0.00  0.00    +0.048 C 
ATOM     25  C   UNL     1      -7.736  -5.869   3.496  0.00  0.00    +0.229 C 
ENDBRANCH  23  25
ENDBRANCH  21  23
ENDBRANCH  15  21
ENDBRANCH   1  18
BRANCH   4  26
ATOM     26  C   UNL     1      -5.097  -0.230  -0.892  0.00  0.00    +0.294 C 
ATOM     27  O   UNL     1      -4.191  -0.893  -1.339  0.00  0.00    -0.253 OA
BRANCH  26  28
ATOM     28  O   UNL     1      -6.347  -0.720  -0.885  0.00  0.00    -0.466 OA
BRANCH  28  29
ATOM     29  C   UNL     1      -6.536  -2.053  -1.430  0.00  0.00    +0.228 C 
ATOM     30  C   UNL     1      -8.014  -2.437  -1.337  0.00  0.00    +0.048 C 
ENDBRANCH  28  29
ENDBRANCH  26  28
ENDBRANCH   4  26
BRANCH   2  31
ATOM     31  C   UNL     1      -2.647   2.169   2.219  0.00  0.00    +0.309 C 
ATOM     32  O   UNL     1      -3.430   3.001   2.611  0.00  0.00    -0.251 OA
BRANCH  31  33
ATOM     33  O   UNL     1      -1.338   2.299   2.485  0.00  0.00    -0.465 OA
BRANCH  33  34
ATOM     34  C   UNL     1      -0.934   3.466   3.250  0.00  0.00    +0.229 C 
ATOM     35  C   UNL     1       0.582   3.443   3.453  0.00  0.00    +0.048 C 
ENDBRANCH  33  34
ENDBRANCH  31  33
ENDBRANCH   2  31
TORSDOF 11
