REMARK  Name = ZINC09834399
REMARK  10 active torsions:
REMARK  status: ('A' for Active; 'I' for Inactive)
REMARK    1  A    between atoms: C_1  and  C_2
REMARK    2  A    between atoms: C_5  and  C_8
REMARK    3  A    between atoms: C_8  and  N_61
REMARK    4  A    between atoms: N_12  and  C_15
REMARK    5  A    between atoms: C_18  and  S_24
REMARK    6  A    between atoms: C_20  and  N_21
REMARK    7  A    between atoms: S_24  and  N_27
REMARK    8  A    between atoms: N_27  and  C_28
REMARK    9  A    between atoms: C_28  and  C_29
REMARK   10  A    between atoms: C_28  and  C_30
REMARK                            x       y       z     vdW  Elec       q    Type
REMARK                         _______ _______ _______ _____ _____    ______ ____
ROOT
ATOM      1  C   UNL     1      -1.751   4.045  -3.889  0.00  0.00    +0.060 A 
ATOM      2  C   UNL     1      -2.240   2.748  -3.799  0.00  0.00    +0.027 A 
ATOM      3  C   UNL     1      -2.149   2.058  -2.606  0.00  0.00    +0.030 A 
ATOM      4  C   UNL     1      -1.571   2.658  -1.502  0.00  0.00    +0.108 A 
ATOM      5  C   UNL     1      -1.088   3.951  -1.586  0.00  0.00    +0.063 A 
ATOM      6  C   UNL     1      -1.171   4.644  -2.778  0.00  0.00    +0.149 A 
ENDROOT
BRANCH   1  10
ATOM      7  C   UNL     1      -2.316   4.890  -8.107  0.00  0.00    -0.077 C 
ATOM      8  C   UNL     1      -1.005   4.993  -7.369  0.00  0.00    +0.000 C 
ATOM      9  C   UNL     1      -1.079   4.126  -6.093  0.00  0.00    +0.103 C 
ATOM     10  N   UNL     1      -1.841   4.745  -5.094  0.00  0.00    -0.330 N 
ATOM     11  C   UNL     1      -3.251   4.989  -5.460  0.00  0.00    +0.086 C 
ATOM     12  C   UNL     1      -3.309   6.248  -6.288  0.00  0.00    -0.059 C 
ATOM     13  N   UNL     1      -3.267   5.997  -7.764  0.00  0.00    +0.383 N 
ATOM     14  H   UNL     1      -2.951   6.855  -8.232  0.00  0.00    -0.081 HD
BRANCH  13  15
ATOM     15  C   UNL     1      -4.617   5.660  -8.248  0.00  0.00    -0.043 C 
BRANCH  15  20
ATOM     16  C   UNL     1      -8.007  10.290  -7.561  0.00  0.00    +0.044 C 
ATOM     17  C   UNL     1      -7.123   9.082  -7.740  0.00  0.00    -0.050 A 
ATOM     18  C   UNL     1      -6.393   8.927  -8.904  0.00  0.00    +0.003 A 
ATOM     19  C   UNL     1      -5.583   7.819  -9.068  0.00  0.00    +0.002 A 
ATOM     20  C   UNL     1      -5.501   6.868  -8.069  0.00  0.00    -0.064 A 
ATOM     21  C   UNL     1      -6.234   7.021  -6.907  0.00  0.00    +0.002 A 
ATOM     22  C   UNL     1      -7.042   8.131  -6.741  0.00  0.00    +0.003 A 
ENDBRANCH  15  20
ENDBRANCH  13  15
ENDBRANCH   1  10
BRANCH   6  23
ATOM     23  N   UNL     1      -0.649   6.026  -2.869  0.00  0.00    +0.058 N 
ATOM     24  O   UNL     1      -0.141   6.550  -1.894  0.00  0.00    -0.126 OA
ATOM     25  O   UNL     1      -0.727   6.638  -3.919  0.00  0.00    -0.126 OA
ENDBRANCH   6  23
BRANCH   4  26
ATOM     26  S   UNL     1      -1.456   1.774   0.019  0.00  0.00    +0.059 S 
ATOM     27  O   UNL     1      -2.475   0.784  -0.009  0.00  0.00    -0.153 OA
ATOM     28  O   UNL     1      -1.369   2.749   1.049  0.00  0.00    -0.153 OA
BRANCH  26  29
ATOM     29  N   UNL     1      -0.011   0.966   0.007  0.00  0.00    -0.187 NA
ATOM     30  H   UNL     1       0.002  -0.004   0.002  0.00  0.00    +0.148 HD
BRANCH  29  31
ATOM     31  C   UNL     1       1.248   1.716  -0.001  0.00  0.00    +0.070 C 
ATOM     32  C   UNL     1       2.298   0.957   0.813  0.00  0.00    +0.025 C 
ATOM     33  C   UNL     1       1.736   1.876  -1.442  0.00  0.00    +0.025 C 
ENDBRANCH  29  31
ENDBRANCH  26  29
ENDBRANCH   4  26
TORSDOF 7
