REMARK  Name = ZINC16682637
REMARK  7 active torsions:
REMARK  status: ('A' for Active; 'I' for Inactive)
REMARK    1  A    between atoms: C_1  and  C_2
REMARK    2  A    between atoms: C_2  and  O_3
REMARK    3  A    between atoms: O_3  and  C_4
REMARK    4  A    between atoms: C_4  and  C_6
REMARK    5  A    between atoms: N_8  and  C_27
REMARK    6  A    between atoms: N_15  and  C_18
REMARK    7  A    between atoms: C_23  and  N_24
REMARK                            x       y       z     vdW  Elec       q    Type
REMARK                         _______ _______ _______ _____ _____    ______ ____
ROOT
ATOM      1  C   UNL     1       1.486  -2.433  -2.441  0.00  0.00    +0.157 C 
ATOM      2  N   UNL     1       2.075  -1.693  -3.377  0.00  0.00    -0.176 NA
ATOM      3  N   UNL     1       2.551  -2.495  -4.452  0.00  0.00    -0.211 N 
ATOM      4  C   UNL     1       1.687  -3.663  -4.457  0.00  0.00    +0.203 C 
ATOM      5  C   UNL     1       1.564  -3.790  -2.892  0.00  0.00    +0.164 C 
ATOM      6  C   UNL     1       1.050  -5.124  -2.730  0.00  0.00    +0.238 C 
ATOM      7  O   UNL     1       0.302  -5.526  -1.864  0.00  0.00    -0.274 OA
ATOM      8  N   UNL     1       1.589  -5.844  -3.768  0.00  0.00    -0.206 N 
ATOM      9  C   UNL     1       2.206  -5.044  -4.712  0.00  0.00    +0.250 C 
ATOM     10  O   UNL     1       3.009  -5.380  -5.555  0.00  0.00    -0.273 OA
ENDROOT
BRANCH   3  11
ATOM     11  C   UNL     1       3.615  -2.219  -5.314  0.00  0.00    +0.052 A 
ATOM     12  C   UNL     1       3.723  -2.893  -6.524  0.00  0.00    +0.026 A 
ATOM     13  C   UNL     1       4.776  -2.618  -7.374  0.00  0.00    +0.017 A 
ATOM     14  C   UNL     1       5.723  -1.673  -7.022  0.00  0.00    +0.018 A 
ATOM     15  C   UNL     1       5.619  -1.000  -5.817  0.00  0.00    +0.017 A 
ATOM     16  C   UNL     1       4.565  -1.266  -4.965  0.00  0.00    +0.026 A 
ATOM     17 BR   UNL     1       7.164  -1.300  -8.188  0.00  0.00    -0.050 Br
ENDBRANCH   3  11
BRANCH   8  18
ATOM     18  C   UNL     1       1.506  -7.240  -3.873  0.00  0.00    +0.074 A 
ATOM     19  C   UNL     1       0.438  -7.825  -4.540  0.00  0.00    +0.026 A 
ATOM     20  C   UNL     1       0.359  -9.200  -4.642  0.00  0.00    +0.002 A 
ATOM     21  C   UNL     1       1.342  -9.994  -4.081  0.00  0.00    +0.002 A 
ATOM     22  C   UNL     1       2.407  -9.414  -3.416  0.00  0.00    +0.034 A 
ATOM     23  C   UNL     1       2.495  -8.039  -3.316  0.00  0.00    +0.148 A 
BRANCH  23  24
ATOM     24  N   UNL     1       3.638  -7.419  -2.610  0.00  0.00    +0.058 N 
ATOM     25  O   UNL     1       4.499  -8.116  -2.125  0.00  0.00    -0.126 OA
ATOM     26  O   UNL     1       3.712  -6.216  -2.519  0.00  0.00    -0.126 OA
ENDBRANCH  23  24
ENDBRANCH   8  18
BRANCH   1  27
ATOM     27  C   UNL     1       0.901  -1.970  -1.235  0.00  0.00    +0.356 C 
ATOM     28  O   UNL     1       0.397  -2.761  -0.460  0.00  0.00    -0.244 OA
BRANCH  27  29
ATOM     29  O   UNL     1       0.904  -0.652  -0.946  0.00  0.00    -0.461 OA
BRANCH  29  31
ATOM     30  C   UNL     1       0.396   1.263   0.438  0.00  0.00    +0.048 C 
ATOM     31  C   UNL     1       0.297  -0.256   0.286  0.00  0.00    +0.229 C 
ENDBRANCH  29  31
ENDBRANCH  27  29
ENDBRANCH   1  27
TORSDOF 6
