REMARK  Name = ZINC57641322
REMARK  10 active torsions:
REMARK  status: ('A' for Active; 'I' for Inactive)
REMARK    1  A    between atoms: C_1  and  C_2
REMARK    2  A    between atoms: C_2  and  C_3
REMARK    3  A    between atoms: C_3  and  C_5
REMARK    4  A    between atoms: C_3  and  N_16
REMARK    5  A    between atoms: N_9  and  C_10
REMARK    6  A    between atoms: N_16  and  C_17
REMARK    7  A    between atoms: N_16  and  C_25
REMARK    8  A    between atoms: C_17  and  C_18
REMARK    9  A    between atoms: C_21  and  C_24
REMARK   10  A    between atoms: C_25  and  C_26
REMARK                            x       y       z     vdW  Elec       q    Type
REMARK                         _______ _______ _______ _____ _____    ______ ____
ROOT
ATOM      1  N   UNL     1      -1.631  -0.855  -1.229  0.00  0.00    -0.284 NA
ENDROOT
BRANCH   1   2
ATOM      2  C   UNL     1      -0.961  -0.469   0.020  0.00  0.00    +0.127 C 
BRANCH   2   3
ATOM      3  C   UNL     1      -1.902   0.352   0.862  0.00  0.00    +0.169 A 
ATOM      4  N   UNL     1      -3.203   0.211   0.946  0.00  0.00    -0.112 NA
ATOM      5  N   UNL     1      -3.647   1.099   1.767  0.00  0.00    -0.023 NA
ATOM      6  N   UNL     1      -2.664   1.803   2.209  0.00  0.00    -0.044 NA
ATOM      7  N   UNL     1      -1.570   1.370   1.678  0.00  0.00    -0.225 N 
BRANCH   7   8
ATOM      8  C   UNL     1      -0.222   1.890   1.917  0.00  0.00    +0.111 C 
ATOM      9  C   UNL     1       0.189   1.599   3.361  0.00  0.00    +0.027 C 
ATOM     10  C   UNL     1       1.598   2.142   3.610  0.00  0.00    +0.002 C 
ATOM     11  C   UNL     1       1.611   3.653   3.370  0.00  0.00    +0.000 C 
ATOM     12  C   UNL     1       1.201   3.944   1.925  0.00  0.00    +0.002 C 
ATOM     13  C   UNL     1      -0.208   3.401   1.677  0.00  0.00    +0.027 C 
ENDBRANCH   7   8
ENDBRANCH   2   3
BRANCH   2  15
ATOM     14  C   UNL     1       0.475  -2.514  -0.025  0.00  0.00    +0.006 C 
ATOM     15  C   UNL     1      -0.554  -1.728   0.790  0.00  0.00    +0.023 C 
ENDBRANCH   2  15
ENDBRANCH   1   2
BRANCH   1  16
ATOM     16  C   UNL     1      -2.899  -1.544  -0.956  0.00  0.00    +0.120 C 
BRANCH  16  17
ATOM     17  C   UNL     1      -3.357  -2.265  -2.197  0.00  0.00    -0.033 A 
ATOM     18  C   UNL     1      -4.251  -1.659  -3.059  0.00  0.00    +0.005 A 
ATOM     19  C   UNL     1      -4.671  -2.320  -4.198  0.00  0.00    +0.003 A 
ATOM     20  C   UNL     1      -4.196  -3.589  -4.474  0.00  0.00    -0.050 A 
ATOM     21  C   UNL     1      -3.302  -4.195  -3.613  0.00  0.00    +0.003 A 
ATOM     22  C   UNL     1      -2.878  -3.532  -2.476  0.00  0.00    +0.005 A 
ATOM     23  C   UNL     1      -4.655  -4.311  -5.715  0.00  0.00    +0.044 C 
ENDBRANCH  16  17
ENDBRANCH   1  16
BRANCH   1  24
ATOM     24  C   UNL     1      -1.842   0.313  -2.095  0.00  0.00    +0.126 C 
BRANCH  24  25
ATOM     25  C   UNL     1      -0.543   0.686  -2.762  0.00  0.00    +0.031 A 
ATOM     26  C   UNL     1      -0.255   0.205  -3.998  0.00  0.00    +0.020 A 
ATOM     27  C   UNL     1       1.014   0.585  -4.618  0.00  0.00    +0.003 A 
ATOM     28  C   UNL     1       1.365   0.118  -5.891  0.00  0.00    +0.059 A 
ATOM     29  C   UNL     1       2.567   0.495  -6.451  0.00  0.00    +0.163 A 
ATOM     30  C   UNL     1       3.434   1.341  -5.753  0.00  0.00    +0.164 A 
ATOM     31  C   UNL     1       3.096   1.806  -4.494  0.00  0.00    +0.075 A 
ATOM     32  C   UNL     1       1.890   1.435  -3.915  0.00  0.00    +0.053 A 
ATOM     33  N   UNL     1       1.537   1.889  -2.660  0.00  0.00    -0.322 N 
ATOM     34  H   UNL     1       2.140   2.474  -2.176  0.00  0.00    +0.169 HD
ATOM     35  C   UNL     1       0.366   1.537  -2.102  0.00  0.00    +0.254 A 
ATOM     36  O   UNL     1       0.085   1.962  -0.994  0.00  0.00    -0.268 OA
ATOM     37  O   UNL     1       4.619   1.724  -6.302  0.00  0.00    -0.485 OA
ATOM     38  C   UNL     1       5.099   0.947  -7.404  0.00  0.00    +0.270 C 
ATOM     39  C   UNL     1       3.937   0.726  -8.381  0.00  0.00    +0.270 C 
ATOM     40  O   UNL     1       2.895   0.030  -7.688  0.00  0.00    -0.485 OA
ENDBRANCH  24  25
ENDBRANCH   1  24
TORSDOF 8
