REMARK  Name = ZINC08927768
REMARK  10 active torsions:
REMARK  status: ('A' for Active; 'I' for Inactive)
REMARK    1  A    between atoms: C_1  and  C_2
REMARK    2  A    between atoms: C_9  and  N_15
REMARK    3  A    between atoms: C_10  and  C_11
REMARK    4  A    between atoms: C_11  and  O_13
REMARK    5  A    between atoms: O_13  and  C_14
REMARK    6  A    between atoms: C_16  and  C_18
REMARK    7  A    between atoms: N_23  and  S_24
REMARK    8  A    between atoms: S_24  and  C_27
REMARK    9  A    between atoms: C_30  and  O_33
REMARK   10  A    between atoms: O_33  and  C_34
REMARK                            x       y       z     vdW  Elec       q    Type
REMARK                         _______ _______ _______ _____ _____    ______ ____
ROOT
ATOM      1  N   UNL     1       2.736  -2.862  -0.042  0.00  0.00    -0.278 N 
ATOM      2  C   UNL     1       3.593  -3.481  -0.878  0.00  0.00    +0.236 C 
ATOM      3  O   UNL     1       3.411  -4.640  -1.184  0.00  0.00    -0.274 OA
ATOM      4  H   UNL     1       2.882  -1.935   0.202  0.00  0.00    +0.155 HD
ENDROOT
BRANCH   1  12
ATOM      5  C   UNL     1      -3.346  -7.059   2.521  0.00  0.00    +0.008 C 
ATOM      6  C   UNL     1      -2.508  -5.885   2.011  0.00  0.00    -0.009 C 
ATOM      7  C   UNL     1      -2.155  -4.960   3.180  0.00  0.00    +0.008 C 
ATOM      8  C   UNL     1      -1.535  -3.666   2.651  0.00  0.00    +0.037 C 
ATOM      9  C   UNL     1      -0.385  -4.021   1.715  0.00  0.00    -0.021 A 
ATOM     10  C   UNL     1      -0.280  -5.256   1.179  0.00  0.00    -0.004 A 
ATOM     11  S   UNL     1       1.182  -5.194   0.183  0.00  0.00    -0.077 S 
ATOM     12  C   UNL     1       1.646  -3.550   0.468  0.00  0.00    +0.086 A 
ATOM     13  C   UNL     1       0.663  -3.089   1.334  0.00  0.00    +0.091 A 
ATOM     14  C   UNL     1      -1.207  -6.414   1.389  0.00  0.00    +0.046 C 
BRANCH  13  15
ATOM     15  C   UNL     1       0.678  -1.715   1.838  0.00  0.00    +0.342 C 
ATOM     16  O   UNL     1       1.260  -1.453   2.874  0.00  0.00    -0.245 OA
BRANCH  15  17
ATOM     17  O   UNL     1       0.047  -0.738   1.155  0.00  0.00    -0.464 OA
ATOM     18  C   UNL     1       0.103   0.601   1.714  0.00  0.00    +0.280 C 
ENDBRANCH  15  17
ENDBRANCH  13  15
ENDBRANCH   1  12
BRANCH   2  19
ATOM     19  C   UNL     1       4.778  -2.733  -1.433  0.00  0.00    +0.166 C 
ATOM     20  C   UNL     1       4.381  -2.017  -2.741  0.00  0.00    +0.031 C 
ATOM     21  C   UNL     1       5.645  -2.193  -3.628  0.00  0.00    +0.019 C 
ATOM     22  C   UNL     1       6.131  -3.602  -3.205  0.00  0.00    +0.110 C 
ATOM     23  N   UNL     1       5.857  -3.676  -1.758  0.00  0.00    -0.165 NA
BRANCH  23  24
ATOM     24  S   UNL     1       6.637  -4.661  -0.678  0.00  0.00    +0.062 S 
ATOM     25  O   UNL     1       5.809  -4.735   0.474  0.00  0.00    -0.153 OA
ATOM     26  O   UNL     1       7.042  -5.815  -1.401  0.00  0.00    -0.153 OA
BRANCH  24  27
ATOM     27  C   UNL     1       8.111  -3.831  -0.187  0.00  0.00    +0.106 A 
ATOM     28  C   UNL     1       9.257  -3.949  -0.951  0.00  0.00    +0.032 A 
ATOM     29  C   UNL     1      10.413  -3.295  -0.570  0.00  0.00    +0.047 A 
ATOM     30  C   UNL     1      10.426  -2.528   0.586  0.00  0.00    +0.120 A 
ATOM     31  C   UNL     1       9.276  -2.415   1.353  0.00  0.00    +0.047 A 
ATOM     32  C   UNL     1       8.121  -3.066   0.966  0.00  0.00    +0.032 A 
BRANCH  30  33
ATOM     33  O   UNL     1      11.563  -1.888   0.965  0.00  0.00    -0.495 OA
ATOM     34  C   UNL     1      12.709  -2.049   0.127  0.00  0.00    +0.277 C 
ENDBRANCH  30  33
ENDBRANCH  24  27
ENDBRANCH  23  24
ENDBRANCH   2  19
TORSDOF 7
