REMARK  Name = ZINC36644167
REMARK  13 active torsions:
REMARK  status: ('A' for Active; 'I' for Inactive)
REMARK    1  A    between atoms: C_1  and  C_2
REMARK    2  A    between atoms: C_2  and  N_3
REMARK    3  A    between atoms: N_3  and  C_4
REMARK    4  A    between atoms: N_3  and  C_6
REMARK    5  A    between atoms: C_4  and  C_5
REMARK    6  A    between atoms: C_6  and  C_7
REMARK    7  A    between atoms: C_7  and  C_9
REMARK    8  A    between atoms: C_7  and  C_10
REMARK    9  A    between atoms: C_10  and  N_11
REMARK   10  A    between atoms: C_12  and  C_14
REMARK   11  A    between atoms: C_23  and  S_26
REMARK   12  A    between atoms: S_26  and  N_29
REMARK   13  A    between atoms: C_33  and  C_36
REMARK                            x       y       z     vdW  Elec       q    Type
REMARK                         _______ _______ _______ _____ _____    ______ ____
ROOT
ATOM      1  C   UNL     1      -2.994  -5.002  -5.243  0.00  0.00    +0.051 A 
ATOM      2  C   UNL     1      -3.512  -6.265  -5.241  0.00  0.00    +0.083 A 
ATOM      3  C   UNL     1      -4.773  -6.526  -5.931  0.00  0.00    +0.250 A 
ATOM      4  O   UNL     1      -5.236  -7.653  -5.929  0.00  0.00    -0.268 OA
ATOM      5  N   UNL     1      -5.430  -5.541  -6.568  0.00  0.00    -0.322 N 
ATOM      6  H   UNL     1      -6.266  -5.741  -7.018  0.00  0.00    +0.169 HD
ATOM      7  C   UNL     1      -4.941  -4.253  -6.593  0.00  0.00    +0.050 A 
ATOM      8  C   UNL     1      -3.735  -3.940  -5.941  0.00  0.00    +0.012 A 
ATOM      9  C   UNL     1      -3.249  -2.630  -5.967  0.00  0.00    +0.039 A 
ATOM     10  C   UNL     1      -3.952  -1.657  -6.621  0.00  0.00    +0.106 A 
ATOM     11  C   UNL     1      -5.146  -1.960  -7.261  0.00  0.00    +0.030 A 
ATOM     12  C   UNL     1      -5.638  -3.247  -7.258  0.00  0.00    +0.028 A 
ENDROOT
BRANCH   1  14
ATOM     13  N   UNL     1      -0.989  -5.708  -4.020  0.00  0.00    -0.311 N 
ATOM     14  C   UNL     1      -1.716  -4.705  -4.551  0.00  0.00    +0.245 C 
ATOM     15  O   UNL     1      -1.325  -3.558  -4.463  0.00  0.00    -0.270 OA
ATOM     16  H   UNL     1      -1.261  -6.629  -4.155  0.00  0.00    +0.149 HD
BRANCH  13  17
ATOM     17  C   UNL     1       0.214  -5.407  -3.239  0.00  0.00    +0.106 C 
BRANCH  17  18
ATOM     18  C   UNL     1       0.848  -6.712  -2.755  0.00  0.00    -0.014 C 
ATOM     19  C   UNL     1       1.339  -7.518  -3.959  0.00  0.00    +0.007 C 
BRANCH  18  20
ATOM     20  C   UNL     1       2.030  -6.395  -1.837  0.00  0.00    -0.074 C 
BRANCH  20  21
ATOM     21  N   UNL     1       2.585  -7.646  -1.304  0.00  0.00    +0.380 N 
ATOM     22  H   UNL     1       2.816  -8.264  -2.067  0.00  0.00    -0.082 HD
BRANCH  21  24
ATOM     23  C   UNL     1       4.888  -6.828  -1.465  0.00  0.00    -0.017 C 
ATOM     24  C   UNL     1       3.798  -7.353  -0.528  0.00  0.00    -0.082 C 
ENDBRANCH  21  24
BRANCH  21  25
ATOM     25  C   UNL     1       1.592  -8.291  -0.435  0.00  0.00    -0.082 C 
ATOM     26  C   UNL     1       2.109  -9.665  -0.002  0.00  0.00    -0.017 C 
ENDBRANCH  21  25
ENDBRANCH  20  21
ENDBRANCH  18  20
ENDBRANCH  17  18
ENDBRANCH  13  17
ENDBRANCH   1  14
BRANCH  10  27
ATOM     27  S   UNL     1      -3.337  -0.006  -6.652  0.00  0.00    +0.061 S 
ATOM     28  O   UNL     1      -4.458   0.840  -6.870  0.00  0.00    -0.153 OA
ATOM     29  O   UNL     1      -2.487   0.132  -5.522  0.00  0.00    -0.153 OA
BRANCH  27  30
ATOM     30  N   UNL     1      -2.373   0.132  -7.991  0.00  0.00    -0.176 NA
ATOM     31  C   UNL     1      -0.937  -0.171  -7.913  0.00  0.00    +0.109 C 
ATOM     32  C   UNL     1      -0.590  -1.198  -8.996  0.00  0.00    +0.017 C 
ATOM     33  C   UNL     1      -1.049  -0.671 -10.358  0.00  0.00    +0.006 C 
ATOM     34  C   UNL     1      -2.567  -0.475 -10.346  0.00  0.00    +0.002 C 
ATOM     35  C   UNL     1      -2.937   0.554  -9.280  0.00  0.00    +0.112 C 
ATOM     36  C   UNL     1      -3.028   0.019 -11.719  0.00  0.00    +0.009 C 
ENDBRANCH  27  30
ENDBRANCH  10  27
TORSDOF 9
