REMARK  Name = ZINC37340329
REMARK  1 active torsions:
REMARK  status: ('A' for Active; 'I' for Inactive)
REMARK    1  A    between atoms: N_12  and  C_13
REMARK                            x       y       z     vdW  Elec       q    Type
REMARK                         _______ _______ _______ _____ _____    ______ ____
ROOT
ATOM      1  C   UNL     1       0.132   1.190  -0.388  0.00  0.00    +0.000 C 
ATOM      2  C   UNL     1       1.569   1.715  -0.389  0.00  0.00    -0.002 C 
ATOM      3  C   UNL     1       2.236   1.376   0.946  0.00  0.00    -0.015 C 
ATOM      4  C   UNL     1       2.248  -0.142   1.139  0.00  0.00    -0.064 C 
ATOM      5  C   UNL     1       0.810  -0.666   1.139  0.00  0.00    -0.025 C 
ATOM      6  C   UNL     1       0.143  -0.327  -0.195  0.00  0.00    +0.002 C 
ATOM      7  C   UNL     1       0.827  -2.186   1.329  0.00  0.00    +0.000 C 
ATOM      8  C   UNL     1       1.567  -2.520   2.627  0.00  0.00    -0.018 C 
ATOM      9  C   UNL     1       2.977  -1.927   2.572  0.00  0.00    -0.077 C 
ATOM     10  N   UNL     1       2.890  -0.470   2.417  0.00  0.00    +0.388 N 
ATOM     11  H   UNL     1       2.347  -0.082   3.174  0.00  0.00    -0.080 HD
ENDROOT
BRANCH  10  12
ATOM     12  C   UNL     1       4.242   0.103   2.445  0.00  0.00    -0.000 C 
ATOM     13  C   UNL     1       5.080  -0.464   1.280  0.00  0.00    -0.007 C 
ATOM     14  C   UNL     1       6.494  -0.633   1.891  0.00  0.00    +0.006 C 
ATOM     15  C   UNL     1       6.177  -1.092   3.336  0.00  0.00    +0.072 C 
ATOM     16  C   UNL     1       4.946  -0.293   3.727  0.00  0.00    +0.120 C 
ATOM     17  O   UNL     1       4.593  -0.024   4.850  0.00  0.00    -0.299 OA
ENDBRANCH  10  12
TORSDOF 1
