REMARK  Name = ZINC21627366
REMARK  9 active torsions:
REMARK  status: ('A' for Active; 'I' for Inactive)
REMARK    1  A    between atoms: C_1  and  C_2
REMARK    2  A    between atoms: C_2  and  C_3
REMARK    3  A    between atoms: C_3  and  C_5
REMARK    4  A    between atoms: C_3  and  N_12
REMARK    5  A    between atoms: C_13  and  C_15
REMARK    6  A    between atoms: C_15  and  N_16
REMARK    7  A    between atoms: C_19  and  C_23
REMARK    8  A    between atoms: C_19  and  C_24
REMARK    9  A    between atoms: C_27  and  C_30
REMARK                            x       y       z     vdW  Elec       q    Type
REMARK                         _______ _______ _______ _____ _____    ______ ____
ROOT
ATOM      1  N   UNL     1       2.952  -5.705  -2.890  0.00  0.00    -0.215 N 
ATOM      2  C   UNL     1       2.239  -5.958  -4.005  0.00  0.00    +0.251 C 
ATOM      3  O   UNL     1       1.765  -5.147  -4.772  0.00  0.00    -0.272 OA
ATOM      4  C   UNL     1       2.151  -7.468  -4.101  0.00  0.00    +0.135 C 
ATOM      5  N   UNL     1       2.894  -7.934  -2.918  0.00  0.00    -0.281 N 
ATOM      6  C   UNL     1       3.327  -6.833  -2.277  0.00  0.00    +0.310 C 
ATOM      7  O   UNL     1       3.983  -6.861  -1.254  0.00  0.00    -0.252 OA
ATOM      8  C   UNL     1       2.817  -7.966  -5.386  0.00  0.00    +0.047 C 
ATOM      9  H   UNL     1       2.996  -9.012  -2.721  0.00  0.00    +0.152 HD
ENDROOT
BRANCH   4  10
ATOM     10  C   UNL     1       0.715  -7.921  -4.037  0.00  0.00    -0.015 A 
ATOM     11  C   UNL     1      -0.289  -7.096  -4.513  0.00  0.00    +0.007 A 
ATOM     12  C   UNL     1      -1.605  -7.507  -4.462  0.00  0.00    +0.019 A 
ATOM     13  C   UNL     1      -1.924  -8.752  -3.918  0.00  0.00    +0.052 A 
ATOM     14  C   UNL     1      -0.906  -9.577  -3.435  0.00  0.00    +0.019 A 
ATOM     15  C   UNL     1       0.406  -9.157  -3.497  0.00  0.00    +0.007 A 
BRANCH  13  16
ATOM     16  C   UNL     1      -3.289  -9.182  -3.856  0.00  0.00    +0.099 C 
ATOM     17  N   UNL     1      -4.371  -9.523  -3.806  0.00  0.00    -0.191 NA
ENDBRANCH  13  16
ENDBRANCH   4  10
BRANCH   1  18
ATOM     18  C   UNL     1       3.281  -4.360  -2.412  0.00  0.00    +0.213 C 
BRANCH  18  20
ATOM     19  N   UNL     1       2.284  -2.656  -0.921  0.00  0.00    -0.307 N 
ATOM     20  C   UNL     1       2.194  -3.876  -1.486  0.00  0.00    +0.231 C 
ATOM     21  O   UNL     1       1.239  -4.585  -1.249  0.00  0.00    -0.274 OA
ATOM     22  H   UNL     1       3.150  -2.013  -1.135  0.00  0.00    +0.149 HD
BRANCH  19  23
ATOM     23  C   UNL     1       1.228  -2.186  -0.020  0.00  0.00    +0.103 C 
BRANCH  23  24
ATOM     24  C   UNL     1       1.208  -0.679  -0.013  0.00  0.00    -0.027 A 
ATOM     25  C   UNL     1       0.002  -0.004   0.002  0.00  0.00    +0.007 A 
ATOM     26  C   UNL     1      -0.017   1.378   0.010  0.00  0.00    +0.020 A 
ATOM     27  C   UNL     1       1.172   2.086   0.002  0.00  0.00    +0.041 A 
ATOM     28  C   UNL     1       2.379   1.409  -0.013  0.00  0.00    +0.020 A 
ATOM     29  C   UNL     1       2.397   0.027  -0.021  0.00  0.00    +0.007 A 
ATOM     30 CL   UNL     1       1.149   3.821   0.011  0.00  0.00    -0.084 Cl
ENDBRANCH  23  24
BRANCH  23  32
ATOM     31  C   UNL     1       1.395  -4.226   1.412  0.00  0.00    +0.006 C 
ATOM     32  C   UNL     1       1.498  -2.700   1.395  0.00  0.00    +0.024 C 
ENDBRANCH  23  32
ENDBRANCH  19  23
ENDBRANCH  18  20
ENDBRANCH   1  18
TORSDOF 7
