REMARK  Name = ZINC36627944
REMARK  10 active torsions:
REMARK  status: ('A' for Active; 'I' for Inactive)
REMARK    1  A    between atoms: C_1  and  C_2
REMARK    2  A    between atoms: C_2  and  O_3
REMARK    3  A    between atoms: O_3  and  C_4
REMARK    4  A    between atoms: C_7  and  N_10
REMARK    5  A    between atoms: N_10  and  C_11
REMARK    6  A    between atoms: C_12  and  C_33
REMARK    7  A    between atoms: C_14  and  C_16
REMARK    8  A    between atoms: C_19  and  S_22
REMARK    9  A    between atoms: S_22  and  N_25
REMARK   10  A    between atoms: C_29  and  C_32
REMARK                            x       y       z     vdW  Elec       q    Type
REMARK                         _______ _______ _______ _____ _____    ______ ____
ROOT
ATOM      1  C   UNL     1       1.872  -6.479   2.794  0.00  0.00    +0.229 A 
ATOM      2  C   UNL     1       2.159  -7.818   3.015  0.00  0.00    +0.201 A 
ATOM      3  N   UNL     1       2.908  -7.880   4.147  0.00  0.00    -0.196 NA
ATOM      4  C   UNL     1       3.078  -6.667   4.603  0.00  0.00    +0.231 A 
ATOM      5  O   UNL     1       2.458  -5.789   3.790  0.00  0.00    -0.420 OA
ENDROOT
BRANCH   4   6
ATOM      6  C   UNL     1       3.837  -6.312   5.819  0.00  0.00    +0.037 A 
ATOM      7  C   UNL     1       3.946  -4.977   6.213  0.00  0.00    +0.015 A 
ATOM      8  C   UNL     1       4.657  -4.652   7.351  0.00  0.00    +0.029 A 
ATOM      9  C   UNL     1       5.260  -5.646   8.100  0.00  0.00    +0.106 A 
ATOM     10  C   UNL     1       5.156  -6.971   7.715  0.00  0.00    +0.029 A 
ATOM     11  C   UNL     1       4.444  -7.310   6.583  0.00  0.00    +0.015 A 
BRANCH   9  12
ATOM     12  S   UNL     1       6.166  -5.223   9.551  0.00  0.00    +0.061 S 
ATOM     13  O   UNL     1       7.093  -6.278   9.773  0.00  0.00    -0.153 OA
ATOM     14  O   UNL     1       6.575  -3.871   9.395  0.00  0.00    -0.153 OA
BRANCH  12  15
ATOM     15  N   UNL     1       5.102  -5.253  10.819  0.00  0.00    -0.176 NA
ATOM     16  C   UNL     1       4.353  -4.046  11.196  0.00  0.00    +0.109 C 
ATOM     17  C   UNL     1       2.859  -4.383  11.229  0.00  0.00    +0.017 C 
ATOM     18  C   UNL     1       2.631  -5.580  12.155  0.00  0.00    +0.006 C 
ATOM     19  C   UNL     1       3.388  -6.795  11.617  0.00  0.00    +0.002 C 
ATOM     20  C   UNL     1       4.884  -6.488  11.585  0.00  0.00    +0.112 C 
ATOM     21  C   UNL     1       3.132  -8.000  12.525  0.00  0.00    +0.009 C 
ENDBRANCH  12  15
ENDBRANCH   9  12
ENDBRANCH   4   6
BRANCH   1  22
ATOM     22  N   UNL     1       1.135  -5.956   1.754  0.00  0.00    -0.283 N 
ATOM     23  H   UNL     1       0.683  -6.549   1.133  0.00  0.00    +0.155 HD
BRANCH  22  27
ATOM     24  C   UNL     1       0.849  -1.825   1.272  0.00  0.00    +0.121 A 
ATOM     25  C   UNL     1       1.945  -2.373   1.923  0.00  0.00    +0.047 A 
ATOM     26  C   UNL     1       2.040  -3.741   2.083  0.00  0.00    +0.027 A 
ATOM     27  C   UNL     1       1.039  -4.569   1.592  0.00  0.00    +0.034 A 
ATOM     28  C   UNL     1      -0.058  -4.020   0.940  0.00  0.00    +0.027 A 
ATOM     29  C   UNL     1      -0.154  -2.651   0.786  0.00  0.00    +0.047 A 
BRANCH  24  30
ATOM     30  O   UNL     1       0.756  -0.478   1.115  0.00  0.00    -0.492 OA
BRANCH  30  32
ATOM     31  C   UNL     1       1.545   1.792   1.370  0.00  0.00    +0.048 C 
ATOM     32  C   UNL     1       1.825   0.312   1.640  0.00  0.00    +0.225 C 
ENDBRANCH  30  32
ENDBRANCH  24  30
ENDBRANCH  22  27
ENDBRANCH   1  22
BRANCH   2  33
ATOM     33  C   UNL     1       1.744  -8.924   2.204  0.00  0.00    +0.124 C 
ATOM     34  N   UNL     1       1.415  -9.801   1.562  0.00  0.00    -0.189 NA
ENDBRANCH   2  33
TORSDOF 8
