REMARK  Name = ZINC35209403
REMARK  11 active torsions:
REMARK  status: ('A' for Active; 'I' for Inactive)
REMARK    1  A    between atoms: C_1  and  C_2
REMARK    2  A    between atoms: C_7  and  N_8
REMARK    3  A    between atoms: C_9  and  C_21
REMARK    4  A    between atoms: C_12  and  S_13
REMARK    5  A    between atoms: S_13  and  C_14
REMARK    6  A    between atoms: C_14  and  C_15
REMARK    7  A    between atoms: C_21  and  C_23
REMARK    8  A    between atoms: C_21  and  N_24
REMARK    9  A    between atoms: N_24  and  S_25
REMARK   10  A    between atoms: S_25  and  C_28
REMARK   11  A    between atoms: C_29  and  C_30
REMARK                            x       y       z     vdW  Elec       q    Type
REMARK                         _______ _______ _______ _____ _____    ______ ____
ROOT
ATOM      1  N   UNL     1       0.026  -0.012   2.419  0.00  0.00    -0.273 N 
ATOM      2  C   UNL     1      -1.064   0.378   3.152  0.00  0.00    +0.157 A 
ATOM      3  N   UNL     1      -0.619   0.991   4.212  0.00  0.00    -0.131 NA
ATOM      4  N   UNL     1       0.666   1.016   4.202  0.00  0.00    -0.122 NA
ATOM      5  C   UNL     1       1.117   0.411   3.128  0.00  0.00    +0.196 A 
ENDROOT
BRANCH   1  12
ATOM      6  C   UNL     1      -0.018   1.503   0.010  0.00  0.00    +0.046 C 
ATOM      7  C   UNL     1       0.002  -0.004   0.002  0.00  0.00    -0.026 A 
ATOM      8  C   UNL     1       0.006  -0.689  -1.198  0.00  0.00    +0.007 A 
ATOM      9  C   UNL     1       0.024  -2.071  -1.207  0.00  0.00    +0.020 A 
ATOM     10  C   UNL     1       0.039  -2.773  -0.014  0.00  0.00    +0.043 A 
ATOM     11  C   UNL     1       0.035  -2.093   1.189  0.00  0.00    +0.046 A 
ATOM     12  C   UNL     1       0.023  -0.705   1.200  0.00  0.00    +0.055 A 
ATOM     13 CL   UNL     1       0.060  -4.509  -0.030  0.00  0.00    -0.083 Cl
ENDBRANCH   1  12
BRANCH   2  14
ATOM     14  C   UNL     1      -2.510   0.142   2.798  0.00  0.00    +0.141 C 
ATOM     15  C   UNL     1      -3.075  -0.974   3.678  0.00  0.00    +0.034 C 
BRANCH  14  16
ATOM     16  N   UNL     1      -3.274   1.372   3.019  0.00  0.00    -0.180 NA
ATOM     17  H   UNL     1      -3.042   1.962   3.754  0.00  0.00    +0.149 HD
BRANCH  16  18
ATOM     18  S   UNL     1      -4.532   1.757   2.014  0.00  0.00    +0.052 S 
ATOM     19  O   UNL     1      -5.080   2.976   2.498  0.00  0.00    -0.154 OA
ATOM     20  O   UNL     1      -4.050   1.613   0.686  0.00  0.00    -0.154 OA
BRANCH  18  21
ATOM     21  C   UNL     1      -5.772   0.524   2.236  0.00  0.00    +0.153 C 
ATOM     22  C   UNL     1      -6.949   0.853   2.750  0.00  0.00    +0.028 C 
BRANCH  22  23
ATOM     23  C   UNL     1      -7.988  -0.181   2.936  0.00  0.00    -0.024 A 
ATOM     24  C   UNL     1      -7.732  -1.505   2.578  0.00  0.00    +0.008 A 
ATOM     25  C   UNL     1      -8.707  -2.466   2.754  0.00  0.00    +0.001 A 
ATOM     26  C   UNL     1      -9.936  -2.119   3.285  0.00  0.00    +0.000 A 
ATOM     27  C   UNL     1     -10.197  -0.808   3.642  0.00  0.00    +0.001 A 
ATOM     28  C   UNL     1      -9.228   0.161   3.477  0.00  0.00    +0.008 A 
ENDBRANCH  22  23
ENDBRANCH  18  21
ENDBRANCH  16  18
ENDBRANCH  14  16
ENDBRANCH   2  14
BRANCH   5  29
ATOM     29  S   UNL     1       2.807   0.188   2.681  0.00  0.00    -0.081 S 
BRANCH  29  30
ATOM     30  C   UNL     1       3.725   0.973   4.034  0.00  0.00    +0.112 C 
BRANCH  30  31
ATOM     31  C   UNL     1       5.205   0.852   3.773  0.00  0.00    -0.037 A 
ATOM     32  C   UNL     1       5.901  -0.247   4.240  0.00  0.00    +0.004 A 
ATOM     33  C   UNL     1       7.258  -0.358   4.001  0.00  0.00    +0.000 A 
ATOM     34  C   UNL     1       7.919   0.630   3.295  0.00  0.00    +0.000 A 
ATOM     35  C   UNL     1       7.222   1.728   2.827  0.00  0.00    +0.000 A 
ATOM     36  C   UNL     1       5.864   1.837   3.062  0.00  0.00    +0.004 A 
ENDBRANCH  30  31
ENDBRANCH  29  30
ENDBRANCH   5  29
TORSDOF 9
