REMARK  Name = ZINC39325005
REMARK  8 active torsions:
REMARK  status: ('A' for Active; 'I' for Inactive)
REMARK    1  A    between atoms: C_1  and  O_2
REMARK    2  A    between atoms: O_2  and  C_3
REMARK    3  A    between atoms: C_6  and  S_9
REMARK    4  A    between atoms: S_9  and  N_12
REMARK    5  A    between atoms: N_12  and  C_13
REMARK    6  A    between atoms: N_12  and  C_19
REMARK    7  A    between atoms: C_13  and  C_14
REMARK    8  A    between atoms: C_19  and  C_20
REMARK                            x       y       z     vdW  Elec       q    Type
REMARK                         _______ _______ _______ _____ _____    ______ ____
ROOT
ATOM      1  N   UNL     1       4.037  -2.500  -4.185  0.00  0.00    -0.171 NA
ENDROOT
BRANCH   1   2
ATOM      2  S   UNL     1       2.459  -2.107  -4.501  0.00  0.00    +0.061 S 
ATOM      3  O   UNL     1       1.773  -3.330  -4.729  0.00  0.00    -0.153 OA
ATOM      4  O   UNL     1       2.487  -1.059  -5.461  0.00  0.00    -0.153 OA
BRANCH   2   8
ATOM      5  C   UNL     1       0.732  -0.341  -0.706  0.00  0.00    +0.120 A 
ATOM      6  C   UNL     1       1.273   0.491  -1.676  0.00  0.00    +0.047 A 
ATOM      7  C   UNL     1       1.800  -0.050  -2.833  0.00  0.00    +0.032 A 
ATOM      8  C   UNL     1       1.788  -1.420  -3.025  0.00  0.00    +0.106 A 
ATOM      9  C   UNL     1       1.249  -2.250  -2.060  0.00  0.00    +0.032 A 
ATOM     10  C   UNL     1       0.727  -1.714  -0.898  0.00  0.00    +0.047 A 
BRANCH   5  12
ATOM     11  C   UNL     1       0.254   1.612   0.563  0.00  0.00    +0.277 C 
ATOM     12  O   UNL     1       0.214   0.190   0.433  0.00  0.00    -0.495 OA
ENDBRANCH   5  12
ENDBRANCH   2   8
ENDBRANCH   1   2
BRANCH   1  13
ATOM     13  C   UNL     1       4.360  -3.785  -3.560  0.00  0.00    +0.151 C 
BRANCH  13  14
ATOM     14  C   UNL     1       4.699  -4.792  -4.628  0.00  0.00    +0.005 A 
ATOM     15  C   UNL     1       5.905  -5.085  -5.174  0.00  0.00    +0.012 A 
ATOM     16  C   UNL     1       5.980  -6.059  -6.152  0.00  0.00    +0.008 A 
ATOM     17  C   UNL     1       4.845  -6.692  -6.537  0.00  0.00    +0.045 A 
ATOM     18  S   UNL     1       3.618  -5.916  -5.498  0.00  0.00    -0.100 S 
ENDBRANCH  13  14
ENDBRANCH   1  13
BRANCH   1  19
ATOM     19  C   UNL     1       5.109  -1.563  -4.530  0.00  0.00    +0.126 C 
BRANCH  19  20
ATOM     20  C   UNL     1       5.855  -1.152  -3.260  0.00  0.00    +0.114 C 
ATOM     21  C   UNL     1       6.982  -0.222  -3.663  0.00  0.00    -0.003 C 
ATOM     22  C   UNL     1       6.996   1.020  -3.109  0.00  0.00    -0.003 A 
ATOM     23  C   UNL     1       8.051   1.978  -3.446  0.00  0.00    +0.059 A 
ATOM     24  C   UNL     1       8.037   3.210  -2.873  0.00  0.00    +0.167 A 
ATOM     25  C   UNL     1       7.025   3.581  -1.962  0.00  0.00    +0.168 A 
ATOM     26  C   UNL     1       6.010   2.716  -1.612  0.00  0.00    +0.073 A 
ATOM     27  C   UNL     1       5.948   1.426  -2.155  0.00  0.00    +0.044 A 
ATOM     28  N   UNL     1       4.957   0.603  -1.802  0.00  0.00    -0.284 N 
ATOM     29  C   UNL     1       4.838  -0.624  -2.274  0.00  0.00    +0.225 C 
ATOM     30  O   UNL     1       3.912  -1.328  -1.916  0.00  0.00    -0.275 OA
ATOM     31  O   UNL     1       7.268   4.861  -1.555  0.00  0.00    -0.453 OA
ATOM     32  C   UNL     1       8.642   5.121  -1.889  0.00  0.00    +0.466 C 
ATOM     33  O   UNL     1       8.894   4.266  -3.018  0.00  0.00    -0.453 OA
ATOM     34  H   UNL     1       4.293   0.923  -1.171  0.00  0.00    +0.155 HD
ENDBRANCH  19  20
ENDBRANCH   1  19
TORSDOF 7
