REMARK  Name = ZINC02927487
REMARK  8 active torsions:
REMARK  status: ('A' for Active; 'I' for Inactive)
REMARK    1  A    between atoms: C_1  and  C_2
REMARK    2  A    between atoms: N_6  and  C_26
REMARK    3  A    between atoms: C_7  and  S_13
REMARK    4  A    between atoms: S_13  and  C_14
REMARK    5  A    between atoms: C_14  and  C_15
REMARK    6  A    between atoms: N_17  and  C_18
REMARK    7  A    between atoms: C_18  and  C_19
REMARK    8  A    between atoms: C_19  and  C_20
REMARK                            x       y       z     vdW  Elec       q    Type
REMARK                         _______ _______ _______ _____ _____    ______ ____
ROOT
ATOM      1  C   UNL     1      -0.013   1.086   0.008  0.00  0.00    +0.068 C 
ATOM      2  C   UNL     1      -0.718   1.572   1.248  0.00  0.00    +0.072 A 
ATOM      3  C   UNL     1      -2.095   1.832   1.363  0.00  0.00    +0.082 A 
ATOM      4  C   UNL     1      -3.238   1.732   0.446  0.00  0.00    +0.124 A 
ATOM      5  N   UNL     1      -3.086   1.334  -0.793  0.00  0.00    -0.384 N 
ATOM      6  N   UNL     1      -4.484   2.080   0.943  0.00  0.00    -0.273 N 
ATOM      7  C   UNL     1      -4.604   2.490   2.243  0.00  0.00    +0.177 A 
ATOM      8  N   UNL     1      -3.579   2.573   3.057  0.00  0.00    -0.204 NA
ATOM      9  C   UNL     1      -2.332   2.259   2.676  0.00  0.00    +0.162 A 
ATOM     10  N   UNL     1      -1.127   2.258   3.308  0.00  0.00    -0.260 N 
ATOM     11  H   UNL     1      -1.058   2.565   4.362  0.00  0.00    +0.191 HD
ATOM     12  N   UNL     1      -0.154   1.828   2.397  0.00  0.00    -0.177 NA
ATOM     13  H   UNL     1      -3.958   1.266  -1.461  0.00  0.00    +0.157 HD
ATOM     14  H   UNL     1      -2.086   1.067  -1.166  0.00  0.00    +0.157 HD
ENDROOT
BRANCH   6  15
ATOM     15  C   UNL     1      -5.616   2.012   0.119  0.00  0.00    +0.069 A 
ATOM     16  C   UNL     1      -5.999   3.118  -0.628  0.00  0.00    +0.028 A 
ATOM     17  C   UNL     1      -7.112   3.046  -1.443  0.00  0.00    +0.002 A 
ATOM     18  C   UNL     1      -7.850   1.879  -1.508  0.00  0.00    +0.002 A 
ATOM     19  C   UNL     1      -7.475   0.777  -0.761  0.00  0.00    +0.022 A 
ATOM     20  C   UNL     1      -6.359   0.841   0.053  0.00  0.00    +0.065 A 
ATOM     21 CL   UNL     1      -5.889  -0.542   0.991  0.00  0.00    -0.081 Cl
ENDBRANCH   6  15
BRANCH   7  22
ATOM     22  S   UNL     1      -6.200   2.926   2.848  0.00  0.00    -0.078 S 
BRANCH  22  23
ATOM     23  C   UNL     1      -5.780   3.372   4.551  0.00  0.00    +0.173 C 
BRANCH  23  24
ATOM     24  C   UNL     1      -7.029   3.791   5.283  0.00  0.00    +0.223 C 
ATOM     25  O   UNL     1      -8.098   3.788   4.710  0.00  0.00    -0.275 OA
ATOM     26  N   UNL     1      -6.958   4.169   6.575  0.00  0.00    -0.314 N 
ATOM     27  H   UNL     1      -5.989   4.171   7.095  0.00  0.00    +0.149 HD
BRANCH  26  28
ATOM     28  C   UNL     1      -8.172   4.576   7.287  0.00  0.00    +0.108 C 
BRANCH  28  29
ATOM     29  C   UNL     1      -7.817   4.953   8.726  0.00  0.00    +0.049 C 
BRANCH  29  30
ATOM     30  C   UNL     1      -9.066   5.372   9.459  0.00  0.00    -0.072 C 
ATOM     31  C   UNL     1      -9.686   4.479  10.161  0.00  0.00    -0.028 C 
ATOM     32  C   UNL     1     -10.944   4.743  10.935  0.00  0.00    +0.027 C 
ATOM     33  C   UNL     1     -11.140   6.248  11.126  0.00  0.00    +0.004 C 
ATOM     34  C   UNL     1     -10.973   6.936   9.764  0.00  0.00    +0.005 C 
ATOM     35  C   UNL     1      -9.509   6.800   9.334  0.00  0.00    +0.030 C 
ENDBRANCH  29  30
ENDBRANCH  28  29
ENDBRANCH  26  28
ENDBRANCH  23  24
ENDBRANCH  22  23
ENDBRANCH   7  22
TORSDOF 7
