REMARK  Name = ZINC09251912
REMARK  12 active torsions:
REMARK  status: ('A' for Active; 'I' for Inactive)
REMARK    1  A    between atoms: C_1  and  C_2
REMARK    2  A    between atoms: C_2  and  C_3
REMARK    3  A    between atoms: C_3  and  C_5
REMARK    4  A    between atoms: C_3  and  N_68
REMARK    5  A    between atoms: C_6  and  C_7
REMARK    6  A    between atoms: C_6  and  N_68
REMARK    7  A    between atoms: C_7  and  N_8
REMARK    8  A    between atoms: C_9  and  C_11
REMARK    9  A    between atoms: C_12  and  N_22
REMARK   10  A    between atoms: C_14  and  C_21
REMARK   11  A    between atoms: C_16  and  C_20
REMARK   12  A    between atoms: C_27  and  N_68
REMARK                            x       y       z     vdW  Elec       q    Type
REMARK                         _______ _______ _______ _____ _____    ______ ____
ROOT
ATOM      1  N   UNL     1       7.886   0.598   0.171  0.00  0.00    -0.313 N 
ATOM      2  C   UNL     1       7.290   1.595  -0.513  0.00  0.00    +0.253 C 
ATOM      3  O   UNL     1       7.700   2.736  -0.405  0.00  0.00    -0.270 OA
ATOM      4  H   UNL     1       7.560  -0.312   0.084  0.00  0.00    +0.149 HD
ENDROOT
BRANCH   2   5
ATOM      5  C   UNL     1       6.151   1.305  -1.386  0.00  0.00    +0.100 A 
ATOM      6  C   UNL     1       5.422   2.182  -2.155  0.00  0.00    +0.075 A 
ATOM      7  C   UNL     1       4.324   1.657  -2.949  0.00  0.00    +0.035 A 
ATOM      8  C   UNL     1       3.440   2.355  -3.810  0.00  0.00    -0.037 A 
ATOM      9  C   UNL     1       2.467   1.659  -4.468  0.00  0.00    +0.027 A 
ATOM     10  C   UNL     1       2.343   0.288  -4.298  0.00  0.00    +0.040 A 
ATOM     11  N   UNL     1       3.164  -0.363  -3.497  0.00  0.00    -0.245 NA
ATOM     12  C   UNL     1       4.118   0.263  -2.841  0.00  0.00    +0.111 A 
ATOM     13  S   UNL     1       5.378  -0.267  -1.707  0.00  0.00    -0.062 S 
ATOM     14  C   UNL     1       1.263  -0.462  -5.033  0.00  0.00    +0.065 C 
ATOM     15  C   UNL     1       3.573   3.844  -3.996  0.00  0.00    +0.044 C 
BRANCH   6  16
ATOM     16  N   UNL     1       5.730   3.543  -2.173  0.00  0.00    -0.321 N 
ATOM     17  C   UNL     1       6.797   4.111  -2.811  0.00  0.00    +0.091 A 
ATOM     18  C   UNL     1       6.755   5.442  -2.600  0.00  0.00    +0.019 A 
ATOM     19  C   UNL     1       5.626   5.707  -1.798  0.00  0.00    +0.019 A 
ATOM     20  C   UNL     1       5.018   4.530  -1.551  0.00  0.00    +0.091 A 
ENDBRANCH   6  16
ENDBRANCH   2   5
BRANCH   1  21
ATOM     21  C   UNL     1       9.026   0.887   1.044  0.00  0.00    +0.086 C 
BRANCH  21  22
ATOM     22  C   UNL     1       9.511  -0.409   1.697  0.00  0.00    -0.059 C 
BRANCH  22  23
ATOM     23  N   UNL     1      10.761  -0.133   2.434  0.00  0.00    +0.384 N 
ATOM     24  H   UNL     1      11.413   0.360   1.812  0.00  0.00    -0.081 HD
BRANCH  23  25
ATOM     25  C   UNL     1      11.381  -1.401   2.871  0.00  0.00    -0.068 C 
ATOM     26  C   UNL     1      12.770  -1.102   3.438  0.00  0.00    -0.015 C 
ATOM     27  C   UNL     1      13.435  -2.409   3.875  0.00  0.00    -0.002 C 
ATOM     28  C   UNL     1      13.566  -3.343   2.670  0.00  0.00    -0.000 C 
ATOM     29  C   UNL     1      12.177  -3.642   2.103  0.00  0.00    -0.002 C 
ATOM     30  C   UNL     1      11.513  -2.335   1.666  0.00  0.00    -0.015 C 
ENDBRANCH  23  25
BRANCH  23  31
ATOM     31  C   UNL     1      10.479   0.722   3.606  0.00  0.00    -0.072 C 
ATOM     32  C   UNL     1       9.049   0.493   4.099  0.00  0.00    -0.013 C 
BRANCH  31  34
ATOM     33  C   UNL     1      12.112   2.449   2.837  0.00  0.00    +0.002 C 
ATOM     34  C   UNL     1      10.648   2.185   3.194  0.00  0.00    -0.019 C 
ENDBRANCH  31  34
ENDBRANCH  23  31
ENDBRANCH  22  23
ENDBRANCH  21  22
ENDBRANCH   1  21
TORSDOF 8
