REMARK  Name = ZINC32980991
REMARK  8 active torsions:
REMARK  status: ('A' for Active; 'I' for Inactive)
REMARK    1  A    between atoms: C_1  and  C_2
REMARK    2  A    between atoms: C_5  and  O_9
REMARK    3  A    between atoms: C_6  and  C_8
REMARK    4  A    between atoms: O_9  and  C_10
REMARK    5  A    between atoms: C_10  and  C_11
REMARK    6  A    between atoms: C_11  and  N_12
REMARK    7  A    between atoms: C_16  and  C_17
REMARK    8  A    between atoms: C_32  and  C_35
REMARK                            x       y       z     vdW  Elec       q    Type
REMARK                         _______ _______ _______ _____ _____    ______ ____
ROOT
ATOM      1  C   UNL     1       2.825  -6.745  -2.689  0.00  0.00    +0.042 C 
ATOM      2  C   UNL     1       3.009  -6.181  -1.438  0.00  0.00    +0.082 C 
ATOM      3  C   UNL     1       1.902  -6.091  -0.448  0.00  0.00    +0.153 C 
ATOM      4  N   UNL     1       0.954  -6.987  -0.348  0.00  0.00    -0.283 NA
ATOM      5  N   UNL     1       1.975  -4.947   0.372  0.00  0.00    -0.150 N 
ATOM      6  C   UNL     1       3.209  -4.358   0.533  0.00  0.00    +0.182 C 
ATOM      7  N   UNL     1       4.329  -4.676  -0.066  0.00  0.00    -0.152 NA
ATOM      8  C   UNL     1       4.321  -5.640  -1.011  0.00  0.00    +0.273 C 
ATOM      9  O   UNL     1       5.360  -6.052  -1.502  0.00  0.00    -0.268 OA
ATOM     10  S   UNL     1       2.864  -3.083   1.716  0.00  0.00    -0.018 S 
ATOM     11  C   UNL     1       1.101  -3.348   1.842  0.00  0.00    +0.182 C 
ATOM     12  N   UNL     1       0.917  -4.368   1.041  0.00  0.00    -0.149 NA
ATOM     13  N   UNL     1       0.168  -2.653   2.593  0.00  0.00    -0.308 N 
ATOM     14  C   UNL     1      -1.230  -3.103   2.654  0.00  0.00    +0.107 C 
ATOM     15  C   UNL     1      -2.141  -1.934   2.269  0.00  0.00    +0.022 C 
ATOM     16  C   UNL     1      -1.828  -0.732   3.164  0.00  0.00    -0.011 C 
ATOM     17  C   UNL     1      -0.375  -0.301   2.953  0.00  0.00    +0.022 C 
ATOM     18  C   UNL     1       0.558  -1.456   3.350  0.00  0.00    +0.107 C 
ATOM     19  C   UNL     1      -2.761   0.427   2.806  0.00  0.00    +0.007 C 
ATOM     20  H   UNL     1       0.215  -6.846   0.265  0.00  0.00    +0.188 HD
ENDROOT
BRANCH   1  25
ATOM     21  N   UNL     1       0.416  -6.330  -3.144  0.00  0.00    -0.344 N 
ATOM     22  C   UNL     1      -0.626  -7.065  -3.605  0.00  0.00    +0.086 A 
ATOM     23  C   UNL     1      -0.198  -8.328  -3.857  0.00  0.00    +0.020 A 
ATOM     24  C   UNL     1       1.160  -8.393  -3.545  0.00  0.00    +0.027 A 
ATOM     25  C   UNL     1       1.536  -7.132  -3.104  0.00  0.00    +0.043 A 
BRANCH  21  26
ATOM     26  C   UNL     1       0.362  -4.917  -2.759  0.00  0.00    +0.162 C 
BRANCH  26  27
ATOM     27  C   UNL     1       0.900  -4.056  -3.904  0.00  0.00    +0.250 C 
BRANCH  27  28
ATOM     28  O   UNL     1       0.954  -2.690  -3.487  0.00  0.00    -0.490 OA
BRANCH  28  33
ATOM     29  C   UNL     1       3.237   0.992  -7.086  0.00  0.00    +0.044 C 
ATOM     30  C   UNL     1       2.627   0.007  -6.123  0.00  0.00    -0.050 A 
ATOM     31  C   UNL     1       2.440  -1.308  -6.507  0.00  0.00    +0.007 A 
ATOM     32  C   UNL     1       1.880  -2.213  -5.626  0.00  0.00    +0.046 A 
ATOM     33  C   UNL     1       1.506  -1.802  -4.355  0.00  0.00    +0.123 A 
ATOM     34  C   UNL     1       1.695  -0.482  -3.972  0.00  0.00    -0.009 A 
ATOM     35  C   UNL     1       2.260   0.418  -4.855  0.00  0.00    +0.010 A 
ATOM     36  C   UNL     1       1.290  -0.032  -2.592  0.00  0.00    +0.047 C 
ENDBRANCH  28  33
ENDBRANCH  27  28
ENDBRANCH  26  27
ENDBRANCH  21  26
ENDBRANCH   1  25
TORSDOF 5
