REMARK  Name = ZINC45872952
REMARK  12 active torsions:
REMARK  status: ('A' for Active; 'I' for Inactive)
REMARK    1  A    between atoms: C_1  and  C_2
REMARK    2  A    between atoms: C_2  and  C_3
REMARK    3  A    between atoms: C_2  and  C_4
REMARK    4  A    between atoms: C_2  and  C_10
REMARK    5  A    between atoms: C_13  and  O_16
REMARK    6  A    between atoms: O_16  and  C_17
REMARK    7  A    between atoms: C_17  and  C_18
REMARK    8  A    between atoms: C_18  and  C_20
REMARK    9  A    between atoms: C_18  and  O_35
REMARK   10  A    between atoms: C_20  and  N_21
REMARK   11  A    between atoms: N_27  and  C_34
REMARK   12  A    between atoms: N_30  and  C_33
REMARK                            x       y       z     vdW  Elec       q    Type
REMARK                         _______ _______ _______ _____ _____    ______ ____
ROOT
ATOM      1  C   UNL     1       4.642  -2.074  -6.010  0.00  0.00    +0.172 C 
ENDROOT
BRANCH   1   2
ATOM      2  O   UNL     1       4.580  -3.501  -5.970  0.00  0.00    -0.387 OA
ATOM      3  H   UNL     1       5.086  -3.896  -5.248  0.00  0.00    +0.210 HD
ENDBRANCH   1   2
BRANCH   1   4
ATOM      4  C   UNL     1       4.087  -1.502  -4.704  0.00  0.00    +0.262 C 
BRANCH   4   5
ATOM      5  O   UNL     1       2.697  -1.817  -4.600  0.00  0.00    -0.489 OA
BRANCH   5   9
ATOM      6  C   UNL     1       0.723  -0.489  -1.229  0.00  0.00    -0.037 A 
ATOM      7  C   UNL     1       0.037  -1.204  -2.194  0.00  0.00    +0.008 A 
ATOM      8  C   UNL     1       0.696  -1.649  -3.324  0.00  0.00    +0.046 A 
ATOM      9  C   UNL     1       2.046  -1.379  -3.490  0.00  0.00    +0.121 A 
ATOM     10  C   UNL     1       2.732  -0.661  -2.521  0.00  0.00    +0.046 A 
ATOM     11  C   UNL     1       2.068  -0.213  -1.395  0.00  0.00    +0.008 A 
BRANCH   6  13
ATOM     12  C   UNL     1      -1.120   0.953  -0.407  0.00  0.00    +0.021 C 
ATOM     13  C   UNL     1       0.002  -0.004   0.002  0.00  0.00    +0.015 C 
ATOM     14  C   UNL     1       0.988   0.727   0.915  0.00  0.00    +0.021 C 
BRANCH  13  15
ATOM     15  C   UNL     1      -0.585  -1.182   0.737  0.00  0.00    -0.037 A 
ATOM     16  C   UNL     1       0.225  -2.238   1.108  0.00  0.00    +0.004 A 
ATOM     17  C   UNL     1      -0.313  -3.318   1.782  0.00  0.00    +0.000 A 
ATOM     18  C   UNL     1      -1.662  -3.342   2.085  0.00  0.00    +0.000 A 
ATOM     19  C   UNL     1      -2.472  -2.285   1.714  0.00  0.00    +0.000 A 
ATOM     20  C   UNL     1      -1.933  -1.202   1.044  0.00  0.00    +0.004 A 
ENDBRANCH  13  15
ENDBRANCH   6  13
ENDBRANCH   5   9
ENDBRANCH   4   5
ENDBRANCH   1   4
BRANCH   1  21
ATOM     21  C   UNL     1       6.097  -1.631  -6.182  0.00  0.00    +0.159 C 
BRANCH  21  22
ATOM     22  N   UNL     1       6.592  -2.077  -7.487  0.00  0.00    -0.306 N 
ATOM     23  C   UNL     1       7.209  -3.283  -7.764  0.00  0.00    +0.153 A 
ATOM     24  C   UNL     1       7.502  -3.266  -9.123  0.00  0.00    +0.169 A 
ATOM     25  N   UNL     1       7.071  -2.099  -9.607  0.00  0.00    -0.199 NA
ATOM     26  C   UNL     1       6.527  -1.392  -8.646  0.00  0.00    +0.206 A 
ATOM     27 CL   UNL     1       5.833   0.187  -8.837  0.00  0.00    -0.043 Cl
ATOM     28  N   UNL     1       8.132  -4.365  -9.684  0.00  0.00    -0.280 N 
ATOM     29  C   UNL     1       8.450  -5.425  -8.917  0.00  0.00    +0.333 A 
ATOM     30  O   UNL     1       9.003  -6.381  -9.428  0.00  0.00    -0.246 OA
ATOM     31  N   UNL     1       8.173  -5.454  -7.603  0.00  0.00    -0.262 N 
ATOM     32  C   UNL     1       7.560  -4.414  -6.999  0.00  0.00    +0.282 A 
ATOM     33  O   UNL     1       7.314  -4.452  -5.807  0.00  0.00    -0.265 OA
ATOM     34  C   UNL     1       8.540  -6.631  -6.813  0.00  0.00    +0.157 C 
ATOM     35  C   UNL     1       8.452  -4.373 -11.113  0.00  0.00    +0.155 C 
ENDBRANCH  21  22
ENDBRANCH   1  21
TORSDOF 8
