REMARK  Name = ZINC09714968
REMARK  6 active torsions:
REMARK  status: ('A' for Active; 'I' for Inactive)
REMARK    1  A    between atoms: C_3  and  N_17
REMARK    2  A    between atoms: C_6  and  C_7
REMARK    3  A    between atoms: N_9  and  C_10
REMARK    4  A    between atoms: C_11  and  C_15
REMARK    5  A    between atoms: N_17  and  S_18
REMARK    6  A    between atoms: S_18  and  C_21
REMARK                            x       y       z     vdW  Elec       q    Type
REMARK                         _______ _______ _______ _____ _____    ______ ____
ROOT
ATOM      1  C   UNL     1       3.456  -3.165  -4.349  0.00  0.00    +0.015 A 
ATOM      2  C   UNL     1       2.465  -3.472  -3.445  0.00  0.00    +0.025 A 
ATOM      3  C   UNL     1       2.113  -2.556  -2.457  0.00  0.00    +0.048 A 
ATOM      4  C   UNL     1       2.758  -1.325  -2.384  0.00  0.00    +0.025 A 
ATOM      5  C   UNL     1       3.753  -1.013  -3.281  0.00  0.00    +0.015 A 
ATOM      6  C   UNL     1       4.109  -1.931  -4.274  0.00  0.00    +0.037 A 
ENDROOT
BRANCH   6   7
ATOM      7  C   UNL     1       5.172  -1.598  -5.242  0.00  0.00    +0.249 C 
ATOM      8  O   UNL     1       5.480  -2.397  -6.104  0.00  0.00    -0.270 OA
ATOM      9  N   UNL     1       5.801  -0.408  -5.169  0.00  0.00    -0.275 N 
ATOM     10  H   UNL     1       5.554   0.229  -4.481  0.00  0.00    +0.156 HD
BRANCH   9  11
ATOM     11  C   UNL     1       6.800  -0.096  -6.078  0.00  0.00    +0.089 A 
ATOM     12  C   UNL     1       7.552   1.070  -6.168  0.00  0.00    +0.080 A 
ATOM     13  C   UNL     1       8.537   1.128  -7.220  0.00  0.00    +0.028 A 
ATOM     14  C   UNL     1       8.637   0.056  -8.028  0.00  0.00    +0.048 A 
ATOM     15  S   UNL     1       7.408  -1.059  -7.382  0.00  0.00    -0.081 S 
BRANCH  12  16
ATOM     16  C   UNL     1       7.360   2.159  -5.258  0.00  0.00    +0.102 C 
ATOM     17  N   UNL     1       7.208   3.022  -4.536  0.00  0.00    -0.191 NA
ENDBRANCH  12  16
ENDBRANCH   9  11
ENDBRANCH   6   7
BRANCH   3  18
ATOM     18  N   UNL     1       1.111  -2.870  -1.545  0.00  0.00    -0.216 N 
ATOM     19  H   UNL     1       0.238  -2.453  -1.621  0.00  0.00    +0.174 HD
BRANCH  18  20
ATOM     20  S   UNL     1       1.408  -3.954  -0.329  0.00  0.00    +0.072 S 
ATOM     21  O   UNL     1       1.972  -5.106  -0.941  0.00  0.00    -0.150 OA
ATOM     22  O   UNL     1       0.228  -4.012   0.461  0.00  0.00    -0.150 OA
BRANCH  20  23
ATOM     23  C   UNL     1       2.665  -3.261   0.693  0.00  0.00    +0.109 A 
ATOM     24  C   UNL     1       2.326  -2.375   1.699  0.00  0.00    +0.030 A 
ATOM     25  C   UNL     1       3.312  -1.831   2.501  0.00  0.00    +0.022 A 
ATOM     26  C   UNL     1       4.637  -2.172   2.296  0.00  0.00    +0.041 A 
ATOM     27  C   UNL     1       4.975  -3.058   1.288  0.00  0.00    +0.022 A 
ATOM     28  C   UNL     1       3.989  -3.602   0.487  0.00  0.00    +0.030 A 
ATOM     29 CL   UNL     1       5.875  -1.489   3.303  0.00  0.00    -0.084 Cl
ENDBRANCH  20  23
ENDBRANCH  18  20
ENDBRANCH   3  18
TORSDOF 6
