REMARK  Name = ZINC45727546
REMARK  14 active torsions:
REMARK  status: ('A' for Active; 'I' for Inactive)
REMARK    1  A    between atoms: C_1  and  C_2
REMARK    2  A    between atoms: C_3  and  C_28
REMARK    3  A    between atoms: N_4  and  C_23
REMARK    4  A    between atoms: C_5  and  N_9
REMARK    5  A    between atoms: C_6  and  C_7
REMARK    6  A    between atoms: C_10  and  C_12
REMARK    7  A    between atoms: C_12  and  N_13
REMARK    8  A    between atoms: N_13  and  C_14
REMARK    9  A    between atoms: N_13  and  C_15
REMARK   10  A    between atoms: C_15  and  C_16
REMARK   11  A    between atoms: N_18  and  C_19
REMARK   12  A    between atoms: C_19  and  C_20
REMARK   13  A    between atoms: C_19  and  C_21
REMARK   14  A    between atoms: C_19  and  C_22
REMARK                            x       y       z     vdW  Elec       q    Type
REMARK                         _______ _______ _______ _____ _____    ______ ____
ROOT
ATOM      1  N   UNL     1       0.144  -3.364   1.440  0.00  0.00    -0.272 N 
ATOM      2  C   UNL     1       0.240  -4.567   0.839  0.00  0.00    +0.202 C 
ATOM      3  O   UNL     1       0.455  -4.633  -0.353  0.00  0.00    -0.278 OA
ATOM      4  H   UNL     1       0.059  -3.310   2.405  0.00  0.00    +0.156 HD
ENDROOT
BRANCH   1   9
ATOM      5  C   UNL     1      -0.367  -0.029  -2.322  0.00  0.00    +0.047 C 
ATOM      6  C   UNL     1      -0.049  -0.674  -0.998  0.00  0.00    -0.011 A 
ATOM      7  C   UNL     1       0.500  -0.078   0.073  0.00  0.00    +0.022 A 
ATOM      8  N   UNL     1       0.632  -0.994   1.082  0.00  0.00    -0.329 N 
ATOM      9  C   UNL     1       0.168  -2.205   0.679  0.00  0.00    +0.123 A 
ATOM     10  C   UNL     1      -0.284  -2.075  -0.627  0.00  0.00    +0.095 A 
ATOM     11  C   UNL     1       0.907   1.371   0.151  0.00  0.00    +0.064 C 
BRANCH   8  12
ATOM     12  C   UNL     1       1.193  -0.708   2.405  0.00  0.00    +0.089 C 
ATOM     13  C   UNL     1       2.306  -1.723   2.737  0.00  0.00    +0.025 C 
ATOM     14  C   UNL     1       2.140  -1.986   4.255  0.00  0.00    +0.002 C 
ATOM     15  C   UNL     1       0.601  -1.987   4.435  0.00  0.00    +0.002 C 
ATOM     16  C   UNL     1       0.109  -0.876   3.485  0.00  0.00    +0.025 C 
ENDBRANCH   8  12
BRANCH  10  17
ATOM     17  C   UNL     1      -0.860  -3.099  -1.445  0.00  0.00    +0.103 C 
ATOM     18  N   UNL     1      -1.317  -3.912  -2.095  0.00  0.00    -0.191 NA
ENDBRANCH  10  17
ENDBRANCH   1   9
BRANCH   2  19
ATOM     19  C   UNL     1       0.082  -5.828   1.647  0.00  0.00    +0.019 C 
BRANCH  19  20
ATOM     20  N   UNL     1       0.121  -6.992   0.752  0.00  0.00    +0.389 N 
ATOM     21  C   UNL     1       1.466  -7.121   0.175  0.00  0.00    -0.095 C 
ATOM     22  H   UNL     1      -0.552  -6.869   0.010  0.00  0.00    -0.081 HD
BRANCH  20  23
ATOM     23  C   UNL     1      -0.205  -8.206   1.512  0.00  0.00    +0.019 C 
BRANCH  23  24
ATOM     24  C   UNL     1      -0.285  -9.381   0.571  0.00  0.00    +0.197 C 
ATOM     25  O   UNL     1      -0.090  -9.223  -0.615  0.00  0.00    -0.278 OA
ATOM     26  N   UNL     1      -0.574 -10.608   1.049  0.00  0.00    -0.312 N 
ATOM     27  H   UNL     1      -0.730 -10.735   1.998  0.00  0.00    +0.149 HD
BRANCH  26  28
ATOM     28  C   UNL     1      -0.652 -11.750   0.135  0.00  0.00    +0.026 C 
ATOM     29  C   UNL     1       0.695 -11.934  -0.567  0.00  0.00    +0.031 C 
ATOM     30  C   UNL     1      -0.991 -13.015   0.927  0.00  0.00    +0.031 C 
ATOM     31  C   UNL     1      -1.741 -11.495  -0.909  0.00  0.00    +0.031 C 
ENDBRANCH  26  28
ENDBRANCH  23  24
ENDBRANCH  20  23
ENDBRANCH  19  20
ENDBRANCH   2  19
TORSDOF 8
