REMARK  Name = ZINC01152453
REMARK  5 active torsions:
REMARK  status: ('A' for Active; 'I' for Inactive)
REMARK    1  A    between atoms: C_3  and  C_10
REMARK    2  A    between atoms: C_5  and  N_7
REMARK    3  A    between atoms: C_11  and  C_12
REMARK    4  A    between atoms: C_11  and  N_20
REMARK    5  A    between atoms: C_21  and  C_23
REMARK                            x       y       z     vdW  Elec       q    Type
REMARK                         _______ _______ _______ _____ _____    ______ ____
ROOT
ATOM      1  C   UNL     1       3.374   2.048   0.046  0.00  0.00    +0.036 C 
ATOM      2  C   UNL     1       3.514   3.391  -0.042  0.00  0.00    +0.097 C 
ENDROOT
BRANCH   2   3
ATOM      3  C   UNL     1       2.331   4.242  -0.240  0.00  0.00    +0.261 C 
ATOM      4  O   UNL     1       2.131   4.764  -1.321  0.00  0.00    -0.269 OA
ATOM      5  N   UNL     1       1.469   4.444   0.776  0.00  0.00    -0.292 N 
ATOM      6  C   UNL     1       1.756   3.934   2.126  0.00  0.00    +0.136 C 
ATOM      7  C   UNL     1       1.575   5.083   3.125  0.00  0.00    +0.179 C 
ATOM      8  O   UNL     1       0.289   5.677   2.931  0.00  0.00    -0.377 OA
ATOM      9  C   UNL     1       0.107   6.269   1.643  0.00  0.00    +0.179 C 
ATOM     10  C   UNL     1       0.215   5.187   0.569  0.00  0.00    +0.136 C 
ENDBRANCH   2   3
BRANCH   1  13
ATOM     11  C   UNL     1      -0.058   1.405  -1.322  0.00  0.00    +0.003 A 
ATOM     12  C   UNL     1       1.171   1.992  -1.109  0.00  0.00    +0.008 A 
ATOM     13  C   UNL     1       2.060   1.429  -0.188  0.00  0.00    -0.021 A 
ATOM     14  C   UNL     1       1.694   0.273   0.510  0.00  0.00    +0.040 A 
ATOM     15  C   UNL     1       0.461  -0.302   0.285  0.00  0.00    +0.127 A 
ATOM     16  C   UNL     1      -0.413   0.262  -0.628  0.00  0.00    +0.033 A 
BRANCH  15  17
ATOM     17  N   UNL     1       0.071  -1.525   1.023  0.00  0.00    +0.056 N 
ATOM     18  O   UNL     1       0.834  -2.018   1.821  0.00  0.00    -0.126 OA
ATOM     19  O   UNL     1      -1.009  -2.030   0.827  0.00  0.00    -0.126 OA
ENDBRANCH  15  17
ENDBRANCH   1  13
BRANCH   2  20
ATOM     20  N   UNL     1       4.782   3.970   0.055  0.00  0.00    -0.277 N 
ATOM     21  C   UNL     1       4.914   5.311   0.051  0.00  0.00    +0.248 C 
ATOM     22  O   UNL     1       3.925   6.018   0.042  0.00  0.00    -0.270 OA
ATOM     23  H   UNL     1       5.568   3.405   0.126  0.00  0.00    +0.155 HD
BRANCH  21  24
ATOM     24  C   UNL     1       6.259   5.921   0.057  0.00  0.00    +0.037 A 
ATOM     25  C   UNL     1       7.397   5.112   0.061  0.00  0.00    +0.014 A 
ATOM     26  C   UNL     1       8.650   5.688   0.067  0.00  0.00    +0.016 A 
ATOM     27  C   UNL     1       8.781   7.066   0.069  0.00  0.00    +0.018 A 
ATOM     28  C   UNL     1       7.657   7.875   0.064  0.00  0.00    +0.016 A 
ATOM     29  C   UNL     1       6.399   7.311   0.052  0.00  0.00    +0.014 A 
ATOM     30 BR   UNL     1      10.503   7.848   0.077  0.00  0.00    -0.050 Br
ENDBRANCH  21  24
ENDBRANCH   2  20
TORSDOF 5
