REMARK  Name = ZINC54275883
REMARK  13 active torsions:
REMARK  status: ('A' for Active; 'I' for Inactive)
REMARK    1  A    between atoms: C_1  and  C_2
REMARK    2  A    between atoms: C_2  and  C_3
REMARK    3  A    between atoms: C_3  and  C_5
REMARK    4  A    between atoms: C_3  and  S_6
REMARK    5  A    between atoms: S_6  and  C_7
REMARK    6  A    between atoms: C_17  and  C_19
REMARK    7  A    between atoms: C_22  and  N_25
REMARK    8  A    between atoms: N_25  and  C_26
REMARK    9  A    between atoms: N_25  and  C_28
REMARK   10  A    between atoms: C_26  and  C_27
REMARK   11  A    between atoms: C_28  and  C_29
REMARK   12  A    between atoms: C_33  and  C_35
REMARK   13  A    between atoms: C_33  and  C_36
REMARK                            x       y       z     vdW  Elec       q    Type
REMARK                         _______ _______ _______ _____ _____    ______ ____
ROOT
ATOM      1  C   UNL     1       0.774  -0.523  -4.074  0.00  0.00    +0.172 A 
ATOM      2  N   UNL     1       1.933  -1.102  -3.835  0.00  0.00    -0.185 NA
ATOM      3  C   UNL     1       2.728  -1.497  -4.840  0.00  0.00    +0.280 A 
ATOM      4  O   UNL     1       3.801  -2.032  -4.601  0.00  0.00    -0.265 OA
ATOM      5  C   UNL     1       2.319  -1.292  -6.176  0.00  0.00    +0.069 A 
ATOM      6  C   UNL     1       1.123  -0.689  -6.410  0.00  0.00    +0.111 A 
ATOM      7  N   UNL     1       0.344  -0.308  -5.349  0.00  0.00    -0.322 N 
ATOM      8  N   UNL     1       0.701  -0.466  -7.700  0.00  0.00    -0.304 N 
ATOM      9  C   UNL     1       1.593  -0.478  -8.738  0.00  0.00    +0.017 C 
ATOM     10  C   UNL     1       2.797  -1.073  -8.603  0.00  0.00    +0.024 C 
ATOM     11  C   UNL     1       3.193  -1.739  -7.310  0.00  0.00    +0.092 C 
ATOM     12  C   UNL     1       3.717  -1.095  -9.666  0.00  0.00    +0.162 C 
ATOM     13  O   UNL     1       4.800  -1.622  -9.506  0.00  0.00    -0.292 OA
ATOM     14  C   UNL     1       3.386  -0.479 -10.998  0.00  0.00    +0.086 C 
ATOM     15  C   UNL     1       1.868  -0.525 -11.205  0.00  0.00    -0.023 C 
ATOM     16  C   UNL     1       1.197   0.191 -10.031  0.00  0.00    +0.058 C 
ATOM     17  C   UNL     1       1.400  -1.981 -11.255  0.00  0.00    +0.011 C 
ATOM     18  C   UNL     1       1.506   0.181 -12.513  0.00  0.00    +0.011 C 
ATOM     19  H   UNL     1      -0.238  -0.298  -7.876  0.00  0.00    +0.153 HD
ATOM     20  H   UNL     1      -0.514   0.117  -5.505  0.00  0.00    +0.169 HD
ENDROOT
BRANCH  11  21
ATOM     21  C   UNL     1       3.071  -3.233  -7.468  0.00  0.00    -0.035 A 
ATOM     22  C   UNL     1       1.841  -3.799  -7.748  0.00  0.00    +0.006 A 
ATOM     23  C   UNL     1       1.726  -5.168  -7.893  0.00  0.00    +0.023 A 
ATOM     24  C   UNL     1       2.848  -5.976  -7.756  0.00  0.00    +0.030 A 
ATOM     25  C   UNL     1       4.082  -5.404  -7.474  0.00  0.00    +0.023 A 
ATOM     26  C   UNL     1       4.191  -4.034  -7.336  0.00  0.00    +0.006 A 
BRANCH  24  27
ATOM     27  N   UNL     1       2.735  -7.360  -7.902  0.00  0.00    -0.330 N 
BRANCH  27  28
ATOM     28  C   UNL     1       3.919  -8.211  -7.757  0.00  0.00    +0.102 C 
ATOM     29  C   UNL     1       4.068  -8.634  -6.295  0.00  0.00    +0.024 C 
ENDBRANCH  27  28
BRANCH  27  30
ATOM     30  C   UNL     1       1.433  -7.962  -8.199  0.00  0.00    +0.102 C 
ATOM     31  C   UNL     1       1.243  -8.044  -9.715  0.00  0.00    +0.024 C 
ENDBRANCH  27  30
ENDBRANCH  24  27
ENDBRANCH  11  21
BRANCH   1  32
ATOM     32  S   UNL     1      -0.239  -0.022  -2.723  0.00  0.00    -0.085 S 
BRANCH  32  33
ATOM     33  C   UNL     1       0.718  -0.497  -1.257  0.00  0.00    +0.051 C 
ATOM     34  C   UNL     1       0.849  -2.021  -1.205  0.00  0.00    +0.019 C 
BRANCH  33  36
ATOM     35  C   UNL     1      -0.019   1.526   0.010  0.00  0.00    +0.005 C 
ATOM     36  C   UNL     1       0.002  -0.004   0.002  0.00  0.00    +0.011 C 
ENDBRANCH  33  36
ENDBRANCH  32  33
ENDBRANCH   1  32
TORSDOF 7
