REMARK  Name = ZINC34792344
REMARK  6 active torsions:
REMARK  status: ('A' for Active; 'I' for Inactive)
REMARK    1  A    between atoms: C_2  and  C_3
REMARK    2  A    between atoms: C_3  and  N_4
REMARK    3  A    between atoms: C_7  and  C_12
REMARK    4  A    between atoms: N_21  and  C_23
REMARK    5  A    between atoms: C_23  and  C_24
REMARK    6  A    between atoms: N_29  and  C_32
REMARK                            x       y       z     vdW  Elec       q    Type
REMARK                         _______ _______ _______ _____ _____    ______ ____
ROOT
ATOM      1  N   UNL     1       1.367  -1.676   1.111  0.00  0.00    -0.253 N 
ATOM      2  C   UNL     1       1.872  -1.230   2.300  0.00  0.00    +0.043 C 
ATOM      3  C   UNL     1       1.946  -2.039   3.375  0.00  0.00    +0.058 C 
ATOM      4  C   UNL     1       1.450  -3.463   3.221  0.00  0.00    +0.142 C 
ATOM      5  N   UNL     1       0.924  -3.846   1.900  0.00  0.00    -0.288 N 
ATOM      6  C   UNL     1       0.911  -2.920   0.921  0.00  0.00    +0.307 C 
ATOM      7  O   UNL     1       0.474  -3.226  -0.172  0.00  0.00    -0.252 OA
ATOM      8  C   UNL     1       2.501  -1.348   4.472  0.00  0.00    +0.247 C 
ATOM      9  O   UNL     1       2.685  -1.837   5.572  0.00  0.00    -0.270 OA
ATOM     10  N   UNL     1       2.802  -0.078   4.144  0.00  0.00    -0.283 N 
ATOM     11  C   UNL     1       2.428   0.108   2.734  0.00  0.00    +0.160 C 
ATOM     12  H   UNL     1       0.592  -4.743   1.740  0.00  0.00    +0.151 HD
ENDROOT
BRANCH   4  13
ATOM     13  C   UNL     1       2.590  -4.391   3.554  0.00  0.00    -0.021 A 
ATOM     14  C   UNL     1       3.573  -4.643   2.615  0.00  0.00    +0.006 A 
ATOM     15  C   UNL     1       4.618  -5.494   2.920  0.00  0.00    +0.002 A 
ATOM     16  C   UNL     1       4.681  -6.094   4.164  0.00  0.00    +0.020 A 
ATOM     17  C   UNL     1       3.698  -5.843   5.104  0.00  0.00    +0.041 A 
ATOM     18  C   UNL     1       2.655  -4.986   4.800  0.00  0.00    +0.025 A 
ATOM     19 CL   UNL     1       3.776  -6.596   6.666  0.00  0.00    -0.084 Cl
ENDBRANCH   4  13
BRANCH   1  20
ATOM     20  C   UNL     1       1.317  -0.740  -0.015  0.00  0.00    +0.141 C 
BRANCH  20  22
ATOM     21  C   UNL     1      -0.016   1.306   0.009  0.00  0.00    +0.005 C 
ATOM     22  C   UNL     1       0.002  -0.004   0.002  0.00  0.00    -0.015 C 
ENDBRANCH  20  22
ENDBRANCH   1  20
BRANCH  10  23
ATOM     23  C   UNL     1       3.391   0.931   5.028  0.00  0.00    +0.204 C 
BRANCH  23  24
ATOM     24  C   UNL     1       4.894   0.866   4.932  0.00  0.00    +0.233 C 
ATOM     25  O   UNL     1       5.421   0.057   4.198  0.00  0.00    -0.274 OA
ATOM     26  N   UNL     1       5.652   1.708   5.662  0.00  0.00    -0.298 N 
ATOM     27  C   UNL     1       5.034   2.693   6.562  0.00  0.00    +0.123 C 
ATOM     28  C   UNL     1       5.682   2.562   7.945  0.00  0.00    +0.103 C 
ATOM     29  N   UNL     1       7.141   2.672   7.811  0.00  0.00    -0.296 NA
ATOM     30  C   UNL     1       7.686   1.575   7.000  0.00  0.00    +0.103 C 
ATOM     31  C   UNL     1       7.120   1.662   5.583  0.00  0.00    +0.123 C 
BRANCH  29  32
ATOM     32  C   UNL     1       7.788   2.724   9.129  0.00  0.00    +0.057 C 
ATOM     33  C   UNL     1       7.331   3.984   9.893  0.00  0.00    +0.019 C 
ATOM     34  C   UNL     1       8.599   4.449  10.651  0.00  0.00    +0.002 C 
ATOM     35  C   UNL     1       9.730   4.165   9.632  0.00  0.00    +0.002 C 
ATOM     36  C   UNL     1       9.313   2.839   8.963  0.00  0.00    +0.019 C 
ENDBRANCH  29  32
ENDBRANCH  23  24
ENDBRANCH  10  23
TORSDOF 6
