REMARK  Name = ZINC22205924
REMARK  2 active torsions:
REMARK  status: ('A' for Active; 'I' for Inactive)
REMARK    1  A    between atoms: C_1  and  C_2
REMARK    2  A    between atoms: C_5  and  C_8
REMARK                            x       y       z     vdW  Elec       q    Type
REMARK                         _______ _______ _______ _____ _____    ______ ____
ROOT
ATOM      1  C   UNL     1      -0.685   5.625  -0.938  0.00  0.00    +0.044 C 
ATOM      2  C   UNL     1      -0.505   4.149  -0.692  0.00  0.00    -0.050 A 
ATOM      3  C   UNL     1       0.743   3.655  -0.354  0.00  0.00    +0.004 A 
ATOM      4  C   UNL     1       0.916   2.306  -0.127  0.00  0.00    +0.008 A 
ATOM      5  C   UNL     1      -0.174   1.436  -0.238  0.00  0.00    -0.024 A 
ATOM      6  C   UNL     1      -1.431   1.943  -0.585  0.00  0.00    +0.008 A 
ATOM      7  C   UNL     1      -1.588   3.295  -0.804  0.00  0.00    +0.004 A 
ENDROOT
BRANCH   5   8
ATOM      8  C   UNL     1       0.002  -0.004   0.002  0.00  0.00    +0.030 C 
ATOM      9  C   UNL     1      -0.943  -0.698   0.680  0.00  0.00    +0.096 C 
ATOM     10  C   UNL     1      -2.122  -0.188   1.404  0.00  0.00    +0.346 C 
ATOM     11  O   UNL     1      -2.348   1.006   1.447  0.00  0.00    -0.244 OA
ATOM     12  O   UNL     1      -2.931  -1.044   2.002  0.00  0.00    -0.450 OA
ATOM     13  C   UNL     1      -2.615  -2.466   1.931  0.00  0.00    +0.307 C 
ATOM     14  S   UNL     1      -1.072  -2.463   0.930  0.00  0.00    -0.078 S 
ENDBRANCH   5   8
TORSDOF 1
