REMARK  Name = ZINC58893175
REMARK  13 active torsions:
REMARK  status: ('A' for Active; 'I' for Inactive)
REMARK    1  A    between atoms: C_1  and  C_2
REMARK    2  A    between atoms: C_2  and  O_3
REMARK    3  A    between atoms: O_3  and  C_4
REMARK    4  A    between atoms: C_7  and  C_10
REMARK    5  A    between atoms: C_10  and  C_12
REMARK    6  A    between atoms: C_10  and  O_34
REMARK    7  A    between atoms: C_12  and  C_13
REMARK    8  A    between atoms: C_13  and  C_14
REMARK    9  A    between atoms: N_16  and  N_17
REMARK   10  A    between atoms: C_18  and  C_19
REMARK   11  A    between atoms: C_22  and  O_25
REMARK   12  A    between atoms: O_25  and  C_26
REMARK   13  A    between atoms: C_26  and  C_27
REMARK                            x       y       z     vdW  Elec       q    Type
REMARK                         _______ _______ _______ _____ _____    ______ ____
ROOT
ATOM      1  C   UNL     1      -1.806  -8.625  -3.009  0.00  0.00    +0.232 C 
ATOM      2  O   UNL     1      -2.353  -7.809  -3.720  0.00  0.00    -0.274 OA
ATOM      3  N   UNL     1      -1.848  -9.934  -3.329  0.00  0.00    -0.207 N 
ATOM      4  H   UNL     1      -1.411 -10.587  -2.760  0.00  0.00    +0.177 HD
ENDROOT
BRANCH   3   5
ATOM      5  N   UNL     1      -2.524 -10.351  -4.484  0.00  0.00    -0.188 NA
ATOM      6  C   UNL     1      -2.666 -11.617  -4.730  0.00  0.00    +0.138 C 
BRANCH   6   7
ATOM      7  C   UNL     1      -2.567 -12.598  -3.633  0.00  0.00    -0.005 A 
ATOM      8  C   UNL     1      -2.431 -13.958  -3.920  0.00  0.00    +0.013 A 
ATOM      9  C   UNL     1      -2.337 -14.871  -2.892  0.00  0.00    +0.046 A 
ATOM     10  C   UNL     1      -2.378 -14.440  -1.572  0.00  0.00    +0.121 A 
ATOM     11  C   UNL     1      -2.513 -13.088  -1.282  0.00  0.00    +0.046 A 
ATOM     12  C   UNL     1      -2.601 -12.168  -2.304  0.00  0.00    +0.013 A 
BRANCH  10  13
ATOM     13  O   UNL     1      -2.285 -15.343  -0.562  0.00  0.00    -0.487 OA
BRANCH  13  14
ATOM     14  C   UNL     1      -2.334 -14.832   0.772  0.00  0.00    +0.264 C 
BRANCH  14  15
ATOM     15  C   UNL     1      -2.218 -15.971   1.751  0.00  0.00    -0.010 A 
ATOM     16  C   UNL     1      -3.356 -16.617   2.198  0.00  0.00    +0.008 A 
ATOM     17  C   UNL     1      -3.250 -17.662   3.096  0.00  0.00    +0.015 A 
ATOM     18  C   UNL     1      -2.005 -18.063   3.547  0.00  0.00    +0.018 A 
ATOM     19  C   UNL     1      -0.867 -17.417   3.100  0.00  0.00    +0.015 A 
ATOM     20  C   UNL     1      -0.973 -16.375   2.198  0.00  0.00    +0.008 A 
ATOM     21 BR   UNL     1      -1.859 -19.493   4.776  0.00  0.00    -0.050 Br
ENDBRANCH  14  15
ENDBRANCH  13  14
ENDBRANCH  10  13
ENDBRANCH   6   7
ENDBRANCH   3   5
BRANCH   1  22
ATOM     22  C   UNL     1      -1.080  -8.176  -1.767  0.00  0.00    +0.100 C 
BRANCH  22  23
ATOM     23  C   UNL     1      -1.183  -6.655  -1.637  0.00  0.00    +0.045 C 
BRANCH  23  24
ATOM     24  C   UNL     1      -0.446  -6.200  -0.377  0.00  0.00    +0.145 C 
BRANCH  24  28
ATOM     25  C   UNL     1      -0.436  -1.930  -0.198  0.00  0.00    +0.121 A 
ATOM     26  C   UNL     1       0.644  -2.605  -0.747  0.00  0.00    +0.046 A 
ATOM     27  C   UNL     1       0.639  -3.985  -0.804  0.00  0.00    +0.010 A 
ATOM     28  C   UNL     1      -0.443  -4.694  -0.314  0.00  0.00    -0.019 A 
ATOM     29  C   UNL     1      -1.521  -4.024   0.234  0.00  0.00    +0.010 A 
ATOM     30  C   UNL     1      -1.517  -2.644   0.299  0.00  0.00    +0.046 A 
BRANCH  25  31
ATOM     31  O   UNL     1      -0.433  -0.572  -0.141  0.00  0.00    -0.492 OA
BRANCH  31  33
ATOM     32  C   UNL     1       0.536   1.609  -0.519  0.00  0.00    +0.048 C 
ATOM     33  C   UNL     1       0.713   0.097  -0.670  0.00  0.00    +0.225 C 
ENDBRANCH  31  33
ENDBRANCH  25  31
ENDBRANCH  24  28
BRANCH  24  34
ATOM     34  O   UNL     1      -1.106  -6.723   0.777  0.00  0.00    -0.387 OA
ATOM     35  H   UNL     1      -2.026  -6.440   0.866  0.00  0.00    +0.210 HD
ENDBRANCH  24  34
ENDBRANCH  23  24
ENDBRANCH  22  23
ENDBRANCH   1  22
TORSDOF 12
