REMARK  Name = ZINC38743226
REMARK  6 active torsions:
REMARK  status: ('A' for Active; 'I' for Inactive)
REMARK    1  A    between atoms: C_4  and  C_7
REMARK    2  A    between atoms: C_9  and  C_13
REMARK    3  A    between atoms: C_21  and  C_23
REMARK    4  A    between atoms: C_23  and  C_24
REMARK    5  A    between atoms: C_24  and  C_25
REMARK    6  A    between atoms: C_25  and  N_26
REMARK                            x       y       z     vdW  Elec       q    Type
REMARK                         _______ _______ _______ _____ _____    ______ ____
ROOT
ATOM      1  C   UNL     1       5.763  -2.987  -1.332  0.00  0.00    +0.206 C 
ATOM      2  N   UNL     1       5.054  -4.286  -1.429  0.00  0.00    -0.231 NA
ATOM      3  N   UNL     1       6.082  -5.335  -1.304  0.00  0.00    -0.224 NA
ATOM      4  C   UNL     1       7.162  -4.651  -0.565  0.00  0.00    +0.240 C 
ATOM      5  N   UNL     1       7.203  -3.325  -1.267  0.00  0.00    -0.206 N 
ATOM      6  N   UNL     1       8.467  -2.946  -1.664  0.00  0.00    -0.178 NA
ATOM      7  C   UNL     1       9.474  -3.755  -1.691  0.00  0.00    +0.095 C 
ATOM      8  S   UNL     1       8.810  -5.310  -1.013  0.00  0.00    -0.068 S 
ATOM      9  H   UNL     1       4.563  -4.365  -2.307  0.00  0.00    +0.143 HD
ATOM     10  H   UNL     1       5.731  -6.125  -0.783  0.00  0.00    +0.144 HD
ENDROOT
BRANCH   1  13
ATOM     11  C   UNL     1       3.699  -0.689  -0.037  0.00  0.00    +0.091 C 
ATOM     12  C   UNL     1       3.832  -2.029  -0.051  0.00  0.00    +0.034 C 
ATOM     13  C   UNL     1       5.335  -2.245  -0.065  0.00  0.00    +0.190 C 
ATOM     14  N   UNL     1       5.871  -0.874  -0.056  0.00  0.00    -0.176 NA
ATOM     15  N   UNL     1       4.919  -0.090  -0.047  0.00  0.00    -0.154 NA
BRANCH  11  19
ATOM     16  C   UNL     1      -0.017   1.379   0.010  0.00  0.00    +0.000 A 
ATOM     17  C   UNL     1       1.169   2.092   0.002  0.00  0.00    +0.001 A 
ATOM     18  C   UNL     1       2.377   1.426  -0.013  0.00  0.00    +0.010 A 
ATOM     19  C   UNL     1       2.402   0.033  -0.021  0.00  0.00    +0.002 A 
ATOM     20  C   UNL     1       1.205  -0.680  -0.013  0.00  0.00    +0.010 A 
ATOM     21  C   UNL     1       0.002  -0.004   0.002  0.00  0.00    +0.001 A 
ENDBRANCH  11  19
ENDBRANCH   1  13
BRANCH   7  22
ATOM     22  C   UNL     1      10.878  -3.476  -2.163  0.00  0.00    +0.066 C 
BRANCH  22  23
ATOM     23  C   UNL     1      10.976  -2.024  -2.637  0.00  0.00    +0.026 C 
BRANCH  23  24
ATOM     24  C   UNL     1      12.402  -1.740  -3.117  0.00  0.00    +0.117 C 
BRANCH  24  25
ATOM     25  N   UNL     1      12.496  -0.351  -3.571  0.00  0.00    -0.234 N 
ATOM     26  C   UNL     1      12.258   0.056  -4.831  0.00  0.00    +0.254 C 
ATOM     27  O   UNL     1      11.936  -0.659  -5.758  0.00  0.00    -0.270 OA
ATOM     28  C   UNL     1      12.454   1.520  -4.898  0.00  0.00    +0.049 A 
ATOM     29  C   UNL     1      12.353   2.464  -5.907  0.00  0.00    +0.014 A 
ATOM     30  C   UNL     1      12.611   3.797  -5.628  0.00  0.00    +0.001 A 
ATOM     31  C   UNL     1      12.969   4.190  -4.352  0.00  0.00    +0.001 A 
ATOM     32  C   UNL     1      13.074   3.256  -3.333  0.00  0.00    +0.014 A 
ATOM     33  C   UNL     1      12.819   1.920  -3.597  0.00  0.00    +0.049 A 
ATOM     34  C   UNL     1      12.827   0.687  -2.781  0.00  0.00    +0.254 C 
ATOM     35  O   UNL     1      13.091   0.622  -1.598  0.00  0.00    -0.270 OA
ENDBRANCH  24  25
ENDBRANCH  23  24
ENDBRANCH  22  23
ENDBRANCH   7  22
TORSDOF 6
