REMARK  Name = ZINC63513566
REMARK  8 active torsions:
REMARK  status: ('A' for Active; 'I' for Inactive)
REMARK    1  A    between atoms: C_1  and  C_2
REMARK    2  A    between atoms: C_5  and  C_35
REMARK    3  A    between atoms: N_6  and  C_7
REMARK    4  A    between atoms: C_11  and  N_14
REMARK    5  A    between atoms: C_18  and  C_21
REMARK    6  A    between atoms: N_23  and  C_24
REMARK    7  A    between atoms: C_24  and  C_25
REMARK    8  A    between atoms: C_25  and  C_26
REMARK                            x       y       z     vdW  Elec       q    Type
REMARK                         _______ _______ _______ _____ _____    ______ ____
ROOT
ATOM      1  N   UNL     1      -3.764  -0.718   4.481  0.00  0.00    -0.270 NA
ATOM      2  C   UNL     1      -5.045  -0.019   4.319  0.00  0.00    +0.087 C 
ATOM      3  C   UNL     1      -5.856  -0.131   5.612  0.00  0.00    +0.016 C 
ATOM      4  C   UNL     1      -5.058   0.487   6.764  0.00  0.00    +0.015 C 
ATOM      5  C   UNL     1      -3.708  -0.228   6.880  0.00  0.00    +0.089 C 
ATOM      6  C   UNL     1      -2.960  -0.113   5.550  0.00  0.00    +0.100 C 
ENDROOT
BRANCH   1  10
ATOM      7  C   UNL     1      -0.418  -0.405   2.473  0.00  0.00    +0.289 C 
ATOM      8  N   UNL     1      -1.349   0.746   2.525  0.00  0.00    -0.153 NA
ATOM      9  N   UNL     1      -2.508   0.592   2.856  0.00  0.00    -0.159 NA
ATOM     10  C   UNL     1      -3.019  -0.751   3.215  0.00  0.00    +0.260 C 
ATOM     11  S   UNL     1      -1.415  -1.655   3.400  0.00  0.00    -0.067 S 
BRANCH   7  17
ATOM     12  C   UNL     1       0.171  -3.317   1.587  0.00  0.00    +0.063 C 
ATOM     13  C   UNL     1       0.085  -2.109   0.691  0.00  0.00    +0.019 A 
ATOM     14  C   UNL     1       0.247  -2.105  -0.648  0.00  0.00    +0.023 A 
ATOM     15  C   UNL     1       0.086  -0.776  -1.088  0.00  0.00    +0.023 A 
ATOM     16  C   UNL     1      -0.168  -0.019  -0.002  0.00  0.00    +0.019 A 
ATOM     17  N   UNL     1      -0.175  -0.832   1.093  0.00  0.00    -0.316 N 
ATOM     18  C   UNL     1      -0.408   1.469   0.002  0.00  0.00    +0.063 C 
ENDBRANCH   7  17
ENDBRANCH   1  10
BRANCH   5  19
ATOM     19  C   UNL     1      -2.893   0.412   7.974  0.00  0.00    +0.217 C 
ATOM     20  O   UNL     1      -1.816   0.908   7.716  0.00  0.00    -0.275 OA
ATOM     21  N   UNL     1      -3.359   0.433   9.238  0.00  0.00    -0.315 N 
ATOM     22  H   UNL     1      -4.220   0.036   9.444  0.00  0.00    +0.149 HD
BRANCH  21  23
ATOM     23  C   UNL     1      -2.566   1.055  10.301  0.00  0.00    +0.108 C 
BRANCH  23  24
ATOM     24  C   UNL     1      -3.317   0.944  11.629  0.00  0.00    +0.052 C 
BRANCH  24  25
ATOM     25  C   UNL     1      -2.502   1.583  12.723  0.00  0.00    -0.040 C 
ATOM     26  C   UNL     1      -2.614   2.849  13.187  0.00  0.00    -0.001 A 
ATOM     27  C   UNL     1      -3.494   3.967  12.824  0.00  0.00    +0.010 A 
ATOM     28  C   UNL     1      -3.366   5.142  13.481  0.00  0.00    +0.001 A 
ATOM     29  C   UNL     1      -2.417   5.319  14.497  0.00  0.00    +0.002 A 
ATOM     30  C   UNL     1      -1.574   4.340  14.886  0.00  0.00    +0.026 A 
ATOM     31  C   UNL     1      -1.620   3.062  14.263  0.00  0.00    +0.043 A 
ATOM     32  N   UNL     1      -0.921   1.970  14.457  0.00  0.00    -0.380 N 
ATOM     33  C   UNL     1      -1.397   0.938  13.529  0.00  0.00    +0.144 C 
ATOM     34  H   UNL     1      -0.210   1.861  15.109  0.00  0.00    +0.160 HD
ENDBRANCH  24  25
ENDBRANCH  23  24
ENDBRANCH  21  23
ENDBRANCH   5  19
TORSDOF 6
