REMARK  Name = ZINC34975787
REMARK  7 active torsions:
REMARK  status: ('A' for Active; 'I' for Inactive)
REMARK    1  A    between atoms: C_1  and  C_2
REMARK    2  A    between atoms: C_4  and  C_16
REMARK    3  A    between atoms: C_5  and  C_9
REMARK    4  A    between atoms: C_6  and  C_8
REMARK    5  A    between atoms: C_9  and  C_11
REMARK    6  A    between atoms: C_11  and  C_13
REMARK    7  A    between atoms: C_11  and  C_14
REMARK                            x       y       z     vdW  Elec       q    Type
REMARK                         _______ _______ _______ _____ _____    ______ ____
ROOT
ATOM      1  C   UNL     1       0.115   1.334  -0.460  0.00  0.00    +0.044 C 
ATOM      2  C   UNL     1       0.130  -0.163  -0.289  0.00  0.00    -0.050 A 
ATOM      3  C   UNL     1       0.304  -0.980  -1.393  0.00  0.00    +0.007 A 
ATOM      4  C   UNL     1       0.318  -2.351  -1.246  0.00  0.00    -0.039 A 
ATOM      5  C   UNL     1       0.158  -2.915   0.024  0.00  0.00    +0.025 A 
ATOM      6  C   UNL     1      -0.017  -2.083   1.134  0.00  0.00    -0.039 A 
ATOM      7  C   UNL     1      -0.024  -0.714   0.971  0.00  0.00    +0.007 A 
ATOM      8  C   UNL     1      -0.191  -2.682   2.506  0.00  0.00    +0.044 C 
ATOM      9  C   UNL     1       0.506  -3.238  -2.449  0.00  0.00    +0.044 C 
ENDROOT
BRANCH   5  10
ATOM     10  C   UNL     1       0.172  -4.378   0.190  0.00  0.00    +0.180 C 
ATOM     11  O   UNL     1      -0.842  -5.018   0.008  0.00  0.00    -0.291 OA
BRANCH  10  12
ATOM     12  C   UNL     1       1.445  -5.079   0.586  0.00  0.00    +0.159 C 
ATOM     13  C   UNL     1       2.255  -5.413  -0.668  0.00  0.00    +0.032 C 
BRANCH  12  14
ATOM     14  C   UNL     1       1.118  -6.321   1.304  0.00  0.00    +0.074 C 
ATOM     15  N   UNL     1       0.866  -7.280   1.858  0.00  0.00    -0.196 NA
ENDBRANCH  12  14
ENDBRANCH  10  12
ENDBRANCH   5  10
TORSDOF 3
