REMARK  Name = ZINC20591364
REMARK  9 active torsions:
REMARK  status: ('A' for Active; 'I' for Inactive)
REMARK    1  A    between atoms: C_1  and  C_2
REMARK    2  A    between atoms: N_13  and  C_18
REMARK    3  A    between atoms: C_15  and  C_16
REMARK    4  A    between atoms: C_18  and  C_19
REMARK    5  A    between atoms: C_19  and  C_21
REMARK    6  A    between atoms: C_19  and  O_36
REMARK    7  A    between atoms: C_21  and  N_22
REMARK    8  A    between atoms: C_30  and  C_35
REMARK    9  A    between atoms: C_32  and  C_34
REMARK                            x       y       z     vdW  Elec       q    Type
REMARK                         _______ _______ _______ _____ _____    ______ ____
ROOT
ATOM      1  C   UNL     1       1.126   9.485  -2.473  0.00  0.00    +0.156 C 
ENDROOT
BRANCH   1  14
ATOM      2  C   UNL     1       4.753   9.762  -6.700  0.00  0.00    +0.045 C 
ATOM      3  C   UNL     1       3.298  10.042  -6.422  0.00  0.00    -0.024 A 
ATOM      4  C   UNL     1       2.484  10.515  -7.410  0.00  0.00    +0.075 A 
ATOM      5  C   UNL     1       1.133  10.764  -7.141  0.00  0.00    +0.258 A 
ATOM      6  O   UNL     1       0.412  11.189  -8.030  0.00  0.00    -0.267 OA
ATOM      7  N   UNL     1       0.621  10.556  -5.913  0.00  0.00    -0.260 N 
ATOM      8  C   UNL     1      -0.667  10.741  -5.411  0.00  0.00    +0.075 A 
ATOM      9  C   UNL     1      -1.847  11.196  -5.983  0.00  0.00    +0.028 A 
ATOM     10  C   UNL     1      -2.994  11.275  -5.221  0.00  0.00    +0.002 A 
ATOM     11  C   UNL     1      -2.974  10.904  -3.887  0.00  0.00    +0.002 A 
ATOM     12  C   UNL     1      -1.806  10.451  -3.308  0.00  0.00    +0.028 A 
ATOM     13  C   UNL     1      -0.646  10.367  -4.067  0.00  0.00    +0.068 A 
ATOM     14  N   UNL     1       0.650   9.961  -3.774  0.00  0.00    -0.322 N 
ATOM     15  C   UNL     1       1.405  10.088  -4.905  0.00  0.00    +0.140 A 
ATOM     16  C   UNL     1       2.761   9.820  -5.140  0.00  0.00    +0.096 A 
BRANCH  16  17
ATOM     17  C   UNL     1       3.593   9.324  -4.084  0.00  0.00    +0.103 C 
ATOM     18  N   UNL     1       4.252   8.931  -3.247  0.00  0.00    -0.191 NA
ENDBRANCH  16  17
ENDBRANCH   1  14
BRANCH   1  19
ATOM     19  C   UNL     1       0.953   7.967  -2.392  0.00  0.00    +0.148 C 
BRANCH  19  20
ATOM     20  O   UNL     1      -0.429   7.636  -2.543  0.00  0.00    -0.389 OA
ATOM     21  H   UNL     1      -0.749   6.584  -2.512  0.00  0.00    +0.210 HD
ENDBRANCH  19  20
BRANCH  19  22
ATOM     22  C   UNL     1       1.451   7.469  -1.033  0.00  0.00    +0.117 C 
BRANCH  22  23
ATOM     23  N   UNL     1       1.349   6.004  -0.981  0.00  0.00    -0.297 NA
ATOM     24  C   UNL     1       2.421   5.374  -1.765  0.00  0.00    +0.103 C 
ATOM     25  C   UNL     1       2.234   3.855  -1.751  0.00  0.00    +0.123 C 
ATOM     26  N   UNL     1       2.249   3.375  -0.362  0.00  0.00    -0.297 N 
ATOM     27  C   UNL     1       1.178   4.005   0.422  0.00  0.00    +0.123 C 
ATOM     28  C   UNL     1       1.365   5.524   0.408  0.00  0.00    +0.103 C 
ATOM     29  C   UNL     1       2.154   1.995  -0.313  0.00  0.00    +0.218 A 
ATOM     30  N   UNL     1       2.153   1.389   0.864  0.00  0.00    -0.220 NA
ATOM     31  C   UNL     1       2.062   0.071   0.946  0.00  0.00    +0.044 A 
ATOM     32  C   UNL     1       1.968  -0.674  -0.219  0.00  0.00    +0.046 A 
ATOM     33  C   UNL     1       1.972  -0.007  -1.434  0.00  0.00    +0.044 A 
ATOM     34  N   UNL     1       2.065   1.313  -1.445  0.00  0.00    -0.220 NA
ATOM     35  C   UNL     1       1.871  -0.776  -2.726  0.00  0.00    +0.066 C 
ATOM     36  C   UNL     1       2.063  -0.611   2.290  0.00  0.00    +0.066 C 
ENDBRANCH  22  23
ENDBRANCH  19  22
ENDBRANCH   1  19
TORSDOF 6
