REMARK  Name = ZINC39101520
REMARK  2 active torsions:
REMARK  status: ('A' for Active; 'I' for Inactive)
REMARK    1  A    between atoms: C_1  and  C_2
REMARK    2  A    between atoms: C_2  and  C_3
REMARK                            x       y       z     vdW  Elec       q    Type
REMARK                         _______ _______ _______ _____ _____    ______ ____
ROOT
ATOM      1  C   UNL     1       0.718  -0.497  -1.257  0.00  0.00    +0.250 C 
ATOM      2  O   UNL     1       2.059  -0.040  -1.231  0.00  0.00    -0.351 OA
ATOM      3  C   UNL     1       2.825  -0.281  -2.412  0.00  0.00    +0.169 C 
ATOM      4  C   UNL     1       3.537  -1.636  -2.266  0.00  0.00    +0.059 C 
ATOM      5  C   UNL     1       2.600  -2.863  -2.318  0.00  0.00    +0.059 C 
ATOM      6  C   UNL     1       3.280  -2.421  -0.978  0.00  0.00    +0.129 C 
ATOM      7 CL   UNL     1       4.619  -3.455  -0.353  0.00  0.00    -0.100 Cl
ATOM      8 CL   UNL     1       2.252  -1.639   0.280  0.00  0.00    -0.100 Cl
ATOM      9  C   UNL     1       1.115  -2.524  -2.533  0.00  0.00    +0.169 C 
ATOM     10  O   UNL     1       0.629  -1.911  -1.311  0.00  0.00    -0.351 OA
ENDROOT
BRANCH   1  12
ATOM     11  C   UNL     1      -0.019   1.526   0.010  0.00  0.00    +0.009 C 
ATOM     12  C   UNL     1       0.002  -0.004   0.002  0.00  0.00    +0.058 C 
ENDBRANCH   1  12
TORSDOF 1
