REMARK  Name = ZINC08682347
REMARK  9 active torsions:
REMARK  status: ('A' for Active; 'I' for Inactive)
REMARK    1  A    between atoms: C_1  and  C_2
REMARK    2  A    between atoms: C_2  and  C_3
REMARK    3  A    between atoms: C_7  and  C_37
REMARK    4  A    between atoms: C_8  and  N_9
REMARK    5  A    between atoms: C_10  and  C_12
REMARK    6  A    between atoms: N_15  and  S_28
REMARK    7  A    between atoms: N_18  and  S_19
REMARK    8  A    between atoms: S_19  and  C_22
REMARK    9  A    between atoms: S_28  and  C_31
REMARK                            x       y       z     vdW  Elec       q    Type
REMARK                         _______ _______ _______ _____ _____    ______ ____
ROOT
ATOM      1  C   UNL     1      -1.682  -0.828  -5.297  0.00  0.00    +0.181 C 
ATOM      2  C   UNL     1      -1.327   0.656  -5.453  0.00  0.00    +0.139 C 
ATOM      3  N   UNL     1      -1.591   1.058  -6.841  0.00  0.00    -0.173 NA
ATOM      4  C   UNL     1      -2.931   0.834  -7.401  0.00  0.00    +0.126 C 
ATOM      5  C   UNL     1      -3.286  -0.649  -7.245  0.00  0.00    +0.127 C 
ATOM      6  N   UNL     1      -3.021  -1.056  -5.857  0.00  0.00    -0.162 NA
ENDROOT
BRANCH   1   8
ATOM      7  N   UNL     1      -1.775  -2.492  -3.468  0.00  0.00    -0.284 N 
ATOM      8  C   UNL     1      -1.675  -1.199  -3.836  0.00  0.00    +0.237 C 
ATOM      9  O   UNL     1      -1.581  -0.334  -2.991  0.00  0.00    -0.274 OA
ATOM     10  H   UNL     1      -1.924  -3.177  -4.139  0.00  0.00    +0.155 HD
BRANCH   7  16
ATOM     11  C   UNL     1      -0.971  -3.994  -1.756  0.00  0.00    -0.026 A 
ATOM     12  C   UNL     1      -0.858  -4.338  -0.423  0.00  0.00    +0.005 A 
ATOM     13  C   UNL     1      -1.438  -3.544   0.549  0.00  0.00    +0.001 A 
ATOM     14  C   UNL     1      -2.133  -2.403   0.190  0.00  0.00    +0.005 A 
ATOM     15  C   UNL     1      -2.249  -2.053  -1.141  0.00  0.00    -0.029 A 
ATOM     16  C   UNL     1      -1.663  -2.846  -2.119  0.00  0.00    +0.040 A 
ATOM     17  C   UNL     1      -3.007  -0.810  -1.531  0.00  0.00    +0.045 C 
BRANCH  11  19
ATOM     18  C   UNL     1       1.047  -4.311  -3.162  0.00  0.00    +0.009 C 
ATOM     19  C   UNL     1      -0.338  -4.859  -2.815  0.00  0.00    +0.033 C 
ENDBRANCH  11  19
ENDBRANCH   7  16
ENDBRANCH   1   8
BRANCH   6  20
ATOM     20  S   UNL     1      -4.211  -1.753  -4.941  0.00  0.00    +0.062 S 
ATOM     21  O   UNL     1      -4.802  -2.765  -5.745  0.00  0.00    -0.153 OA
ATOM     22  O   UNL     1      -3.637  -2.028  -3.670  0.00  0.00    -0.153 OA
BRANCH  20  23
ATOM     23  C   UNL     1      -5.452  -0.529  -4.679  0.00  0.00    +0.106 A 
ATOM     24  C   UNL     1      -5.458   0.209  -3.511  0.00  0.00    +0.028 A 
ATOM     25  C   UNL     1      -6.431   1.169  -3.305  0.00  0.00    +0.002 A 
ATOM     26  C   UNL     1      -7.397   1.391  -4.269  0.00  0.00    +0.000 A 
ATOM     27  C   UNL     1      -7.390   0.653  -5.438  0.00  0.00    +0.002 A 
ATOM     28  C   UNL     1      -6.415  -0.304  -5.645  0.00  0.00    +0.028 A 
ENDBRANCH  20  23
ENDBRANCH   6  20
BRANCH   3  29
ATOM     29  S   UNL     1      -0.400   1.752  -7.759  0.00  0.00    +0.061 S 
ATOM     30  O   UNL     1      -1.053   2.509  -8.768  0.00  0.00    -0.153 OA
ATOM     31  O   UNL     1       0.526   2.333  -6.850  0.00  0.00    -0.153 OA
BRANCH  29  32
ATOM     32  C   UNL     1       0.453   0.447  -8.580  0.00  0.00    +0.105 A 
ATOM     33  C   UNL     1       1.542  -0.154  -7.977  0.00  0.00    +0.028 A 
ATOM     34  C   UNL     1       2.211  -1.178  -8.621  0.00  0.00    +0.002 A 
ATOM     35  C   UNL     1       1.790  -1.602  -9.867  0.00  0.00    +0.000 A 
ATOM     36  C   UNL     1       0.699  -1.002 -10.470  0.00  0.00    +0.002 A 
ATOM     37  C   UNL     1       0.028   0.019  -9.824  0.00  0.00    +0.028 A 
ENDBRANCH  29  32
ENDBRANCH   3  29
TORSDOF 7
