REMARK  Name = ZINC09316713
REMARK  6 active torsions:
REMARK  status: ('A' for Active; 'I' for Inactive)
REMARK    1  A    between atoms: C_4  and  S_9
REMARK    2  A    between atoms: C_5  and  C_7
REMARK    3  A    between atoms: S_9  and  N_12
REMARK    4  A    between atoms: C_17  and  N_18
REMARK    5  A    between atoms: C_17  and  N_46
REMARK    6  A    between atoms: C_22  and  C_24
REMARK                            x       y       z     vdW  Elec       q    Type
REMARK                         _______ _______ _______ _____ _____    ______ ____
ROOT
ATOM      1  N   UNL     1      -7.650   3.152  -3.623  0.00  0.00    -0.180 NA
ATOM      2  C   UNL     1      -8.388   2.199  -2.779  0.00  0.00    +0.091 C 
ATOM      3  C   UNL     1      -7.820   2.267  -1.357  0.00  0.00    -0.059 C 
ATOM      4  C   UNL     1      -5.700   3.128  -2.161  0.00  0.00    -0.059 C 
ATOM      5  C   UNL     1      -6.181   3.095  -3.615  0.00  0.00    +0.091 C 
ATOM      6  N   UNL     1      -6.361   2.033  -1.417  0.00  0.00    +0.394 N 
ATOM      7  H   UNL     1      -6.185   1.147  -1.905  0.00  0.00    -0.079 HD
ENDROOT
BRANCH   1   8
ATOM      8  S   UNL     1      -8.454   4.259  -4.556  0.00  0.00    +0.062 S 
ATOM      9  O   UNL     1      -7.517   4.744  -5.508  0.00  0.00    -0.153 OA
ATOM     10  O   UNL     1      -9.683   3.655  -4.936  0.00  0.00    -0.153 OA
BRANCH   8  14
ATOM     11  C   UNL     1      -9.507   7.764  -1.875  0.00  0.00    +0.001 A 
ATOM     12  C   UNL     1     -10.502   6.949  -2.384  0.00  0.00    +0.002 A 
ATOM     13  C   UNL     1     -10.180   5.883  -3.205  0.00  0.00    +0.030 A 
ATOM     14  C   UNL     1      -8.862   5.620  -3.514  0.00  0.00    +0.123 A 
ATOM     15  C   UNL     1      -7.852   6.439  -3.004  0.00  0.00    +0.078 A 
ATOM     16  C   UNL     1      -8.184   7.516  -2.180  0.00  0.00    +0.021 A 
BRANCH  15  17
ATOM     17  C   UNL     1      -6.482   6.175  -3.326  0.00  0.00    +0.101 C 
ATOM     18  N   UNL     1      -5.395   5.966  -3.581  0.00  0.00    -0.191 NA
ENDBRANCH  15  17
ENDBRANCH   8  14
ENDBRANCH   1   8
BRANCH   6  19
ATOM     19  C   UNL     1      -5.808   1.947  -0.050  0.00  0.00    +0.073 C 
BRANCH  19  20
ATOM     20  N   UNL     1      -4.413   1.506  -0.133  0.00  0.00    -0.240 N 
ATOM     21  C   UNL     1      -3.971   0.231  -0.131  0.00  0.00    +0.265 A 
ATOM     22  S   UNL     1      -4.940  -1.176  -0.031  0.00  0.00    +0.011 S 
ATOM     23  O   UNL     1      -2.630   0.268  -0.228  0.00  0.00    -0.409 OA
ATOM     24  C   UNL     1      -2.231   1.558  -0.281  0.00  0.00    +0.282 A 
ATOM     25  N   UNL     1      -3.281   2.330  -0.229  0.00  0.00    -0.128 NA
BRANCH  24  26
ATOM     26  C   UNL     1      -0.837   2.017  -0.386  0.00  0.00    +0.191 A 
ATOM     27  C   UNL     1       0.266   1.220  -0.440  0.00  0.00    +0.055 A 
ATOM     28  C   UNL     1       1.380   2.075  -0.543  0.00  0.00    +0.042 A 
ATOM     29  C   UNL     1       0.910   3.338  -0.540  0.00  0.00    +0.196 A 
ATOM     30  O   UNL     1      -0.429   3.300  -0.442  0.00  0.00    -0.458 OA
ENDBRANCH  24  26
ENDBRANCH  19  20
ENDBRANCH   6  19
TORSDOF 6
