REMARK  Name = ZINC59594809
REMARK  7 active torsions:
REMARK  status: ('A' for Active; 'I' for Inactive)
REMARK    1  A    between atoms: C_4  and  C_7
REMARK    2  A    between atoms: C_7  and  N_8
REMARK    3  A    between atoms: C_12  and  C_16
REMARK    4  A    between atoms: C_16  and  C_17
REMARK    5  A    between atoms: N_19  and  N_20
REMARK    6  A    between atoms: C_21  and  C_22
REMARK    7  A    between atoms: C_27  and  O_28
REMARK                            x       y       z     vdW  Elec       q    Type
REMARK                         _______ _______ _______ _____ _____    ______ ____
ROOT
ATOM      1  C   UNL     1       2.623  -1.547   5.058  0.00  0.00    +0.125 C 
ENDROOT
BRANCH   1   6
ATOM      2  N   UNL     1       3.633   1.270   2.998  0.00  0.00    -0.295 N 
ATOM      3  C   UNL     1       4.695   1.897   3.779  0.00  0.00    +0.123 C 
ATOM      4  C   UNL     1       5.482   0.832   4.545  0.00  0.00    +0.100 C 
ATOM      5  N   UNL     1       4.531  -0.029   5.268  0.00  0.00    -0.304 NA
ATOM      6  C   UNL     1       3.761  -0.843   4.317  0.00  0.00    +0.149 C 
ATOM      7  C   UNL     1       3.183   0.035   3.243  0.00  0.00    +0.233 C 
ATOM      8  O   UNL     1       2.272  -0.396   2.568  0.00  0.00    -0.274 OA
ATOM      9  H   UNL     1       5.009  -0.612   5.938  0.00  0.00    +0.123 HD
BRANCH   2  10
ATOM     10  C   UNL     1       3.030   2.029   1.899  0.00  0.00    +0.143 C 
BRANCH  10  14
ATOM     11  C   UNL     1      -0.292   4.273   3.373  0.00  0.00    +0.000 A 
ATOM     12  C   UNL     1       0.973   4.831   3.373  0.00  0.00    +0.000 A 
ATOM     13  C   UNL     1       2.048   4.104   2.896  0.00  0.00    +0.005 A 
ATOM     14  C   UNL     1       1.858   2.821   2.420  0.00  0.00    -0.030 A 
ATOM     15  C   UNL     1       0.593   2.263   2.421  0.00  0.00    +0.005 A 
ATOM     16  C   UNL     1      -0.482   2.990   2.896  0.00  0.00    +0.000 A 
ENDBRANCH  10  14
ENDBRANCH   2  10
ENDBRANCH   1   6
BRANCH   1  17
ATOM     17  C   UNL     1       3.198  -2.526   6.048  0.00  0.00    +0.234 C 
ATOM     18  O   UNL     1       4.400  -2.649   6.152  0.00  0.00    -0.274 OA
ATOM     19  N   UNL     1       2.376  -3.266   6.819  0.00  0.00    -0.207 N 
ATOM     20  H   UNL     1       1.415  -3.168   6.737  0.00  0.00    +0.177 HD
BRANCH  19  21
ATOM     21  N   UNL     1       2.911  -4.177   7.740  0.00  0.00    -0.188 NA
ATOM     22  C   UNL     1       2.123  -4.965   8.405  0.00  0.00    +0.142 C 
BRANCH  22  23
ATOM     23  C   UNL     1       0.706  -5.089   8.018  0.00  0.00    +0.039 A 
ATOM     24  C   UNL     1       0.312  -4.833   6.703  0.00  0.00    +0.033 A 
ATOM     25  C   UNL     1      -1.016  -4.951   6.347  0.00  0.00    +0.043 A 
ATOM     26  C   UNL     1      -1.961  -5.321   7.290  0.00  0.00    +0.043 A 
ATOM     27  C   UNL     1      -1.583  -5.575   8.595  0.00  0.00    +0.084 A 
ATOM     28  C   UNL     1      -0.252  -5.468   8.967  0.00  0.00    +0.144 A 
ATOM     29 CL   UNL     1      -2.777  -6.038   9.768  0.00  0.00    -0.080 Cl
ATOM     30 CL   UNL     1      -1.504  -4.633   4.711  0.00  0.00    -0.083 Cl
BRANCH  28  31
ATOM     31  O   UNL     1       0.121  -5.725  10.248  0.00  0.00    -0.505 OA
ATOM     32  H   UNL     1       0.172  -4.938  10.808  0.00  0.00    +0.292 HD
ENDBRANCH  28  31
ENDBRANCH  22  23
ENDBRANCH  19  21
ENDBRANCH   1  17
TORSDOF 7
