REMARK  Name = ZINC15658888
REMARK  10 active torsions:
REMARK  status: ('A' for Active; 'I' for Inactive)
REMARK    1  A    between atoms: C_7  and  C_19
REMARK    2  A    between atoms: N_9  and  C_10
REMARK    3  A    between atoms: C_10  and  C_11
REMARK    4  A    between atoms: C_20  and  C_21
REMARK    5  A    between atoms: C_20  and  C_23
REMARK    6  A    between atoms: C_24  and  C_32
REMARK    7  A    between atoms: C_25  and  N_31
REMARK    8  A    between atoms: N_26  and  C_28
REMARK    9  A    between atoms: C_28  and  C_29
REMARK   10  A    between atoms: C_29  and  O_30
REMARK                            x       y       z     vdW  Elec       q    Type
REMARK                         _______ _______ _______ _____ _____    ______ ____
ROOT
ATOM      1  C   UNL     1      -0.946   2.863  -1.184  0.00  0.00    +0.001 A 
ATOM      2  C   UNL     1      -0.790   1.489  -1.292  0.00  0.00    +0.002 A 
ATOM      3  C   UNL     1       0.432   0.900  -1.050  0.00  0.00    +0.026 A 
ATOM      4  C   UNL     1       1.526   1.687  -0.705  0.00  0.00    +0.050 A 
ATOM      5  C   UNL     1       1.367   3.078  -0.602  0.00  0.00    +0.007 A 
ATOM      6  C   UNL     1       0.125   3.660  -0.844  0.00  0.00    +0.010 A 
ATOM      7  C   UNL     1       2.692   3.611  -0.227  0.00  0.00    +0.002 A 
ATOM      8  C   UNL     1       3.529   2.534  -0.134  0.00  0.00    +0.095 A 
ATOM      9  N   UNL     1       2.843   1.396  -0.415  0.00  0.00    -0.342 N 
ENDROOT
BRANCH   7  10
ATOM     10  C   UNL     1       3.040   5.013  -0.002  0.00  0.00    +0.031 C 
ATOM     11  C   UNL     1       4.187   5.332   0.667  0.00  0.00    +0.081 C 
BRANCH  11  12
ATOM     12  C   UNL     1       4.619   6.744   0.762  0.00  0.00    +0.122 A 
ATOM     13  C   UNL     1       5.820   7.245   1.442  0.00  0.00    +0.119 A 
ATOM     14  C   UNL     1       5.815   8.626   1.272  0.00  0.00    +0.133 A 
ATOM     15  N   UNL     1       4.718   8.945   0.557  0.00  0.00    -0.247 N 
ATOM     16  N   UNL     1       4.003   7.785   0.249  0.00  0.00    -0.167 NA
BRANCH  14  17
ATOM     17  N   UNL     1       6.764   9.510   1.750  0.00  0.00    -0.342 N 
ATOM     18  H   UNL     1       7.522   9.180   2.258  0.00  0.00    +0.144 HD
ATOM     19  H   UNL     1       6.671  10.460   1.579  0.00  0.00    +0.144 HD
ENDBRANCH  14  17
BRANCH  13  20
ATOM     20  C   UNL     1       6.799   6.468   2.141  0.00  0.00    +0.105 C 
ATOM     21  N   UNL     1       7.576   5.851   2.695  0.00  0.00    -0.191 NA
ENDBRANCH  13  20
BRANCH  15  22
ATOM     22  C   UNL     1       4.338  10.302   0.157  0.00  0.00    +0.173 C 
BRANCH  22  23
ATOM     23  C   UNL     1       4.958  10.626  -1.204  0.00  0.00    +0.179 C 
BRANCH  23  24
ATOM     24  O   UNL     1       4.587  11.950  -1.594  0.00  0.00    -0.393 OA
ATOM     25  H   UNL     1       4.945  12.223  -2.449  0.00  0.00    +0.209 HD
ENDBRANCH  23  24
ENDBRANCH  22  23
ENDBRANCH  15  22
ENDBRANCH  11  12
BRANCH  11  26
ATOM     26  C   UNL     1       4.972   4.301   1.276  0.00  0.00    +0.101 C 
ATOM     27  N   UNL     1       5.594   3.482   1.759  0.00  0.00    -0.191 NA
ENDBRANCH  11  26
ENDBRANCH   7  10
BRANCH   9  28
ATOM     28  C   UNL     1       3.421   0.050  -0.412  0.00  0.00    +0.157 C 
BRANCH  28  29
ATOM     29  C   UNL     1       3.840  -0.320  -1.811  0.00  0.00    -0.026 A 
ATOM     30  C   UNL     1       5.117  -0.024  -2.251  0.00  0.00    +0.007 A 
ATOM     31  C   UNL     1       5.503  -0.363  -3.534  0.00  0.00    +0.022 A 
ATOM     32  C   UNL     1       4.612  -0.999  -4.379  0.00  0.00    +0.059 A 
ATOM     33  C   UNL     1       3.333  -1.296  -3.939  0.00  0.00    +0.060 A 
ATOM     34  C   UNL     1       2.950  -0.960  -2.653  0.00  0.00    +0.026 A 
ATOM     35 CL   UNL     1       2.213  -2.094  -4.999  0.00  0.00    -0.082 Cl
ATOM     36 CL   UNL     1       5.096  -1.425  -5.991  0.00  0.00    -0.082 Cl
ENDBRANCH  28  29
ENDBRANCH   9  28
TORSDOF 10
