REMARK  Name = ZINC54219666
REMARK  3 active torsions:
REMARK  status: ('A' for Active; 'I' for Inactive)
REMARK    1  A    between atoms: C_1  and  C_2
REMARK    2  A    between atoms: C_3  and  C_19
REMARK    3  A    between atoms: C_4  and  C_12
REMARK                            x       y       z     vdW  Elec       q    Type
REMARK                         _______ _______ _______ _____ _____    ______ ____
ROOT
ATOM      1  C   UNL     1      -0.747   0.560  -1.240  0.00  0.00    +0.062 C 
ATOM      2  C   UNL     1      -1.037   1.812  -2.027  0.00  0.00    +0.034 C 
ATOM      3  C   UNL     1      -0.697   3.140  -1.412  0.00  0.00    +0.148 C 
ATOM      4  C   UNL     1      -0.291   4.163  -2.480  0.00  0.00    +0.160 C 
ATOM      5  N   UNL     1      -1.198   4.014  -3.616  0.00  0.00    -0.201 N 
ATOM      6  C   UNL     1      -1.782   2.820  -3.941  0.00  0.00    +0.270 A 
ATOM      7  N   UNL     1      -2.511   3.033  -5.003  0.00  0.00    -0.088 NA
ATOM      8  N   UNL     1      -2.432   4.269  -5.360  0.00  0.00    -0.021 NA
ATOM      9  N   UNL     1      -1.653   4.926  -4.561  0.00  0.00    -0.042 NA
ATOM     10  N   UNL     1      -1.563   1.694  -3.202  0.00  0.00    -0.218 NA
ENDROOT
BRANCH   4  11
ATOM     11  C   UNL     1      -0.402   5.557  -1.918  0.00  0.00    -0.022 A 
ATOM     12  C   UNL     1      -0.261   5.767  -0.559  0.00  0.00    +0.007 A 
ATOM     13  C   UNL     1      -0.361   7.045  -0.043  0.00  0.00    +0.015 A 
ATOM     14  C   UNL     1      -0.603   8.114  -0.887  0.00  0.00    +0.018 A 
ATOM     15  C   UNL     1      -0.744   7.903  -2.247  0.00  0.00    +0.015 A 
ATOM     16  C   UNL     1      -0.638   6.625  -2.762  0.00  0.00    +0.007 A 
ATOM     17 BR   UNL     1      -0.742   9.863  -0.182  0.00  0.00    -0.050 Br
ENDBRANCH   4  11
BRANCH   3  18
ATOM     18  C   UNL     1      -1.898   3.659  -0.664  0.00  0.00    +0.221 C 
ATOM     19  O   UNL     1      -2.774   4.250  -1.258  0.00  0.00    -0.275 OA
ATOM     20  N   UNL     1      -1.998   3.465   0.666  0.00  0.00    -0.329 N 
ATOM     21  H   UNL     1      -1.298   2.992   1.142  0.00  0.00    +0.145 HD
ATOM     22  H   UNL     1      -2.771   3.799   1.148  0.00  0.00    +0.145 HD
ENDBRANCH   3  18
TORSDOF 2
