REMARK  Name = ZINC51993214
REMARK  5 active torsions:
REMARK  status: ('A' for Active; 'I' for Inactive)
REMARK    1  A    between atoms: C_2  and  N_22
REMARK    2  A    between atoms: C_6  and  S_7
REMARK    3  A    between atoms: S_7  and  N_10
REMARK    4  A    between atoms: N_10  and  C_11
REMARK    5  A    between atoms: C_17  and  O_19
REMARK                            x       y       z     vdW  Elec       q    Type
REMARK                         _______ _______ _______ _____ _____    ______ ____
ROOT
ATOM      1  S   UNL     1      -1.569  -0.961   0.041  0.00  0.00    +0.062 S 
ATOM      2  O   UNL     1      -2.611  -0.004  -0.084  0.00  0.00    -0.153 OA
ATOM      3  O   UNL     1      -0.242  -0.600   0.398  0.00  0.00    -0.153 OA
ENDROOT
BRANCH   1   9
ATOM      4  C   UNL     1      -1.268  -2.510   2.267  0.00  0.00    +0.057 A 
ATOM      5  C   UNL     1      -1.693  -3.439   3.207  0.00  0.00    +0.062 A 
ATOM      6  C   UNL     1      -2.963  -3.996   3.106  0.00  0.00    +0.147 A 
ATOM      7  C   UNL     1      -3.799  -3.623   2.070  0.00  0.00    +0.080 A 
ATOM      8  C   UNL     1      -3.372  -2.697   1.134  0.00  0.00    +0.152 A 
ATOM      9  C   UNL     1      -2.108  -2.141   1.234  0.00  0.00    +0.142 A 
ATOM     10  F   UNL     1      -4.190  -2.334   0.122  0.00  0.00    -0.203 F 
ATOM     11  F   UNL     1      -3.379  -4.901   4.019  0.00  0.00    -0.203 F 
BRANCH   5  12
ATOM     12  N   UNL     1      -0.844  -3.815   4.255  0.00  0.00    -0.356 N 
ATOM     13  H   UNL     1       0.042  -3.426   4.324  0.00  0.00    +0.142 HD
ATOM     14  H   UNL     1      -1.141  -4.464   4.911  0.00  0.00    +0.142 HD
ENDBRANCH   5  12
ENDBRANCH   1   9
BRANCH   1  15
ATOM     15  N   UNL     1      -1.470  -1.746  -1.414  0.00  0.00    -0.184 NA
ATOM     16  H   UNL     1      -2.062  -1.497  -2.141  0.00  0.00    +0.148 HD
BRANCH  15  17
ATOM     17  C   UNL     1      -0.488  -2.817  -1.603  0.00  0.00    +0.105 C 
ATOM     18  C   UNL     1      -1.160  -4.172  -1.372  0.00  0.00    +0.023 C 
ATOM     19  C   UNL     1      -0.135  -5.290  -1.569  0.00  0.00    +0.002 C 
ATOM     20  C   UNL     1       0.415  -5.231  -2.996  0.00  0.00    +0.003 C 
ATOM     21  C   UNL     1       1.087  -3.877  -3.228  0.00  0.00    +0.033 C 
ATOM     22  C   UNL     1       0.062  -2.758  -3.030  0.00  0.00    +0.133 C 
BRANCH  22  23
ATOM     23  O   UNL     1      -1.009  -2.924  -3.961  0.00  0.00    -0.390 OA
ATOM     24  H   UNL     1      -0.733  -2.897  -4.887  0.00  0.00    +0.210 HD
ENDBRANCH  22  23
ENDBRANCH  15  17
ENDBRANCH   1  15
TORSDOF 5
