REMARK  Name = ZINC39939407
REMARK  11 active torsions:
REMARK  status: ('A' for Active; 'I' for Inactive)
REMARK    1  A    between atoms: C_1  and  C_2
REMARK    2  A    between atoms: C_2  and  C_3
REMARK    3  A    between atoms: C_2  and  C_4
REMARK    4  A    between atoms: C_2  and  N_5
REMARK    5  A    between atoms: C_6  and  C_8
REMARK    6  A    between atoms: C_8  and  N_9
REMARK    7  A    between atoms: C_15  and  C_17
REMARK    8  A    between atoms: C_17  and  S_18
REMARK    9  A    between atoms: S_18  and  C_19
REMARK   10  A    between atoms: C_23  and  C_28
REMARK   11  A    between atoms: N_24  and  C_25
REMARK                            x       y       z     vdW  Elec       q    Type
REMARK                         _______ _______ _______ _____ _____    ______ ____
ROOT
ATOM      1  S   UNL     1      10.148  -1.557  -4.238  0.00  0.00    -0.109 S 
ENDROOT
BRANCH   1   2
ATOM      2  C   UNL     1      10.946  -1.347  -5.853  0.00  0.00    +0.237 C 
ATOM      3  N   UNL     1      10.741   0.022  -6.355  0.00  0.00    -0.237 N 
ATOM      4  N   UNL     1      10.030  -0.097  -7.555  0.00  0.00    -0.169 NA
ATOM      5  C   UNL     1       9.782  -1.349  -7.838  0.00  0.00    +0.147 C 
ATOM      6  N   UNL     1      10.301  -2.206  -6.861  0.00  0.00    -0.282 N 
ATOM      7  H   UNL     1      11.039   0.844  -5.936  0.00  0.00    +0.171 HD
BRANCH   5   8
ATOM      8  C   UNL     1       9.086  -1.779  -8.978  0.00  0.00    +0.022 C 
ATOM      9  C   UNL     1       8.631  -0.991 -10.037  0.00  0.00    +0.006 A 
ATOM     10  C   UNL     1       8.712   0.393 -10.298  0.00  0.00    +0.010 A 
ATOM     11  C   UNL     1       8.169   0.897 -11.436  0.00  0.00    +0.001 A 
ATOM     12  C   UNL     1       7.525   0.076 -12.364  0.00  0.00    +0.002 A 
ATOM     13  C   UNL     1       7.410  -1.262 -12.178  0.00  0.00    +0.026 A 
ATOM     14  C   UNL     1       7.954  -1.861 -11.012  0.00  0.00    +0.043 A 
ATOM     15  N   UNL     1       7.975  -3.115 -10.604  0.00  0.00    -0.380 N 
ATOM     16  C   UNL     1       8.677  -3.195  -9.320  0.00  0.00    +0.152 C 
ATOM     17  H   UNL     1       7.591  -3.867 -11.082  0.00  0.00    +0.160 HD
ENDBRANCH   5   8
BRANCH   6  18
ATOM     18  C   UNL     1      10.220  -3.669  -6.842  0.00  0.00    +0.078 C 
ATOM     19  C   UNL     1      10.788  -4.392  -5.619  0.00  0.00    +0.024 C 
ATOM     20  C   UNL     1      11.530  -4.451  -6.956  0.00  0.00    +0.024 C 
ENDBRANCH   6  18
ENDBRANCH   1   2
BRANCH   1  21
ATOM     21  C   UNL     1       8.414  -1.123  -4.544  0.00  0.00    +0.168 C 
BRANCH  21  28
ATOM     22  N   UNL     1       3.561  -1.402  -3.450  0.00  0.00    -0.291 NA
ATOM     23  C   UNL     1       4.289  -1.968  -2.306  0.00  0.00    +0.104 C 
ATOM     24  C   UNL     1       5.524  -1.108  -2.015  0.00  0.00    +0.123 C 
ATOM     25  N   UNL     1       6.309  -0.984  -3.253  0.00  0.00    -0.298 N 
ATOM     26  C   UNL     1       5.616  -0.553  -4.476  0.00  0.00    +0.123 C 
ATOM     27  C   UNL     1       4.378  -1.435  -4.670  0.00  0.00    +0.104 C 
ATOM     28  C   UNL     1       7.629  -1.256  -3.265  0.00  0.00    +0.226 C 
ATOM     29  O   UNL     1       8.184  -1.610  -2.247  0.00  0.00    -0.275 OA
BRANCH  22  30
ATOM     30  C   UNL     1       2.282  -2.095  -3.653  0.00  0.00    +0.180 C 
BRANCH  30  32
ATOM     31  N   UNL     1       0.141  -2.372  -2.445  0.00  0.00    -0.310 N 
ATOM     32  C   UNL     1       1.376  -1.834  -2.477  0.00  0.00    +0.227 C 
ATOM     33  O   UNL     1       1.759  -1.139  -1.560  0.00  0.00    -0.274 OA
ATOM     34  H   UNL     1      -0.165  -2.928  -3.179  0.00  0.00    +0.149 HD
BRANCH  31  36
ATOM     35  C   UNL     1      -0.988  -0.614  -1.175  0.00  0.00    +0.031 C 
ATOM     36  C   UNL     1      -0.739  -2.118  -1.302  0.00  0.00    +0.026 C 
ATOM     37  C   UNL     1      -0.077  -2.636  -0.024  0.00  0.00    +0.031 C 
ATOM     38  C   UNL     1      -2.072  -2.840  -1.514  0.00  0.00    +0.031 C 
ENDBRANCH  31  36
ENDBRANCH  30  32
ENDBRANCH  22  30
ENDBRANCH  21  28
ENDBRANCH   1  21
TORSDOF 8
