REMARK  Name = ZINC40551165
REMARK  14 active torsions:
REMARK  status: ('A' for Active; 'I' for Inactive)
REMARK    1  A    between atoms: C_1  and  C_2
REMARK    2  A    between atoms: C_2  and  C_3
REMARK    3  A    between atoms: C_3  and  O_4
REMARK    4  A    between atoms: O_4  and  C_5
REMARK    5  A    between atoms: C_8  and  C_14
REMARK    6  A    between atoms: C_10  and  O_11
REMARK    7  A    between atoms: O_11  and  C_12
REMARK    8  A    between atoms: C_12  and  C_13
REMARK    9  A    between atoms: C_17  and  C_32
REMARK   10  A    between atoms: N_24  and  C_25
REMARK   11  A    between atoms: C_25  and  C_26
REMARK   12  A    between atoms: C_33  and  C_40
REMARK   13  A    between atoms: C_35  and  C_39
REMARK   14  A    between atoms: C_37  and  O_38
REMARK                            x       y       z     vdW  Elec       q    Type
REMARK                         _______ _______ _______ _____ _____    ______ ____
ROOT
ATOM      1  C   UNL     1       3.242  -4.522  -5.670  0.00  0.00    +0.141 C 
ATOM      2  C   UNL     1       4.730  -4.335  -5.558  0.00  0.00    +0.035 A 
ATOM      3  C   UNL     1       5.899  -4.590  -4.833  0.00  0.00    +0.102 A 
ATOM      4  N   UNL     1       6.895  -4.012  -5.475  0.00  0.00    -0.173 NA
ATOM      5  N   UNL     1       6.471  -3.417  -6.532  0.00  0.00    -0.272 N 
ATOM      6  H   UNL     1       7.028  -2.927  -7.157  0.00  0.00    +0.189 HD
ATOM      7  C   UNL     1       5.120  -3.579  -6.647  0.00  0.00    +0.126 A 
ATOM      8  C   UNL     1       3.932  -3.276  -7.453  0.00  0.00    +0.266 C 
ATOM      9  O   UNL     1       3.938  -2.626  -8.481  0.00  0.00    -0.268 OA
ATOM     10  N   UNL     1       2.834  -3.820  -6.894  0.00  0.00    -0.283 N 
ENDROOT
BRANCH   3  11
ATOM     11  C   UNL     1       6.000  -5.368  -3.573  0.00  0.00    +0.047 A 
ATOM     12  C   UNL     1       6.687  -4.845  -2.481  0.00  0.00    -0.037 A 
ATOM     13  C   UNL     1       6.778  -5.572  -1.311  0.00  0.00    +0.007 A 
ATOM     14  C   UNL     1       6.188  -6.821  -1.219  0.00  0.00    -0.047 A 
ATOM     15  C   UNL     1       5.504  -7.349  -2.297  0.00  0.00    +0.049 A 
ATOM     16  C   UNL     1       5.400  -6.627  -3.475  0.00  0.00    +0.127 A 
ATOM     17  C   UNL     1       6.292  -7.607   0.062  0.00  0.00    +0.044 C 
ATOM     18  C   UNL     1       7.332  -3.486  -2.576  0.00  0.00    +0.044 C 
BRANCH  16  19
ATOM     19  O   UNL     1       4.722  -7.143  -4.534  0.00  0.00    -0.506 OA
ATOM     20  H   UNL     1       5.251  -7.731  -5.090  0.00  0.00    +0.292 HD
ENDBRANCH  16  19
ENDBRANCH   3  11
BRANCH   1  24
ATOM     21  C   UNL     1       1.285  -2.809  -2.275  0.00  0.00    +0.162 A 
ATOM     22  C   UNL     1       2.107  -2.028  -3.072  0.00  0.00    +0.050 A 
ATOM     23  C   UNL     1       2.738  -2.585  -4.168  0.00  0.00    +0.009 A 
ATOM     24  C   UNL     1       2.551  -3.920  -4.473  0.00  0.00    -0.019 A 
ATOM     25  C   UNL     1       1.733  -4.705  -3.683  0.00  0.00    +0.055 A 
ATOM     26  C   UNL     1       1.102  -4.155  -2.579  0.00  0.00    +0.162 A 
BRANCH  21  27
ATOM     27  O   UNL     1       0.663  -2.264  -1.196  0.00  0.00    -0.488 OA
BRANCH  27  28
ATOM     28  C   UNL     1       0.898  -0.876  -0.945  0.00  0.00    +0.229 C 
BRANCH  28  30
ATOM     29  C   UNL     1       0.372   1.040   0.569  0.00  0.00    +0.007 C 
ATOM     30  C   UNL     1       0.121  -0.445   0.301  0.00  0.00    +0.038 C 
ENDBRANCH  28  30
ENDBRANCH  27  28
ENDBRANCH  21  27
BRANCH  26  31
ATOM     31  O   UNL     1       0.301  -4.927  -1.797  0.00  0.00    -0.489 OA
BRANCH  31  32
ATOM     32  C   UNL     1       0.159  -6.300  -2.169  0.00  0.00    +0.226 C 
ATOM     33  C   UNL     1      -0.772  -7.003  -1.179  0.00  0.00    +0.048 C 
ENDBRANCH  31  32
ENDBRANCH  26  31
ENDBRANCH   1  24
BRANCH  10  34
ATOM     34  C   UNL     1       1.468  -3.728  -7.417  0.00  0.00    +0.140 C 
BRANCH  34  35
ATOM     35  C   UNL     1       0.839  -2.407  -6.969  0.00  0.00    +0.136 C 
ATOM     36  C   UNL     1      -0.577  -2.253  -7.578  0.00  0.00    +0.035 C 
ATOM     37  C   UNL     1      -1.235  -1.290  -6.553  0.00  0.00    +0.031 C 
ATOM     38  C   UNL     1      -0.581  -1.727  -5.225  0.00  0.00    +0.160 C 
ATOM     39  O   UNL     1       0.640  -2.406  -5.546  0.00  0.00    -0.375 OA
ENDBRANCH  34  35
ENDBRANCH  10  34
TORSDOF 10
