REMARK  Name = ZINC13563869
REMARK  6 active torsions:
REMARK  status: ('A' for Active; 'I' for Inactive)
REMARK    1  A    between atoms: C_1  and  C_2
REMARK    2  A    between atoms: C_2  and  C_3
REMARK    3  A    between atoms: C_13  and  C_18
REMARK    4  A    between atoms: C_19  and  C_20
REMARK    5  A    between atoms: C_19  and  N_52
REMARK    6  A    between atoms: C_20  and  C_21
REMARK                            x       y       z     vdW  Elec       q    Type
REMARK                         _______ _______ _______ _____ _____    ______ ____
ROOT
ATOM      1  C   UNL     1      -0.181   0.159   0.137  0.00  0.00    +0.159 C 
ATOM      2  C   UNL     1      -1.552  -0.472   0.032  0.00  0.00    -0.033 C 
ATOM      3  C   UNL     1      -0.986  -2.706   0.818  0.00  0.00    -0.037 C 
ATOM      4  C   UNL     1       0.528  -2.708   0.735  0.00  0.00    -0.002 A 
ATOM      5  C   UNL     1       1.189  -3.855   0.418  0.00  0.00    +0.017 A 
ATOM      6  C   UNL     1       2.598  -3.816   0.380  0.00  0.00    +0.001 A 
ATOM      7  C   UNL     1       3.351  -4.958   0.068  0.00  0.00    +0.010 A 
ATOM      8  C   UNL     1       4.711  -4.885   0.054  0.00  0.00    +0.001 A 
ATOM      9  C   UNL     1       5.365  -3.688   0.343  0.00  0.00    +0.005 A 
ATOM     10  C   UNL     1       4.665  -2.561   0.645  0.00  0.00    -0.024 A 
ATOM     11  C   UNL     1       3.259  -2.597   0.669  0.00  0.00    +0.078 A 
ATOM     12  N   UNL     1       2.549  -1.502   0.960  0.00  0.00    -0.212 NA
ATOM     13  C   UNL     1       1.231  -1.530   0.992  0.00  0.00    +0.217 A 
ATOM     14  O   UNL     1       0.546  -0.382   1.246  0.00  0.00    -0.475 OA
ATOM     15  C   UNL     1       5.393  -1.278   0.953  0.00  0.00    +0.046 C 
ATOM     16  N   UNL     1      -1.502  -1.907  -0.319  0.00  0.00    +0.385 N 
ATOM     17  H   UNL     1      -0.871  -2.029  -1.120  0.00  0.00    -0.081 HD
ENDROOT
BRANCH   1  19
ATOM     18  C   UNL     1       1.046   2.329   0.308  0.00  0.00    +0.007 C 
ATOM     19  C   UNL     1      -0.335   1.669   0.326  0.00  0.00    +0.039 C 
ENDBRANCH   1  19
BRANCH  16  20
ATOM     20  C   UNL     1      -2.845  -2.376  -0.696  0.00  0.00    -0.074 C 
BRANCH  20  21
ATOM     21  C   UNL     1      -3.813  -2.276   0.485  0.00  0.00    +0.016 C 
BRANCH  21  22
ATOM     22  C   UNL     1      -5.162  -2.808   0.076  0.00  0.00    -0.049 A 
ATOM     23  C   UNL     1      -6.106  -1.955  -0.464  0.00  0.00    +0.003 A 
ATOM     24  C   UNL     1      -7.342  -2.444  -0.844  0.00  0.00    +0.000 A 
ATOM     25  C   UNL     1      -7.637  -3.784  -0.674  0.00  0.00    +0.000 A 
ATOM     26  C   UNL     1      -6.695  -4.636  -0.129  0.00  0.00    +0.000 A 
ATOM     27  C   UNL     1      -5.457  -4.148   0.246  0.00  0.00    +0.003 A 
ENDBRANCH  21  22
ENDBRANCH  20  21
ENDBRANCH  16  20
TORSDOF 4
