REMARK  Name = ZINC39710412
REMARK  11 active torsions:
REMARK  status: ('A' for Active; 'I' for Inactive)
REMARK    1  A    between atoms: C_1  and  C_2
REMARK    2  A    between atoms: C_2  and  C_3
REMARK    3  A    between atoms: C_10  and  C_15
REMARK    4  A    between atoms: C_15  and  C_17
REMARK    5  A    between atoms: C_15  and  N_26
REMARK    6  A    between atoms: N_21  and  C_22
REMARK    7  A    between atoms: C_22  and  C_23
REMARK    8  A    between atoms: C_23  and  O_24
REMARK    9  A    between atoms: O_24  and  C_25
REMARK   10  A    between atoms: N_29  and  C_32
REMARK   11  A    between atoms: C_37  and  C_38
REMARK                            x       y       z     vdW  Elec       q    Type
REMARK                         _______ _______ _______ _____ _____    ______ ____
ROOT
ATOM      1  C   UNL     1       5.634  -3.668  -3.462  0.00  0.00    +0.142 C 
ENDROOT
BRANCH   1   9
ATOM      2  C   UNL     1       8.601   1.309  -4.147  0.00  0.00    -0.047 A 
ATOM      3  C   UNL     1       7.725   2.002  -3.311  0.00  0.00    +0.005 A 
ATOM      4  C   UNL     1       6.534   1.488  -2.908  0.00  0.00    +0.024 A 
ATOM      5  C   UNL     1       6.130   0.207  -3.330  0.00  0.00    +0.040 A 
ATOM      6  N   UNL     1       4.959  -0.288  -2.929  0.00  0.00    -0.284 N 
ATOM      7  C   UNL     1       4.520  -1.483  -3.287  0.00  0.00    +0.226 C 
ATOM      8  O   UNL     1       3.442  -1.881  -2.889  0.00  0.00    -0.275 OA
ATOM      9  C   UNL     1       5.363  -2.352  -4.193  0.00  0.00    +0.123 C 
ATOM     10  C   UNL     1       6.696  -1.793  -4.652  0.00  0.00    -0.003 C 
ATOM     11  C   UNL     1       7.036  -0.548  -4.213  0.00  0.00    -0.007 A 
ATOM     12  C   UNL     1       8.302   0.069  -4.612  0.00  0.00    +0.013 A 
ATOM     13  H   UNL     1       4.403   0.254  -2.348  0.00  0.00    +0.155 HD
BRANCH   2  15
ATOM     14  C   UNL     1       9.701   2.757  -5.832  0.00  0.00    +0.009 C 
ATOM     15  C   UNL     1       9.903   1.953  -4.546  0.00  0.00    +0.032 C 
ENDBRANCH   2  15
ENDBRANCH   1   9
BRANCH   1  16
ATOM     16  N   UNL     1       6.550  -4.493  -4.260  0.00  0.00    -0.289 NA
ATOM     17  C   UNL     1       5.941  -4.864  -5.545  0.00  0.00    +0.104 C 
ATOM     18  C   UNL     1       6.987  -5.564  -6.419  0.00  0.00    +0.120 C 
ATOM     19  N   UNL     1       7.560  -6.683  -5.655  0.00  0.00    -0.327 N 
ATOM     20  C   UNL     1       8.067  -6.415  -4.301  0.00  0.00    +0.120 C 
ATOM     21  C   UNL     1       6.979  -5.681  -3.510  0.00  0.00    +0.104 C 
BRANCH  19  22
ATOM     22  C   UNL     1       7.620  -7.967  -6.202  0.00  0.00    +0.034 A 
ATOM     23  C   UNL     1       8.738  -8.364  -6.925  0.00  0.00    +0.043 A 
ATOM     24  C   UNL     1       8.794  -9.635  -7.465  0.00  0.00    +0.043 A 
ATOM     25  C   UNL     1       7.738 -10.512  -7.285  0.00  0.00    +0.020 A 
ATOM     26  C   UNL     1       6.625 -10.119  -6.566  0.00  0.00    +0.006 A 
ATOM     27  C   UNL     1       6.565  -8.852  -6.019  0.00  0.00    -0.029 A 
ATOM     28  C   UNL     1       5.353  -8.427  -5.230  0.00  0.00    +0.045 C 
ATOM     29 CL   UNL     1      10.191 -10.133  -8.369  0.00  0.00    -0.083 Cl
ENDBRANCH  19  22
ENDBRANCH   1  16
BRANCH   1  30
ATOM     30  C   UNL     1       4.336  -4.408  -3.264  0.00  0.00    +0.170 A 
ATOM     31  N   UNL     1       3.530  -4.841  -4.203  0.00  0.00    -0.112 NA
ATOM     32  N   UNL     1       2.531  -5.422  -3.633  0.00  0.00    -0.023 NA
ATOM     33  N   UNL     1       2.679  -5.372  -2.355  0.00  0.00    -0.044 NA
ATOM     34  N   UNL     1       3.782  -4.759  -2.088  0.00  0.00    -0.225 N 
BRANCH  34  35
ATOM     35  C   UNL     1       4.328  -4.492  -0.755  0.00  0.00    +0.175 C 
BRANCH  35  36
ATOM     36  C   UNL     1       3.688  -3.225  -0.186  0.00  0.00    +0.183 C 
BRANCH  36  37
ATOM     37  O   UNL     1       4.307  -2.897   1.060  0.00  0.00    -0.381 OA
ATOM     38  C   UNL     1       3.780  -1.722   1.679  0.00  0.00    +0.194 C 
ENDBRANCH  36  37
ENDBRANCH  35  36
ENDBRANCH  34  35
ENDBRANCH   1  30
TORSDOF 8
