REMARK  Name = ZINC39662928
REMARK  7 active torsions:
REMARK  status: ('A' for Active; 'I' for Inactive)
REMARK    1  A    between atoms: C_1  and  O_2
REMARK    2  A    between atoms: O_2  and  C_3
REMARK    3  A    between atoms: C_5  and  C_11
REMARK    4  A    between atoms: C_7  and  O_9
REMARK    5  A    between atoms: O_9  and  C_10
REMARK    6  A    between atoms: C_15  and  C_24
REMARK    7  A    between atoms: N_26  and  C_27
REMARK                            x       y       z     vdW  Elec       q    Type
REMARK                         _______ _______ _______ _____ _____    ______ ____
ROOT
ATOM      1  C   UNL     1       1.331  -4.081  -2.296  0.00  0.00    +0.247 C 
ATOM      2  O   UNL     1       0.932  -4.755  -1.367  0.00  0.00    -0.270 OA
ATOM      3  N   UNL     1       1.839  -4.677  -3.393  0.00  0.00    -0.296 N 
ATOM      4  C   UNL     1       2.485  -4.032  -4.560  0.00  0.00    +0.121 C 
ATOM      5  C   UNL     1       3.658  -4.970  -4.924  0.00  0.00    +0.100 C 
ATOM      6  C   UNL     1       3.253  -6.342  -4.361  0.00  0.00    -0.004 C 
ATOM      7  C   UNL     1       1.883  -6.127  -3.701  0.00  0.00    +0.115 C 
ATOM      8  C   UNL     1       3.142  -7.364  -5.488  0.00  0.00    -0.010 C 
ATOM      9  C   UNL     1       2.794  -8.734  -4.897  0.00  0.00    -0.082 C 
ATOM     10  N   UNL     1       3.837  -9.137  -3.946  0.00  0.00    +0.379 N 
ATOM     11  C   UNL     1       3.873  -8.199  -2.817  0.00  0.00    -0.082 C 
ATOM     12  C   UNL     1       4.267  -6.807  -3.320  0.00  0.00    -0.010 C 
ATOM     13  H   UNL     1       3.637 -10.065  -3.604  0.00  0.00    -0.086 HD
ATOM     14  H   UNL     1       4.732  -9.137  -4.410  0.00  0.00    -0.086 HD
ENDROOT
BRANCH   1  17
ATOM     15  C   UNL     1       1.145  -0.467  -3.321  0.00  0.00    +0.124 A 
ATOM     16  C   UNL     1       1.213  -1.849  -3.394  0.00  0.00    +0.059 A 
ATOM     17  C   UNL     1       1.258  -2.606  -2.223  0.00  0.00    +0.044 A 
ATOM     18  C   UNL     1       1.235  -1.967  -0.983  0.00  0.00    +0.059 A 
ATOM     19  C   UNL     1       1.166  -0.585  -0.919  0.00  0.00    +0.124 A 
ATOM     20  C   UNL     1       1.127   0.164  -2.086  0.00  0.00    +0.091 A 
BRANCH  15  22
ATOM     21  C   UNL     1       1.037   1.691  -4.313  0.00  0.00    +0.277 C 
ATOM     22  O   UNL     1       1.100   0.271  -4.462  0.00  0.00    -0.495 OA
ENDBRANCH  15  22
BRANCH  19  23
ATOM     23  O   UNL     1       1.143   0.038   0.288  0.00  0.00    -0.495 OA
ATOM     24  C   UNL     1       1.072   1.466   0.281  0.00  0.00    +0.277 C 
ENDBRANCH  19  23
ENDBRANCH   1  17
BRANCH   5  25
ATOM     25  C   UNL     1       3.827  -5.043  -6.419  0.00  0.00    +0.218 C 
ATOM     26  O   UNL     1       2.884  -4.818  -7.148  0.00  0.00    -0.275 OA
ATOM     27  N   UNL     1       5.027  -5.357  -6.947  0.00  0.00    -0.314 N 
ATOM     28  H   UNL     1       5.781  -5.536  -6.365  0.00  0.00    +0.149 HD
BRANCH  27  29
ATOM     29  C   UNL     1       5.191  -5.428  -8.401  0.00  0.00    +0.059 C 
ATOM     30  C   UNL     1       5.487  -4.031  -8.953  0.00  0.00    -0.056 C 
ATOM     31  N   UNL     1       6.789  -4.022  -9.625  0.00  0.00    +0.381 N 
ATOM     32  C   UNL     1       7.858  -4.357  -8.682  0.00  0.00    -0.078 C 
ATOM     33  C   UNL     1       7.641  -5.765  -8.121  0.00  0.00    -0.014 C 
ATOM     34  C   UNL     1       6.365  -6.356  -8.742  0.00  0.00    +0.004 C 
ATOM     35  C   UNL     1       6.536  -6.381 -10.266  0.00  0.00    -0.014 C 
ATOM     36  C   UNL     1       6.790  -4.951 -10.758  0.00  0.00    -0.078 C 
ATOM     37  H   UNL     1       6.961  -3.092  -9.975  0.00  0.00    -0.082 HD
ENDBRANCH  27  29
ENDBRANCH   5  25
TORSDOF 5
