REMARK  Name = ZINC39677917
REMARK  9 active torsions:
REMARK  status: ('A' for Active; 'I' for Inactive)
REMARK    1  A    between atoms: C_1  and  C_2
REMARK    2  A    between atoms: C_2  and  C_3
REMARK    3  A    between atoms: C_3  and  C_5
REMARK    4  A    between atoms: C_3  and  C_11
REMARK    5  A    between atoms: C_15  and  C_24
REMARK    6  A    between atoms: N_26  and  C_27
REMARK    7  A    between atoms: C_27  and  C_28
REMARK    8  A    between atoms: N_31  and  C_35
REMARK    9  A    between atoms: C_35  and  C_36
REMARK                            x       y       z     vdW  Elec       q    Type
REMARK                         _______ _______ _______ _____ _____    ______ ____
ROOT
ATOM      1  C   UNL     1       1.925  -0.001  -1.266  0.00  0.00    +0.223 C 
ATOM      2  O   UNL     1       2.809  -0.797  -1.501  0.00  0.00    -0.275 OA
ATOM      3  N   UNL     1       2.219   1.306  -1.114  0.00  0.00    -0.300 N 
ATOM      4  C   UNL     1       1.276   2.431  -0.913  0.00  0.00    +0.121 C 
ATOM      5  C   UNL     1       1.972   3.344   0.121  0.00  0.00    +0.100 C 
ATOM      6  C   UNL     1       3.469   3.020  -0.014  0.00  0.00    -0.004 C 
ATOM      7  C   UNL     1       3.558   1.942  -1.103  0.00  0.00    +0.115 C 
ATOM      8  C   UNL     1       4.013   2.477   1.304  0.00  0.00    -0.010 C 
ATOM      9  C   UNL     1       5.515   2.216   1.162  0.00  0.00    -0.082 C 
ATOM     10  N   UNL     1       6.199   3.464   0.804  0.00  0.00    +0.379 N 
ATOM     11  C   UNL     1       5.736   3.931  -0.508  0.00  0.00    -0.082 C 
ATOM     12  C   UNL     1       4.243   4.265  -0.436  0.00  0.00    -0.010 C 
ATOM     13  H   UNL     1       5.998   4.167   1.500  0.00  0.00    -0.086 HD
ATOM     14  H   UNL     1       7.194   3.304   0.771  0.00  0.00    -0.086 HD
ENDROOT
BRANCH   5  15
ATOM     15  C   UNL     1       1.715   4.794  -0.201  0.00  0.00    +0.218 C 
ATOM     16  O   UNL     1       1.507   5.132  -1.347  0.00  0.00    -0.275 OA
ATOM     17  N   UNL     1       1.717   5.714   0.783  0.00  0.00    -0.313 N 
ATOM     18  H   UNL     1       1.883   5.443   1.700  0.00  0.00    +0.149 HD
BRANCH  17  19
ATOM     19  C   UNL     1       1.467   7.123   0.470  0.00  0.00    +0.137 C 
BRANCH  19  20
ATOM     20  C   UNL     1       1.525   7.950   1.756  0.00  0.00    +0.149 C 
ATOM     21  C   UNL     1       1.144   9.400   1.448  0.00  0.00    +0.118 C 
ATOM     22  N   UNL     1       1.275  10.206   2.671  0.00  0.00    -0.293 NA
ATOM     23  C   UNL     1       2.649  10.144   3.190  0.00  0.00    +0.113 C 
ATOM     24  C   UNL     1       3.015   8.686   3.480  0.00  0.00    +0.175 C 
ATOM     25  O   UNL     1       2.851   7.912   2.289  0.00  0.00    -0.372 OA
BRANCH  22  26
ATOM     26  C   UNL     1       0.864  11.596   2.433  0.00  0.00    +0.119 C 
BRANCH  26  27
ATOM     27  C   UNL     1       0.776  12.326   3.748  0.00  0.00    -0.033 A 
ATOM     28  C   UNL     1      -0.411  12.334   4.457  0.00  0.00    +0.005 A 
ATOM     29  C   UNL     1      -0.491  13.004   5.663  0.00  0.00    +0.000 A 
ATOM     30  C   UNL     1       0.615  13.666   6.161  0.00  0.00    +0.000 A 
ATOM     31  C   UNL     1       1.803  13.657   5.454  0.00  0.00    +0.000 A 
ATOM     32  C   UNL     1       1.884  12.983   4.249  0.00  0.00    +0.005 A 
ENDBRANCH  26  27
ENDBRANCH  22  26
ENDBRANCH  19  20
ENDBRANCH  17  19
ENDBRANCH   5  15
BRANCH   1  33
ATOM     33  C   UNL     1       0.499  -0.472  -1.144  0.00  0.00    +0.105 C 
BRANCH  33  34
ATOM     34  C   UNL     1      -0.140  -0.495  -2.509  0.00  0.00    -0.036 A 
ATOM     35  C   UNL     1       0.387  -1.295  -3.506  0.00  0.00    +0.004 A 
ATOM     36  C   UNL     1      -0.199  -1.317  -4.757  0.00  0.00    +0.000 A 
ATOM     37  C   UNL     1      -1.313  -0.539  -5.012  0.00  0.00    +0.000 A 
ATOM     38  C   UNL     1      -1.841   0.260  -4.015  0.00  0.00    +0.000 A 
ATOM     39  C   UNL     1      -1.257   0.279  -2.762  0.00  0.00    +0.004 A 
ENDBRANCH  33  34
BRANCH  33  41
ATOM     40  C   UNL     1       0.995  -1.831   0.892  0.00  0.00    +0.005 C 
ATOM     41  C   UNL     1       0.476  -1.880  -0.546  0.00  0.00    +0.014 C 
ENDBRANCH  33  41
ENDBRANCH   1  33
TORSDOF 8
