REMARK  Name = ZINC39469773
REMARK  8 active torsions:
REMARK  status: ('A' for Active; 'I' for Inactive)
REMARK    1  A    between atoms: C_1  and  C_2
REMARK    2  A    between atoms: C_2  and  O_3
REMARK    3  A    between atoms: O_3  and  C_4
REMARK    4  A    between atoms: P_13  and  S_24
REMARK    5  A    between atoms: C_21  and  S_22
REMARK    6  A    between atoms: S_22  and  C_23
REMARK    7  A    between atoms: S_24  and  O_27
REMARK    8  A    between atoms: O_27  and  C_28
REMARK                            x       y       z     vdW  Elec       q    Type
REMARK                         _______ _______ _______ _____ _____    ______ ____
ROOT
ATOM      1  C   UNL     1       0.777  -1.810  -1.336  0.00  0.00    +0.130 C 
ATOM      2  C   UNL     1       0.265  -2.638  -0.425  0.00  0.00    +0.024 C 
ATOM      3  C   UNL     1       0.375  -4.127  -0.618  0.00  0.00    +0.019 C 
ATOM      4  C   UNL     1      -0.739  -4.841   0.135  0.00  0.00    -0.002 C 
ATOM      5  C   UNL     1      -1.069  -6.192  -0.515  0.00  0.00    -0.020 C 
ATOM      6  C   UNL     1      -1.596  -7.080   0.622  0.00  0.00    +0.158 C 
ATOM      7  O   UNL     1      -1.965  -8.373   0.118  0.00  0.00    -0.301 OA
ATOM      8  P   UNL     1      -0.868  -9.160  -0.791  0.00  0.00    +0.431 P 
ATOM      9  O   UNL     1      -1.532 -10.183  -1.630  0.00  0.00    -0.246 OA
ATOM     10  N   UNL     1      -0.191  -7.993  -1.738  0.00  0.00    -0.271 NA
ATOM     11  N   UNL     1       0.102  -6.774  -1.159  0.00  0.00    +0.398 N 
ATOM     12  C   UNL     1       0.580  -5.958  -2.286  0.00  0.00    -0.046 C 
ATOM     13  C   UNL     1       0.256  -4.469  -2.101  0.00  0.00    +0.006 C 
ATOM     14  C   UNL     1       1.215  -3.626  -2.898  0.00  0.00    -0.006 C 
ATOM     15  C   UNL     1       1.456  -2.365  -2.528  0.00  0.00    +0.045 C 
ATOM     16  H   UNL     1       0.001  -8.164  -2.673  0.00  0.00    +0.113 HD
ATOM     17  H   UNL     1       0.841  -6.881  -0.482  0.00  0.00    -0.055 HD
ENDROOT
BRANCH   8  18
ATOM     18  S   UNL     1       0.603 -10.060   0.442  0.00  0.00    +0.209 S 
ATOM     19  O   UNL     1       1.429 -10.838  -0.413  0.00  0.00    -0.126 OA
ATOM     20  O   UNL     1       1.122  -9.031   1.273  0.00  0.00    -0.126 OA
BRANCH  18  21
ATOM     21  O   UNL     1      -0.117 -11.038   1.360  0.00  0.00    -0.339 OA
BRANCH  21  22
ATOM     22  C   UNL     1      -0.511 -12.185   0.746  0.00  0.00    +0.157 A 
ATOM     23  C   UNL     1      -1.760 -12.259   0.147  0.00  0.00    +0.048 A 
ATOM     24  C   UNL     1      -2.158 -13.425  -0.477  0.00  0.00    +0.004 A 
ATOM     25  C   UNL     1      -1.312 -14.519  -0.505  0.00  0.00    +0.000 A 
ATOM     26  C   UNL     1      -0.067 -14.448   0.091  0.00  0.00    +0.004 A 
ATOM     27  C   UNL     1       0.338 -13.282   0.711  0.00  0.00    +0.048 A 
ENDBRANCH  21  22
ENDBRANCH  18  21
ENDBRANCH   8  18
BRANCH  15  28
ATOM     28  S   UNL     1       2.580  -1.372  -3.451  0.00  0.00    -0.125 S 
ATOM     29  C   UNL     1       3.140  -2.467  -4.785  0.00  0.00    +0.090 C 
ENDBRANCH  15  28
BRANCH   1  30
ATOM     30  O   UNL     1       0.671  -0.465  -1.174  0.00  0.00    -0.491 OA
BRANCH  30  32
ATOM     31  C   UNL     1      -0.019   1.526   0.010  0.00  0.00    +0.048 C 
ATOM     32  C   UNL     1       0.002  -0.004   0.002  0.00  0.00    +0.226 C 
ENDBRANCH  30  32
ENDBRANCH   1  30
TORSDOF 6
