REMARK  Name = ZINC49453137
REMARK  5 active torsions:
REMARK  status: ('A' for Active; 'I' for Inactive)
REMARK    1  A    between atoms: C_1  and  C_2
REMARK    2  A    between atoms: C_2  and  C_3
REMARK    3  A    between atoms: C_2  and  O_4
REMARK    4  A    between atoms: O_4  and  C_5
REMARK    5  A    between atoms: C_5  and  C_7
REMARK                            x       y       z     vdW  Elec       q    Type
REMARK                         _______ _______ _______ _____ _____    ______ ____
ROOT
ATOM      1  C   UNL     1       0.600  -1.186   3.497  0.00  0.00    +0.061 A 
ATOM      2  C   UNL     1       1.979  -1.416   3.520  0.00  0.00    +0.016 A 
ATOM      3  C   UNL     1       2.575  -1.871   4.675  0.00  0.00    +0.018 A 
ATOM      4  C   UNL     1       1.812  -2.103   5.816  0.00  0.00    +0.034 A 
ATOM      5  C   UNL     1       0.436  -1.880   5.805  0.00  0.00    +0.048 A 
ATOM      6  C   UNL     1      -0.164  -1.414   4.644  0.00  0.00    +0.039 A 
ATOM      7  N   UNL     1      -0.363  -2.106   6.918  0.00  0.00    -0.280 N 
ATOM      8  C   UNL     1      -0.182  -1.787   8.172  0.00  0.00    +0.249 C 
ATOM      9  O   UNL     1      -1.081  -2.102   8.927  0.00  0.00    -0.270 OA
ATOM     10  C   UNL     1       0.951  -1.102   8.792  0.00  0.00    +0.051 A 
ATOM     11  C   UNL     1       0.712  -0.101   9.743  0.00  0.00    +0.014 A 
ATOM     12  C   UNL     1       1.766   0.559  10.334  0.00  0.00    +0.001 A 
ATOM     13  C   UNL     1       3.072   0.241   9.997  0.00  0.00    +0.001 A 
ATOM     14  C   UNL     1       3.326  -0.745   9.065  0.00  0.00    +0.016 A 
ATOM     15  C   UNL     1       2.274  -1.420   8.461  0.00  0.00    +0.025 A 
ATOM     16  S   UNL     1       2.606  -2.683   7.279  0.00  0.00    -0.087 S 
ATOM     17  H   UNL     1      -1.189  -2.579   6.735  0.00  0.00    +0.155 HD
ENDROOT
BRANCH   1  18
ATOM     18  C   UNL     1      -0.045  -0.698   2.266  0.00  0.00    +0.339 C 
ATOM     19  O   UNL     1      -1.243  -0.493   2.247  0.00  0.00    -0.245 OA
BRANCH  18  20
ATOM     20  O   UNL     1       0.693  -0.477   1.160  0.00  0.00    -0.458 OA
BRANCH  20  22
ATOM     21  C   UNL     1      -0.019   1.526   0.010  0.00  0.00    +0.052 C 
ATOM     22  C   UNL     1       0.002  -0.004   0.002  0.00  0.00    +0.171 C 
ATOM     23  C   UNL     1       0.718  -0.497  -1.257  0.00  0.00    +0.052 C 
ENDBRANCH  20  22
ENDBRANCH  18  20
ENDBRANCH   1  18
TORSDOF 3
