REMARK  Name = ZINC36040322
REMARK  11 active torsions:
REMARK  status: ('A' for Active; 'I' for Inactive)
REMARK    1  A    between atoms: C_1  and  C_2
REMARK    2  A    between atoms: C_2  and  C_3
REMARK    3  A    between atoms: C_2  and  C_4
REMARK    4  A    between atoms: C_2  and  C_5
REMARK    5  A    between atoms: C_8  and  C_11
REMARK    6  A    between atoms: C_14  and  C_16
REMARK    7  A    between atoms: N_18  and  N_19
REMARK    8  A    between atoms: C_20  and  C_21
REMARK    9  A    between atoms: C_23  and  O_29
REMARK   10  A    between atoms: C_24  and  O_28
REMARK   11  A    between atoms: O_29  and  C_30
REMARK                            x       y       z     vdW  Elec       q    Type
REMARK                         _______ _______ _______ _____ _____    ______ ____
ROOT
ATOM      1  C   UNL     1       2.621  -0.868  -7.279  0.00  0.00    +0.236 C 
ATOM      2  O   UNL     1       2.631  -2.059  -7.514  0.00  0.00    -0.274 OA
ATOM      3  N   UNL     1       3.035   0.007  -8.217  0.00  0.00    -0.207 N 
ATOM      4  H   UNL     1       3.027   0.959  -8.029  0.00  0.00    +0.177 HD
ENDROOT
BRANCH   1   7
ATOM      5  C   UNL     1       1.688  -1.412  -4.918  0.00  0.00    +0.032 C 
ATOM      6  C   UNL     1       3.016  -0.679  -4.720  0.00  0.00    +0.022 C 
ATOM      7  C   UNL     1       2.145  -0.369  -5.940  0.00  0.00    +0.085 C 
BRANCH   5  11
ATOM      8  C   UNL     1      -1.550  -0.362  -2.337  0.00  0.00    -0.042 A 
ATOM      9  C   UNL     1      -1.664  -1.450  -3.182  0.00  0.00    +0.004 A 
ATOM     10  C   UNL     1      -0.617  -1.790  -4.018  0.00  0.00    +0.004 A 
ATOM     11  C   UNL     1       0.546  -1.041  -4.008  0.00  0.00    -0.044 A 
ATOM     12  C   UNL     1       0.660   0.047  -3.164  0.00  0.00    +0.004 A 
ATOM     13  C   UNL     1      -0.389   0.390  -2.332  0.00  0.00    +0.004 A 
BRANCH   8  15
ATOM     14  C   UNL     1      -3.167   1.425  -1.755  0.00  0.00    +0.015 C 
ATOM     15  C   UNL     1      -2.692   0.009  -1.427  0.00  0.00    -0.013 C 
ATOM     16  C   UNL     1      -2.222  -0.047   0.029  0.00  0.00    +0.015 C 
ATOM     17  C   UNL     1      -3.845  -0.976  -1.628  0.00  0.00    +0.015 C 
ENDBRANCH   8  15
ENDBRANCH   5  11
ENDBRANCH   1   7
BRANCH   3  18
ATOM     18  N   UNL     1       3.478  -0.457  -9.462  0.00  0.00    -0.188 NA
ATOM     19  C   UNL     1       3.987   0.372 -10.320  0.00  0.00    +0.138 C 
BRANCH  19  20
ATOM     20  C   UNL     1       4.539   1.660  -9.863  0.00  0.00    -0.001 A 
ATOM     21  C   UNL     1       4.821   2.670 -10.787  0.00  0.00    +0.059 A 
ATOM     22  C   UNL     1       5.338   3.876 -10.353  0.00  0.00    +0.163 A 
ATOM     23  C   UNL     1       5.578   4.083  -8.996  0.00  0.00    +0.172 A 
ATOM     24  C   UNL     1       5.299   3.081  -8.078  0.00  0.00    +0.059 A 
ATOM     25  C   UNL     1       4.776   1.877  -8.503  0.00  0.00    +0.027 A 
ATOM     26  I   UNL     1       5.664   3.400  -6.040  0.00  0.00    -0.040 I 
BRANCH  23  27
ATOM     27  O   UNL     1       6.088   5.269  -8.571  0.00  0.00    -0.503 OA
ATOM     28  H   UNL     1       5.416   5.929  -8.351  0.00  0.00    +0.292 HD
ENDBRANCH  23  27
BRANCH  22  29
ATOM     29  O   UNL     1       5.613   4.860 -11.250  0.00  0.00    -0.491 OA
ATOM     30  C   UNL     1       5.343   4.579 -12.625  0.00  0.00    +0.277 C 
ENDBRANCH  22  29
ENDBRANCH  19  20
ENDBRANCH   3  18
TORSDOF 7
