REMARK  Name = ZINC06149288
REMARK  9 active torsions:
REMARK  status: ('A' for Active; 'I' for Inactive)
REMARK    1  A    between atoms: C_1  and  C_2
REMARK    2  A    between atoms: C_2  and  C_3
REMARK    3  A    between atoms: C_3  and  C_4
REMARK    4  A    between atoms: C_3  and  C_5
REMARK    5  A    between atoms: C_3  and  N_6
REMARK    6  A    between atoms: C_7  and  C_11
REMARK    7  A    between atoms: C_11  and  C_13
REMARK    8  A    between atoms: C_11  and  N_63
REMARK    9  A    between atoms: C_18  and  C_25
REMARK                            x       y       z     vdW  Elec       q    Type
REMARK                         _______ _______ _______ _____ _____    ______ ____
ROOT
ATOM      1  C   UNL     1      -5.046   0.993   0.095  0.00  0.00    +0.039 C 
ENDROOT
BRANCH   1   2
ATOM      2  C   UNL     1      -3.843   1.883   0.265  0.00  0.00    +0.011 A 
ATOM      3  C   UNL     1      -2.599   1.345   0.267  0.00  0.00    +0.017 A 
ATOM      4  C   UNL     1      -1.450   2.238   0.429  0.00  0.00    -0.001 A 
ATOM      5  C   UNL     1      -0.143   1.740   0.445  0.00  0.00    +0.010 A 
ATOM      6  C   UNL     1       0.907   2.600   0.602  0.00  0.00    +0.004 A 
ATOM      7  C   UNL     1       0.688   3.962   0.753  0.00  0.00    -0.048 A 
ATOM      8  C   UNL     1      -0.591   4.474   0.746  0.00  0.00    +0.029 A 
ATOM      9  C   UNL     1      -1.676   3.618   0.587  0.00  0.00    +0.049 A 
ATOM     10  N   UNL     1      -2.967   4.103   0.575  0.00  0.00    -0.322 N 
ATOM     11  H   UNL     1      -3.125   5.085   0.684  0.00  0.00    +0.169 HD
ATOM     12  C   UNL     1      -4.015   3.276   0.421  0.00  0.00    +0.251 A 
ATOM     13  O   UNL     1      -5.142   3.739   0.416  0.00  0.00    -0.268 OA
ATOM     14  C   UNL     1       1.862   4.892   0.925  0.00  0.00    +0.044 C 
ENDBRANCH   1   2
BRANCH   1  24
ATOM     15  C   UNL     1      -5.370   0.774   2.487  0.00  0.00    -0.072 C 
ATOM     16  C   UNL     1      -6.203   1.343   3.636  0.00  0.00    +0.017 C 
ATOM     17  C   UNL     1      -7.661   1.029   3.418  0.00  0.00    -0.048 A 
ATOM     18  C   UNL     1      -8.529   1.141   4.494  0.00  0.00    +0.004 A 
ATOM     19  C   UNL     1      -9.873   0.867   4.338  0.00  0.00    +0.000 A 
ATOM     20  C   UNL     1     -10.356   0.479   3.102  0.00  0.00    +0.000 A 
ATOM     21  C   UNL     1      -9.493   0.365   2.031  0.00  0.00    +0.002 A 
ATOM     22  C   UNL     1      -8.142   0.639   2.187  0.00  0.00    -0.061 A 
ATOM     23  C   UNL     1      -7.239   0.497   0.990  0.00  0.00    -0.041 C 
ATOM     24  N   UNL     1      -5.980   1.226   1.220  0.00  0.00    +0.392 N 
ATOM     25  H   UNL     1      -6.181   2.231   1.284  0.00  0.00    -0.080 HD
ENDBRANCH   1  24
BRANCH   1  27
ATOM     26  N   UNL     1      -5.795   0.558  -2.304  0.00  0.00    -0.225 N 
ATOM     27  C   UNL     1      -5.740   1.327  -1.201  0.00  0.00    +0.143 A 
ATOM     28  N   UNL     1      -6.402   2.425  -1.474  0.00  0.00    -0.115 NA
ATOM     29  N   UNL     1      -6.845   2.333  -2.680  0.00  0.00    -0.023 NA
ATOM     30  N   UNL     1      -6.483   1.205  -3.184  0.00  0.00    -0.043 NA
BRANCH  26  31
ATOM     31  C   UNL     1      -5.191  -0.766  -2.474  0.00  0.00    +0.061 C 
ATOM     32  C   UNL     1      -3.685  -0.676  -2.218  0.00  0.00    +0.036 C 
ATOM     33  C   UNL     1      -5.819  -1.744  -1.479  0.00  0.00    +0.036 C 
BRANCH  31  35
ATOM     34  C   UNL     1      -4.806  -2.643  -4.077  0.00  0.00    +0.006 C 
ATOM     35  C   UNL     1      -5.438  -1.260  -3.900  0.00  0.00    +0.026 C 
ENDBRANCH  31  35
ENDBRANCH  26  31
ENDBRANCH   1  27
TORSDOF 5
