REMARK  Name = ZINC26209781
REMARK  9 active torsions:
REMARK  status: ('A' for Active; 'I' for Inactive)
REMARK    1  A    between atoms: C_1  and  C_2
REMARK    2  A    between atoms: C_15  and  C_17
REMARK    3  A    between atoms: C_17  and  N_18
REMARK    4  A    between atoms: N_18  and  C_19
REMARK    5  A    between atoms: N_18  and  C_20
REMARK    6  A    between atoms: C_20  and  C_21
REMARK    7  A    between atoms: C_24  and  C_27
REMARK    8  A    between atoms: C_27  and  O_29
REMARK    9  A    between atoms: O_29  and  C_30
REMARK                            x       y       z     vdW  Elec       q    Type
REMARK                         _______ _______ _______ _____ _____    ______ ____
ROOT
ATOM      1  C   UNL     1      -2.960   4.210   2.303  0.00  0.00    +0.029 C 
ATOM      2  C   UNL     1      -1.545   3.761   2.671  0.00  0.00    +0.087 C 
ATOM      3  C   UNL     1      -0.774   4.944   3.260  0.00  0.00    +0.118 C 
ATOM      4  C   UNL     1       0.703   4.653   3.262  0.00  0.00    +0.219 C 
ATOM      5  O   UNL     1       1.258   4.365   4.301  0.00  0.00    -0.275 OA
ATOM      6  N   UNL     1       1.414   4.709   2.114  0.00  0.00    -0.284 N 
ATOM      7  C   UNL     1       0.776   4.954   0.892  0.00  0.00    +0.055 A 
ATOM      8  C   UNL     1       1.256   5.913   0.017  0.00  0.00    +0.025 A 
ATOM      9  C   UNL     1       0.625   6.113  -1.198  0.00  0.00    +0.002 A 
ATOM     10  C   UNL     1      -0.481   5.356  -1.540  0.00  0.00    +0.002 A 
ATOM     11  C   UNL     1      -0.974   4.405  -0.666  0.00  0.00    +0.025 A 
ATOM     12  C   UNL     1      -0.351   4.208   0.562  0.00  0.00    +0.058 A 
ATOM     13  N   UNL     1      -0.862   3.273   1.472  0.00  0.00    -0.268 N 
ATOM     14  C   UNL     1      -0.723   1.951   1.250  0.00  0.00    +0.204 C 
ATOM     15  O   UNL     1      -1.166   1.152   2.048  0.00  0.00    -0.277 OA
ATOM     16  H   UNL     1       2.504   4.563   2.135  0.00  0.00    +0.155 HD
ENDROOT
BRANCH  14  17
ATOM     17  C   UNL     1      -0.018   1.465   0.010  0.00  0.00    +0.019 C 
BRANCH  17  18
ATOM     18  N   UNL     1       0.002  -0.004   0.002  0.00  0.00    +0.386 N 
ATOM     19  C   UNL     1      -1.356  -0.548  -0.132  0.00  0.00    -0.095 C 
ATOM     20  H   UNL     1       0.408  -0.342   0.967  0.00  0.00    -0.081 HD
BRANCH  18  21
ATOM     21  C   UNL     1       0.881  -0.513  -1.060  0.00  0.00    -0.043 C 
BRANCH  21  22
ATOM     22  C   UNL     1       1.071  -1.998  -0.886  0.00  0.00    -0.064 A 
ATOM     23  C   UNL     1       2.118  -2.473  -0.117  0.00  0.00    +0.002 A 
ATOM     24  C   UNL     1       2.295  -3.830   0.051  0.00  0.00    +0.015 A 
ATOM     25  C   UNL     1       1.419  -4.726  -0.567  0.00  0.00    +0.059 A 
ATOM     26  C   UNL     1       0.368  -4.240  -1.346  0.00  0.00    +0.015 A 
ATOM     27  C   UNL     1       0.200  -2.880  -1.501  0.00  0.00    +0.002 A 
BRANCH  25  28
ATOM     28  C   UNL     1       1.606  -6.182  -0.396  0.00  0.00    +0.339 C 
ATOM     29  O   UNL     1       0.843  -6.959  -0.935  0.00  0.00    -0.245 OA
BRANCH  28  30
ATOM     30  O   UNL     1       2.621  -6.647   0.356  0.00  0.00    -0.464 OA
ATOM     31  C   UNL     1       2.744  -8.089   0.480  0.00  0.00    +0.280 C 
ENDBRANCH  28  30
ENDBRANCH  25  28
ENDBRANCH  21  22
ENDBRANCH  18  21
ENDBRANCH  17  18
ENDBRANCH  14  17
TORSDOF 6
