REMARK  Name = ZINC23134579
REMARK  4 active torsions:
REMARK  status: ('A' for Active; 'I' for Inactive)
REMARK    1  A    between atoms: C_10  and  C_12
REMARK    2  A    between atoms: N_17  and  C_20
REMARK    3  A    between atoms: C_20  and  C_21
REMARK    4  A    between atoms: N_25  and  C_26
REMARK                            x       y       z     vdW  Elec       q    Type
REMARK                         _______ _______ _______ _____ _____    ______ ____
ROOT
ATOM      1  C   UNL     1       0.883  -2.687   0.875  0.00  0.00    +0.282 C 
ATOM      2  O   UNL     1       0.746  -1.480   0.878  0.00  0.00    -0.267 OA
ATOM      3  N   UNL     1       2.115  -3.225   0.780  0.00  0.00    -0.293 N 
ATOM      4  C   UNL     1       3.311  -2.370   0.746  0.00  0.00    +0.123 C 
ATOM      5  C   UNL     1       4.299  -2.881   1.807  0.00  0.00    +0.104 C 
ATOM      6  N   UNL     1       4.551  -4.311   1.586  0.00  0.00    -0.292 NA
ATOM      7  C   UNL     1       3.325  -5.102   1.758  0.00  0.00    +0.104 C 
ATOM      8  C   UNL     1       2.298  -4.682   0.701  0.00  0.00    +0.123 C 
ENDROOT
BRANCH   1  18
ATOM      9  C   UNL     1      -3.522  -7.316   0.315  0.00  0.00    +0.001 A 
ATOM     10  C   UNL     1      -2.429  -7.563  -0.504  0.00  0.00    +0.004 A 
ATOM     11  C   UNL     1      -1.362  -6.692  -0.538  0.00  0.00    +0.047 A 
ATOM     12  C   UNL     1      -1.377  -5.548   0.255  0.00  0.00    +0.139 A 
ATOM     13  C   UNL     1      -2.487  -5.304   1.081  0.00  0.00    +0.064 A 
ATOM     14  C   UNL     1      -3.558  -6.199   1.103  0.00  0.00    +0.015 A 
ATOM     15  C   UNL     1      -2.487  -4.088   1.915  0.00  0.00    +0.193 A 
ATOM     16  O   UNL     1      -3.417  -3.821   2.656  0.00  0.00    -0.287 OA
ATOM     17  C   UNL     1      -1.308  -3.214   1.814  0.00  0.00    +0.103 A 
ATOM     18  C   UNL     1      -0.305  -3.568   0.976  0.00  0.00    +0.194 A 
ATOM     19  O   UNL     1      -0.344  -4.684   0.233  0.00  0.00    -0.450 OA
ENDBRANCH   1  18
BRANCH   6  20
ATOM     20  C   UNL     1       5.620  -4.800   2.467  0.00  0.00    +0.162 C 
BRANCH  20  21
ATOM     21  C   UNL     1       6.771  -3.827   2.447  0.00  0.00    +0.170 A 
ATOM     22  N   UNL     1       6.941  -2.811   3.252  0.00  0.00    -0.112 NA
ATOM     23  N   UNL     1       8.025  -2.183   2.967  0.00  0.00    -0.023 NA
ATOM     24  N   UNL     1       8.617  -2.748   1.970  0.00  0.00    -0.039 NA
ATOM     25  N   UNL     1       7.821  -3.846   1.598  0.00  0.00    -0.196 N 
BRANCH  25  26
ATOM     26  C   UNL     1       8.065  -4.763   0.565  0.00  0.00    +0.072 A 
ATOM     27  C   UNL     1       9.346  -5.259   0.364  0.00  0.00    +0.028 A 
ATOM     28  C   UNL     1       9.584  -6.165  -0.651  0.00  0.00    +0.005 A 
ATOM     29  C   UNL     1       8.549  -6.572  -1.473  0.00  0.00    +0.038 A 
ATOM     30  C   UNL     1       7.271  -6.077  -1.278  0.00  0.00    +0.125 A 
ATOM     31  C   UNL     1       7.027  -5.172  -0.260  0.00  0.00    +0.066 A 
ATOM     32  F   UNL     1       6.262  -6.476  -2.083  0.00  0.00    -0.205 F 
ENDBRANCH  25  26
ENDBRANCH  20  21
ENDBRANCH   6  20
TORSDOF 4
