REMARK  Name = ZINC39683451
REMARK  8 active torsions:
REMARK  status: ('A' for Active; 'I' for Inactive)
REMARK    1  A    between atoms: C_1  and  C_2
REMARK    2  A    between atoms: C_2  and  C_3
REMARK    3  A    between atoms: C_3  and  C_4
REMARK    4  A    between atoms: C_4  and  N_5
REMARK    5  A    between atoms: C_8  and  C_11
REMARK    6  A    between atoms: C_11  and  N_12
REMARK    7  A    between atoms: C_13  and  C_15
REMARK    8  A    between atoms: C_26  and  C_28
REMARK                            x       y       z     vdW  Elec       q    Type
REMARK                         _______ _______ _______ _____ _____    ______ ____
ROOT
ATOM      1  C   UNL     1      -7.796  -7.858   0.246  0.00  0.00    +0.100 C 
ATOM      2  C   UNL     1      -7.062  -8.650  -0.859  0.00  0.00    +0.121 C 
ATOM      3  N   UNL     1      -7.934  -9.818  -1.125  0.00  0.00    -0.296 N 
ATOM      4  C   UNL     1      -9.311  -9.273  -1.058  0.00  0.00    +0.115 C 
ATOM      5  C   UNL     1      -9.272  -8.269   0.111  0.00  0.00    -0.004 C 
ATOM      6  C   UNL     1     -10.133  -7.051  -0.211  0.00  0.00    -0.010 C 
ATOM      7  C   UNL     1     -11.602  -7.474  -0.282  0.00  0.00    -0.082 C 
ATOM      8  N   UNL     1     -12.008  -8.059   1.002  0.00  0.00    +0.379 N 
ATOM      9  C   UNL     1     -11.239  -9.283   1.260  0.00  0.00    -0.082 C 
ATOM     10  C   UNL     1      -9.754  -8.936   1.396  0.00  0.00    -0.010 C 
ATOM     11  C   UNL     1      -7.559 -11.089  -1.373  0.00  0.00    +0.247 C 
ATOM     12  O   UNL     1      -6.392 -11.410  -1.268  0.00  0.00    -0.270 OA
ATOM     13  H   UNL     1     -11.837  -7.394   1.742  0.00  0.00    -0.086 HD
ATOM     14  H   UNL     1     -12.992  -8.281   0.973  0.00  0.00    -0.086 HD
ENDROOT
BRANCH  11  15
ATOM     15  C   UNL     1      -8.569 -12.092  -1.772  0.00  0.00    +0.037 A 
ATOM     16  C   UNL     1      -9.791 -11.682  -2.308  0.00  0.00    +0.014 A 
ATOM     17  C   UNL     1     -10.729 -12.622  -2.679  0.00  0.00    +0.021 A 
ATOM     18  C   UNL     1     -10.460 -13.972  -2.519  0.00  0.00    +0.041 A 
ATOM     19  C   UNL     1      -9.250 -14.385  -1.988  0.00  0.00    +0.021 A 
ATOM     20  C   UNL     1      -8.302 -13.454  -1.619  0.00  0.00    +0.014 A 
ATOM     21 CL   UNL     1     -11.646 -15.150  -2.987  0.00  0.00    -0.084 Cl
ENDBRANCH  11  15
BRANCH   1  23
ATOM     22  N   UNL     1      -7.638  -5.532   1.071  0.00  0.00    -0.315 N 
ATOM     23  C   UNL     1      -7.642  -6.376   0.021  0.00  0.00    +0.218 C 
ATOM     24  O   UNL     1      -7.520  -5.943  -1.106  0.00  0.00    -0.275 OA
ATOM     25  H   UNL     1      -7.735  -5.878   1.972  0.00  0.00    +0.149 HD
BRANCH  22  26
ATOM     26  C   UNL     1      -7.488  -4.091   0.852  0.00  0.00    +0.107 C 
BRANCH  26  30
ATOM     27  N   UNL     1      -6.228  -1.542   4.045  0.00  0.00    +0.380 N 
ATOM     28  C   UNL     1      -7.433  -1.133   3.315  0.00  0.00    -0.079 C 
ATOM     29  C   UNL     1      -7.485  -1.851   1.965  0.00  0.00    -0.014 C 
ATOM     30  C   UNL     1      -7.516  -3.365   2.199  0.00  0.00    +0.003 C 
ATOM     31  C   UNL     1      -6.292  -3.769   3.025  0.00  0.00    -0.014 C 
ATOM     32  C   UNL     1      -6.285  -2.980   4.336  0.00  0.00    -0.079 C 
ATOM     33  H   UNL     1      -5.413  -1.346   3.483  0.00  0.00    -0.082 HD
BRANCH  27  34
ATOM     34  C   UNL     1      -6.142  -0.793   5.306  0.00  0.00    -0.079 C 
BRANCH  34  35
ATOM     35  C   UNL     1      -5.957   0.695   5.003  0.00  0.00    -0.019 C 
BRANCH  35  37
ATOM     36  C   UNL     1      -5.683   2.964   6.012  0.00  0.00    +0.004 C 
ATOM     37  C   UNL     1      -5.868   1.476   6.316  0.00  0.00    -0.005 C 
ENDBRANCH  35  37
ENDBRANCH  34  35
ENDBRANCH  27  34
ENDBRANCH  26  30
ENDBRANCH  22  26
ENDBRANCH   1  23
TORSDOF 7
