REMARK  Name = ZINC39230543
REMARK  5 active torsions:
REMARK  status: ('A' for Active; 'I' for Inactive)
REMARK    1  A    between atoms: C_4  and  C_7
REMARK    2  A    between atoms: C_17  and  C_20
REMARK    3  A    between atoms: N_22  and  C_23
REMARK    4  A    between atoms: C_23  and  C_31
REMARK    5  A    between atoms: C_28  and  O_30
REMARK                            x       y       z     vdW  Elec       q    Type
REMARK                         _______ _______ _______ _____ _____    ______ ____
ROOT
ATOM      1  C   UNL     1       4.222  -3.296   0.396  0.00  0.00    -0.023 C 
ATOM      2  C   UNL     1       4.396  -3.226  -1.125  0.00  0.00    +0.095 C 
ATOM      3  N   UNL     1       5.634  -3.933  -1.486  0.00  0.00    -0.318 N 
ATOM      4  C   UNL     1       5.837  -5.291  -0.956  0.00  0.00    +0.087 C 
ATOM      5  C   UNL     1       5.596  -5.263   0.556  0.00  0.00    -0.062 C 
ATOM      6  N   UNL     1       4.268  -4.698   0.829  0.00  0.00    +0.386 N 
ATOM      7  C   UNL     1       6.582  -3.338  -2.301  0.00  0.00    +0.121 A 
ATOM      8  C   UNL     1       6.270  -2.153  -2.966  0.00  0.00    +0.044 A 
ATOM      9  C   UNL     1       7.209  -1.568  -3.771  0.00  0.00    +0.018 A 
ATOM     10  C   UNL     1       8.462  -2.188  -3.899  0.00  0.00    +0.055 A 
ATOM     11  C   UNL     1       8.705  -3.374  -3.204  0.00  0.00    +0.126 A 
ATOM     12  N   UNL     1       7.775  -3.901  -2.435  0.00  0.00    -0.240 NA
ATOM     13  H   UNL     1       4.079  -4.750   1.819  0.00  0.00    -0.085 HD
ATOM     14  H   UNL     1       3.570  -5.227   0.328  0.00  0.00    -0.085 HD
ENDROOT
BRANCH   1  18
ATOM     15  C   UNL     1       0.458  -1.591   1.478  0.00  0.00    +0.000 A 
ATOM     16  C   UNL     1       1.617  -0.849   1.611  0.00  0.00    +0.000 A 
ATOM     17  C   UNL     1       2.835  -1.401   1.261  0.00  0.00    +0.002 A 
ATOM     18  C   UNL     1       2.894  -2.695   0.778  0.00  0.00    -0.060 A 
ATOM     19  C   UNL     1       1.736  -3.437   0.646  0.00  0.00    +0.002 A 
ATOM     20  C   UNL     1       0.518  -2.885   0.995  0.00  0.00    +0.000 A 
ENDBRANCH   1  18
BRANCH  10  21
ATOM     21  C   UNL     1       9.506  -1.595  -4.756  0.00  0.00    +0.246 C 
ATOM     22  O   UNL     1       9.285  -0.562  -5.358  0.00  0.00    -0.270 OA
ATOM     23  N   UNL     1      10.706  -2.199  -4.872  0.00  0.00    -0.299 N 
ATOM     24  H   UNL     1      10.860  -3.057  -4.448  0.00  0.00    +0.150 HD
BRANCH  23  25
ATOM     25  C   UNL     1      11.777  -1.558  -5.638  0.00  0.00    +0.086 C 
ATOM     26  C   UNL     1      12.021  -0.149  -5.093  0.00  0.00    +0.033 C 
ATOM     27  C   UNL     1      12.428  -0.234  -3.621  0.00  0.00    +0.003 C 
ATOM     28  C   UNL     1      13.710  -1.059  -3.493  0.00  0.00    +0.003 C 
ATOM     29  C   UNL     1      13.466  -2.468  -4.038  0.00  0.00    +0.034 C 
ATOM     30  C   UNL     1      13.059  -2.382  -5.510  0.00  0.00    +0.142 C 
BRANCH  25  31
ATOM     31  C   UNL     1      11.377  -1.473  -7.088  0.00  0.00    -0.022 A 
ATOM     32  C   UNL     1      12.012  -0.580  -7.930  0.00  0.00    +0.006 A 
ATOM     33  C   UNL     1      11.645  -0.503  -9.261  0.00  0.00    +0.000 A 
ATOM     34  C   UNL     1      10.642  -1.319  -9.749  0.00  0.00    +0.000 A 
ATOM     35  C   UNL     1      10.007  -2.213  -8.907  0.00  0.00    +0.000 A 
ATOM     36  C   UNL     1      10.377  -2.293  -7.578  0.00  0.00    +0.006 A 
ENDBRANCH  25  31
BRANCH  30  37
ATOM     37  O   UNL     1      12.832  -3.698  -6.019  0.00  0.00    -0.389 OA
ATOM     38  H   UNL     1      13.604  -4.278  -5.969  0.00  0.00    +0.210 HD
ENDBRANCH  30  37
ENDBRANCH  23  25
ENDBRANCH  10  21
TORSDOF 5
