REMARK  Name = ZINC03144365
REMARK  10 active torsions:
REMARK  status: ('A' for Active; 'I' for Inactive)
REMARK    1  A    between atoms: C_1  and  C_2
REMARK    2  A    between atoms: C_2  and  C_3
REMARK    3  A    between atoms: C_2  and  C_4
REMARK    4  A    between atoms: C_2  and  C_5
REMARK    5  A    between atoms: C_5  and  C_7
REMARK    6  A    between atoms: C_5  and  N_22
REMARK    7  A    between atoms: C_7  and  N_9
REMARK    8  A    between atoms: C_7  and  O_14
REMARK    9  A    between atoms: O_14  and  C_15
REMARK   10  A    between atoms: N_27  and  C_33
REMARK                            x       y       z     vdW  Elec       q    Type
REMARK                         _______ _______ _______ _____ _____    ______ ____
ROOT
ATOM      1  C   UNL     1       0.962  -0.394  -1.829  0.00  0.00    +0.149 C 
ENDROOT
BRANCH   1   2
ATOM      2  N   UNL     1       1.246  -1.719  -2.387  0.00  0.00    -0.366 N 
ATOM      3  C   UNL     1       0.301  -2.401  -2.945  0.00  0.00    +0.098 C 
ATOM      4  N   UNL     1      -1.021  -2.035  -3.107  0.00  0.00    -0.285 N 
ATOM      5  C   UNL     1      -1.712  -2.998  -3.733  0.00  0.00    +0.143 C 
ATOM      6  S   UNL     1      -3.380  -2.885  -4.101  0.00  0.00    -0.018 S 
ATOM      7  N   UNL     1      -0.948  -4.066  -4.042  0.00  0.00    -0.269 N 
ATOM      8  C   UNL     1       0.398  -3.766  -3.568  0.00  0.00    +0.094 C 
ATOM      9  C   UNL     1       0.900  -4.815  -2.565  0.00  0.00    +0.034 C 
ATOM     10  C   UNL     1       1.484  -5.936  -3.453  0.00  0.00    +0.003 C 
ATOM     11  C   UNL     1       1.822  -5.293  -4.810  0.00  0.00    +0.003 C 
ATOM     12  C   UNL     1       1.433  -3.801  -4.703  0.00  0.00    +0.034 C 
ATOM     13  H   UNL     1      -1.399  -1.194  -2.807  0.00  0.00    +0.155 HD
ATOM     14  H   UNL     1       2.143  -2.084  -2.337  0.00  0.00    +0.161 HD
BRANCH   7  15
ATOM     15  C   UNL     1      -1.365  -5.231  -4.694  0.00  0.00    +0.036 A 
ATOM     16  C   UNL     1      -1.732  -6.349  -3.956  0.00  0.00    +0.023 A 
ATOM     17  C   UNL     1      -2.142  -7.498  -4.603  0.00  0.00    +0.002 A 
ATOM     18  C   UNL     1      -2.188  -7.536  -5.984  0.00  0.00    +0.000 A 
ATOM     19  C   UNL     1      -1.823  -6.425  -6.722  0.00  0.00    +0.002 A 
ATOM     20  C   UNL     1      -1.418  -5.271  -6.082  0.00  0.00    +0.023 A 
ENDBRANCH   7  15
ENDBRANCH   1   2
BRANCH   1  22
ATOM     21  C   UNL     1       0.010   0.826   0.132  0.00  0.00    +0.013 C 
ATOM     22  C   UNL     1       0.428  -0.545  -0.404  0.00  0.00    -0.012 C 
ATOM     23  C   UNL     1       1.522  -1.130   0.491  0.00  0.00    +0.013 C 
ATOM     24  C   UNL     1      -0.782  -1.481  -0.408  0.00  0.00    +0.013 C 
ENDBRANCH   1  22
BRANCH   1  25
ATOM     25  C   UNL     1       2.246   0.436  -1.808  0.00  0.00    +0.317 C 
BRANCH  25  26
ATOM     26  N   UNL     1       2.823   0.478  -3.154  0.00  0.00    -0.211 N 
ATOM     27  C   UNL     1       3.143   1.577  -3.860  0.00  0.00    +0.223 A 
ATOM     28  N   UNL     1       3.630   1.192  -5.011  0.00  0.00    -0.223 NA
ATOM     29  C   UNL     1       3.638  -0.139  -5.077  0.00  0.00    +0.245 A 
ATOM     30  N   UNL     1       3.158  -0.621  -3.961  0.00  0.00    -0.155 NA
ENDBRANCH  25  26
BRANCH  25  31
ATOM     31  O   UNL     1       1.948   1.765  -1.376  0.00  0.00    -0.465 OA
BRANCH  31  32
ATOM     32  C   UNL     1       2.967   2.482  -0.833  0.00  0.00    +0.124 A 
ATOM     33  C   UNL     1       4.239   1.934  -0.761  0.00  0.00    +0.047 A 
ATOM     34  C   UNL     1       5.274   2.663  -0.209  0.00  0.00    +0.023 A 
ATOM     35  C   UNL     1       5.042   3.939   0.273  0.00  0.00    +0.041 A 
ATOM     36  C   UNL     1       3.774   4.487   0.203  0.00  0.00    +0.023 A 
ATOM     37  C   UNL     1       2.738   3.763  -0.355  0.00  0.00    +0.047 A 
ATOM     38 CL   UNL     1       6.344   4.854   0.967  0.00  0.00    -0.084 Cl
ENDBRANCH  31  32
ENDBRANCH  25  31
ENDBRANCH   1  25
TORSDOF 7
