REMARK  Name = ZINC58834877
REMARK  17 active torsions:
REMARK  status: ('A' for Active; 'I' for Inactive)
REMARK    1  A    between atoms: C_1  and  C_2
REMARK    2  A    between atoms: C_3  and  C_34
REMARK    3  A    between atoms: C_4  and  C_33
REMARK    4  A    between atoms: C_6  and  S_10
REMARK    5  A    between atoms: C_7  and  C_8
REMARK    6  A    between atoms: S_10  and  C_11
REMARK    7  A    between atoms: C_11  and  C_12
REMARK    8  A    between atoms: C_15  and  C_18
REMARK    9  A    between atoms: N_16  and  N_17
REMARK   10  A    between atoms: C_18  and  S_19
REMARK   11  A    between atoms: S_19  and  C_20
REMARK   12  A    between atoms: C_21  and  C_31
REMARK   13  A    between atoms: C_22  and  C_30
REMARK   14  A    between atoms: C_23  and  C_27
REMARK   15  A    between atoms: C_24  and  C_26
REMARK   16  A    between atoms: C_27  and  C_28
REMARK   17  A    between atoms: C_34  and  C_35
REMARK                            x       y       z     vdW  Elec       q    Type
REMARK                         _______ _______ _______ _____ _____    ______ ____
ROOT
ATOM      1  C   UNL     1       0.093  -5.715   3.259  0.00  0.00    +0.160 A 
ATOM      2  N   UNL     1       1.153  -6.169   3.871  0.00  0.00    -0.132 NA
ATOM      3  N   UNL     1       0.798  -6.928   4.846  0.00  0.00    -0.132 NA
ATOM      4  C   UNL     1      -0.504  -6.992   4.902  0.00  0.00    +0.160 A 
ATOM      5  N   UNL     1      -0.989  -6.220   3.900  0.00  0.00    -0.235 N 
ENDROOT
BRANCH   5   6
ATOM      6  N   UNL     1      -2.302  -5.998   3.595  0.00  0.00    -0.295 N 
ATOM      7  H   UNL     1      -2.642  -6.685   2.939  0.00  0.00    +0.163 HD
ATOM      8  H   UNL     1      -2.869  -5.983   4.429  0.00  0.00    +0.163 HD
ENDBRANCH   5   6
BRANCH   1   9
ATOM      9  C   UNL     1       0.075  -4.794   2.067  0.00  0.00    +0.153 C 
BRANCH   9  10
ATOM     10  S   UNL     1       0.055  -3.071   2.633  0.00  0.00    -0.097 S 
BRANCH  10  16
ATOM     11  C   UNL     1      -0.018   1.503   0.010  0.00  0.00    +0.045 C 
ATOM     12  C   UNL     1       0.002  -0.004   0.002  0.00  0.00    -0.025 A 
ATOM     13  C   UNL     1       0.006  -0.707  -1.191  0.00  0.00    -0.018 A 
ATOM     14  C   UNL     1       0.025  -2.089  -1.167  0.00  0.00    +0.043 A 
ATOM     15  N   UNL     1       0.039  -2.754  -0.028  0.00  0.00    -0.244 NA
ATOM     16  C   UNL     1       0.036  -2.133   1.142  0.00  0.00    +0.115 A 
ATOM     17  C   UNL     1       0.023  -0.727   1.200  0.00  0.00    +0.087 A 
ATOM     18  C   UNL     1       0.029  -2.851  -2.467  0.00  0.00    +0.066 C 
BRANCH  17  19
ATOM     19  C   UNL     1       0.026  -0.049   2.461  0.00  0.00    +0.102 C 
ATOM     20  N   UNL     1       0.028   0.489   3.462  0.00  0.00    -0.191 NA
ENDBRANCH  17  19
BRANCH  13  21
ATOM     21  C   UNL     1      -0.010   0.030  -2.505  0.00  0.00    +0.063 C 
BRANCH  21  22
ATOM     22  C   UNL     1       1.405   0.295  -2.950  0.00  0.00    -0.030 C 
ATOM     23  C   UNL     1       1.805  -0.104  -4.132  0.00  0.00    +0.004 C 
ENDBRANCH  21  22
ENDBRANCH  13  21
ENDBRANCH  10  16
ENDBRANCH   9  10
ENDBRANCH   1   9
BRANCH   4  24
ATOM     24  C   UNL     1      -1.318  -7.776   5.900  0.00  0.00    +0.153 C 
BRANCH  24  25
ATOM     25  S   UNL     1      -1.667  -6.736   7.345  0.00  0.00    -0.097 S 
BRANCH  25  26
ATOM     26  C   UNL     1      -2.612  -7.781   8.403  0.00  0.00    +0.115 A 
ATOM     27  C   UNL     1      -3.071  -7.293   9.640  0.00  0.00    +0.087 A 
ATOM     28  C   UNL     1      -3.820  -8.142  10.463  0.00  0.00    -0.025 A 
ATOM     29  C   UNL     1      -4.076  -9.428  10.021  0.00  0.00    -0.018 A 
ATOM     30  C   UNL     1      -3.591  -9.836   8.792  0.00  0.00    +0.043 A 
ATOM     31  N   UNL     1      -2.891  -9.020   8.028  0.00  0.00    -0.244 NA
ATOM     32  C   UNL     1      -3.871 -11.238   8.314  0.00  0.00    +0.066 C 
ATOM     33  C   UNL     1      -4.334  -7.667  11.797  0.00  0.00    +0.045 C 
BRANCH  27  34
ATOM     34  C   UNL     1      -2.777  -5.953  10.050  0.00  0.00    +0.102 C 
ATOM     35  N   UNL     1      -2.544  -4.890  10.375  0.00  0.00    -0.191 NA
ENDBRANCH  27  34
BRANCH  29  36
ATOM     36  C   UNL     1      -4.878 -10.378  10.873  0.00  0.00    +0.063 C 
BRANCH  36  37
ATOM     37  C   UNL     1      -6.340 -10.243  10.536  0.00  0.00    -0.030 C 
ATOM     38  C   UNL     1      -7.031 -11.298  10.182  0.00  0.00    +0.004 C 
ENDBRANCH  36  37
ENDBRANCH  29  36
ENDBRANCH  25  26
ENDBRANCH  24  25
ENDBRANCH   4  24
TORSDOF 13
