REMARK  Name = ZINC39668922
REMARK  4 active torsions:
REMARK  status: ('A' for Active; 'I' for Inactive)
REMARK    1  A    between atoms: C_10  and  C_12
REMARK    2  A    between atoms: C_12  and  N_13
REMARK    3  A    between atoms: C_14  and  C_16
REMARK    4  A    between atoms: C_27  and  C_29
REMARK                            x       y       z     vdW  Elec       q    Type
REMARK                         _______ _______ _______ _____ _____    ______ ____
ROOT
ATOM      1  C   UNL     1       8.874  -1.232   1.273  0.00  0.00    +0.100 C 
ATOM      2  C   UNL     1       9.156  -0.845  -0.196  0.00  0.00    +0.121 C 
ATOM      3  N   UNL     1       9.938   0.411  -0.109  0.00  0.00    -0.296 N 
ATOM      4  C   UNL     1      10.847   0.201   1.044  0.00  0.00    +0.115 C 
ATOM      5  C   UNL     1       9.988  -0.547   2.083  0.00  0.00    -0.004 C 
ATOM      6  C   UNL     1      10.829  -1.590   2.812  0.00  0.00    -0.010 C 
ATOM      7  C   UNL     1      11.893  -0.882   3.656  0.00  0.00    -0.082 C 
ATOM      8  N   UNL     1      11.240   0.010   4.621  0.00  0.00    +0.379 N 
ATOM      9  C   UNL     1      10.508   1.067   3.911  0.00  0.00    -0.082 C 
ATOM     10  C   UNL     1       9.386   0.441   3.078  0.00  0.00    -0.010 C 
ATOM     11  C   UNL     1       9.844   1.499  -0.899  0.00  0.00    +0.247 C 
ATOM     12  O   UNL     1       8.960   1.573  -1.730  0.00  0.00    -0.270 OA
ATOM     13  H   UNL     1      10.595  -0.522   5.187  0.00  0.00    -0.086 HD
ATOM     14  H   UNL     1      11.939   0.429   5.216  0.00  0.00    -0.086 HD
ENDROOT
BRANCH  11  15
ATOM     15  C   UNL     1      10.817   2.603  -0.755  0.00  0.00    +0.038 A 
ATOM     16  C   UNL     1      12.054   2.373  -0.149  0.00  0.00    +0.013 A 
ATOM     17  C   UNL     1      12.957   3.407  -0.018  0.00  0.00    +0.002 A 
ATOM     18  C   UNL     1      12.640   4.670  -0.485  0.00  0.00    +0.015 A 
ATOM     19  C   UNL     1      11.416   4.906  -1.087  0.00  0.00    +0.019 A 
ATOM     20  C   UNL     1      10.506   3.878  -1.230  0.00  0.00    +0.028 A 
ATOM     21 BR   UNL     1      10.993   6.636  -1.721  0.00  0.00    -0.050 Br
ENDBRANCH  11  15
BRANCH   1  23
ATOM     22  N   UNL     1       6.869  -1.309   2.720  0.00  0.00    -0.312 N 
ATOM     23  C   UNL     1       7.523  -0.718   1.700  0.00  0.00    +0.218 C 
ATOM     24  O   UNL     1       7.024   0.227   1.127  0.00  0.00    -0.275 OA
ATOM     25  H   UNL     1       7.269  -2.065   3.179  0.00  0.00    +0.149 HD
BRANCH  22  26
ATOM     26  C   UNL     1       5.556  -0.810   3.136  0.00  0.00    +0.140 C 
BRANCH  26  36
ATOM     27  C   UNL     1       1.043  -0.426   5.210  0.00  0.00    +0.000 A 
ATOM     28  C   UNL     1       1.446  -0.590   3.898  0.00  0.00    +0.000 A 
ATOM     29  C   UNL     1       2.739  -0.985   3.619  0.00  0.00    +0.006 A 
ATOM     30  C   UNL     1       3.637  -1.216   4.649  0.00  0.00    -0.014 A 
ATOM     31  C   UNL     1       3.236  -1.048   5.958  0.00  0.00    -0.040 A 
ATOM     32  C   UNL     1       1.937  -0.655   6.237  0.00  0.00    +0.004 A 
ATOM     33  C   UNL     1       4.187  -1.276   7.105  0.00  0.00    +0.063 C 
ATOM     34  C   UNL     1       5.393  -2.085   6.624  0.00  0.00    +0.165 C 
ATOM     35  O   UNL     1       5.899  -1.479   5.429  0.00  0.00    -0.370 OA
ATOM     36  C   UNL     1       5.038  -1.651   4.304  0.00  0.00    +0.165 C 
ENDBRANCH  26  36
ENDBRANCH  22  26
ENDBRANCH   1  23
TORSDOF 4
