REMARK  Name = ZINC55373037
REMARK  7 active torsions:
REMARK  status: ('A' for Active; 'I' for Inactive)
REMARK    1  A    between atoms: C_1  and  C_2
REMARK    2  A    between atoms: C_5  and  S_9
REMARK    3  A    between atoms: S_9  and  N_12
REMARK    4  A    between atoms: N_12  and  C_13
REMARK    5  A    between atoms: N_16  and  C_19
REMARK    6  A    between atoms: C_19  and  C_20
REMARK    7  A    between atoms: C_19  and  C_21
REMARK                            x       y       z     vdW  Elec       q    Type
REMARK                         _______ _______ _______ _____ _____    ______ ____
ROOT
ATOM      1  N   UNL     1       1.558  -5.005   0.505  0.00  0.00    -0.187 NA
ATOM      2  H   UNL     1       2.214  -5.327  -0.132  0.00  0.00    +0.148 HD
ENDROOT
BRANCH   1   3
ATOM      3  C   UNL     1       1.933  -4.810   1.908  0.00  0.00    +0.073 C 
ATOM      4  C   UNL     1       2.600  -3.442   2.075  0.00  0.00    +0.002 C 
ATOM      5  C   UNL     1       3.060  -3.278   3.525  0.00  0.00    -0.077 C 
ATOM      6  N   UNL     1       4.021  -4.337   3.860  0.00  0.00    +0.381 N 
ATOM      7  C   UNL     1       3.367  -5.648   3.772  0.00  0.00    -0.077 C 
ATOM      8  C   UNL     1       2.919  -5.903   2.331  0.00  0.00    +0.002 C 
ATOM      9  H   UNL     1       4.795  -4.304   3.214  0.00  0.00    -0.081 HD
BRANCH   6  10
ATOM     10  C   UNL     1       4.518  -4.130   5.227  0.00  0.00    -0.075 C 
ATOM     11  C   UNL     1       5.519  -5.233   5.577  0.00  0.00    -0.014 C 
ATOM     12  C   UNL     1       5.207  -2.768   5.318  0.00  0.00    -0.014 C 
ENDBRANCH   6  10
ENDBRANCH   1   3
BRANCH   1  13
ATOM     13  S   UNL     1       0.014  -4.673   0.008  0.00  0.00    +0.060 S 
ATOM     14  O   UNL     1      -0.857  -5.306   0.935  0.00  0.00    -0.153 OA
ATOM     15  O   UNL     1      -0.031  -4.945  -1.387  0.00  0.00    -0.153 OA
BRANCH  13  20
ATOM     16  C   UNL     1      -0.825   1.269   0.637  0.00  0.00    +0.044 C 
ATOM     17  C   UNL     1      -0.616  -0.215   0.479  0.00  0.00    -0.049 A 
ATOM     18  C   UNL     1      -1.363  -1.102   1.231  0.00  0.00    +0.005 A 
ATOM     19  C   UNL     1      -1.171  -2.463   1.086  0.00  0.00    +0.030 A 
ATOM     20  C   UNL     1      -0.232  -2.938   0.191  0.00  0.00    +0.119 A 
ATOM     21  C   UNL     1       0.516  -2.050  -0.562  0.00  0.00    +0.044 A 
ATOM     22  C   UNL     1       0.320  -0.688  -0.421  0.00  0.00    +0.020 A 
ATOM     23 BR   UNL     1       1.802  -2.699  -1.787  0.00  0.00    -0.048 Br
ENDBRANCH  13  20
ENDBRANCH   1  13
TORSDOF 4
