REMARK  Name = ZINC29145595
REMARK  12 active torsions:
REMARK  status: ('A' for Active; 'I' for Inactive)
REMARK    1  A    between atoms: C_1  and  C_2
REMARK    2  A    between atoms: C_2  and  C_4
REMARK    3  A    between atoms: C_2  and  N_33
REMARK    4  A    between atoms: C_7  and  S_16
REMARK    5  A    between atoms: N_8  and  C_9
REMARK    6  A    between atoms: S_16  and  C_17
REMARK    7  A    between atoms: C_17  and  C_18
REMARK    8  A    between atoms: N_20  and  C_21
REMARK    9  A    between atoms: C_25  and  C_27
REMARK   10  A    between atoms: N_29  and  C_30
REMARK   11  A    between atoms: N_33  and  C_34
REMARK   12  A    between atoms: N_33  and  C_35
REMARK                            x       y       z     vdW  Elec       q    Type
REMARK                         _______ _______ _______ _____ _____    ______ ____
ROOT
ATOM      1  S   UNL     1       1.768  -2.116  -0.024  0.00  0.00    -0.076 S 
ENDROOT
BRANCH   1   5
ATOM      2  C   UNL     1       1.201   1.746   0.024  0.00  0.00    +0.125 A 
ATOM      3  N   UNL     1      -0.016   1.281   0.038  0.00  0.00    -0.135 NA
ATOM      4  N   UNL     1       0.002  -0.004   0.025  0.00  0.00    -0.122 NA
ATOM      5  C   UNL     1       1.242  -0.434   0.001  0.00  0.00    +0.197 A 
ATOM      6  N   UNL     1       2.049   0.670   0.000  0.00  0.00    -0.275 N 
BRANCH   6   7
ATOM      7  C   UNL     1       3.451   0.696  -0.021  0.00  0.00    +0.050 A 
ATOM      8  C   UNL     1       4.153   1.211   1.060  0.00  0.00    +0.028 A 
ATOM      9  C   UNL     1       5.534   1.232   1.039  0.00  0.00    +0.022 A 
ATOM     10  C   UNL     1       6.217   0.748  -0.063  0.00  0.00    +0.041 A 
ATOM     11  C   UNL     1       5.519   0.239  -1.144  0.00  0.00    +0.022 A 
ATOM     12  C   UNL     1       4.139   0.212  -1.125  0.00  0.00    +0.028 A 
ATOM     13 CL   UNL     1       7.953   0.781  -0.089  0.00  0.00    -0.084 Cl
ENDBRANCH   6   7
BRANCH   2  15
ATOM     14  C   UNL     1       1.356   3.804  -1.351  0.00  0.00    -0.005 C 
ATOM     15  C   UNL     1       1.602   3.199   0.033  0.00  0.00    -0.003 C 
BRANCH  15  16
ATOM     16  N   UNL     1       0.804   3.921   1.032  0.00  0.00    +0.382 N 
ATOM     17  C   UNL     1       1.248   5.316   1.153  0.00  0.00    -0.096 C 
ATOM     18  C   UNL     1      -0.628   3.851   0.713  0.00  0.00    -0.096 C 
ATOM     19  H   UNL     1       0.957   3.432   2.006  0.00  0.00    -0.082 HD
ENDBRANCH  15  16
ENDBRANCH   2  15
ENDBRANCH   1   5
BRANCH   1  20
ATOM     20  C   UNL     1       0.161  -2.948  -0.008  0.00  0.00    +0.173 C 
BRANCH  20  21
ATOM     21  C   UNL     1       0.367  -4.441  -0.027  0.00  0.00    +0.227 C 
ATOM     22  O   UNL     1       1.491  -4.897  -0.048  0.00  0.00    -0.275 OA
ATOM     23  N   UNL     1      -0.696  -5.269  -0.019  0.00  0.00    -0.285 N 
ATOM     24  H   UNL     1      -1.712  -4.858   0.077  0.00  0.00    +0.155 HD
BRANCH  23  25
ATOM     25  C   UNL     1      -0.508  -6.651  -0.134  0.00  0.00    +0.034 A 
ATOM     26  C   UNL     1      -1.436  -7.424  -0.821  0.00  0.00    +0.023 A 
ATOM     27  C   UNL     1      -1.252  -8.788  -0.942  0.00  0.00    +0.003 A 
ATOM     28  C   UNL     1      -0.151  -9.394  -0.370  0.00  0.00    +0.013 A 
ATOM     29  C   UNL     1       0.784  -8.627   0.327  0.00  0.00    +0.038 A 
ATOM     30  C   UNL     1       0.601  -7.249   0.444  0.00  0.00    +0.036 A 
BRANCH  29  31
ATOM     31  C   UNL     1       1.964  -9.273   0.941  0.00  0.00    +0.244 C 
ATOM     32  O   UNL     1       2.776  -8.604   1.548  0.00  0.00    -0.270 OA
ATOM     33  N   UNL     1       2.138 -10.605   0.827  0.00  0.00    -0.308 N 
ATOM     34  H   UNL     1       1.403 -11.211   0.277  0.00  0.00    +0.149 HD
BRANCH  33  35
ATOM     35  C   UNL     1       3.307 -11.245   1.435  0.00  0.00    +0.073 C 
ATOM     36  C   UNL     1       4.048 -12.296   0.605  0.00  0.00    +0.024 C 
ATOM     37  C   UNL     1       3.192 -12.727   1.798  0.00  0.00    +0.024 C 
ENDBRANCH  33  35
ENDBRANCH  29  31
ENDBRANCH  23  25
ENDBRANCH  20  21
ENDBRANCH   1  20
TORSDOF 9
