REMARK  Name = ZINC13033929
REMARK  9 active torsions:
REMARK  status: ('A' for Active; 'I' for Inactive)
REMARK    1  A    between atoms: C_4  and  C_7
REMARK    2  A    between atoms: C_7  and  C_8
REMARK    3  A    between atoms: C_8  and  N_63
REMARK    4  A    between atoms: C_9  and  C_10
REMARK    5  A    between atoms: C_9  and  N_63
REMARK    6  A    between atoms: C_26  and  C_27
REMARK    7  A    between atoms: C_26  and  N_63
REMARK    8  A    between atoms: N_31  and  C_32
REMARK    9  A    between atoms: C_32  and  C_33
REMARK                            x       y       z     vdW  Elec       q    Type
REMARK                         _______ _______ _______ _____ _____    ______ ____
ROOT
ATOM      1  N   UNL     1       0.277  -2.019   1.496  0.00  0.00    +0.387 N 
ATOM      2  H   UNL     1       1.123  -2.270   0.971  0.00  0.00    -0.081 HD
ENDROOT
BRANCH   1   3
ATOM      3  C   UNL     1       0.148  -0.547   1.523  0.00  0.00    -0.073 C 
BRANCH   3   4
ATOM      4  C   UNL     1       0.206  -0.020   0.088  0.00  0.00    +0.016 C 
BRANCH   4   8
ATOM      5  C   UNL     1       0.202   4.252   0.139  0.00  0.00    +0.000 A 
ATOM      6  C   UNL     1       1.390   3.560   0.280  0.00  0.00    +0.000 A 
ATOM      7  C   UNL     1       1.392   2.178   0.264  0.00  0.00    +0.003 A 
ATOM      8  C   UNL     1       0.205   1.487   0.106  0.00  0.00    -0.049 A 
ATOM      9  C   UNL     1      -0.983   2.179  -0.041  0.00  0.00    +0.003 A 
ATOM     10  C   UNL     1      -0.985   3.561  -0.019  0.00  0.00    +0.000 A 
ENDBRANCH   4   8
ENDBRANCH   3   4
ENDBRANCH   1   3
BRANCH   1  11
ATOM     11  C   UNL     1      -0.898  -2.618   0.828  0.00  0.00    -0.037 C 
BRANCH  11  12
ATOM     12  C   UNL     1      -0.583  -4.051   0.487  0.00  0.00    +0.001 A 
ATOM     13  C   UNL     1      -0.980  -5.047   1.320  0.00  0.00    +0.017 A 
ATOM     14  C   UNL     1      -0.659  -6.428   0.961  0.00  0.00    +0.002 A 
ATOM     15  C   UNL     1      -1.043  -7.496   1.781  0.00  0.00    +0.059 A 
ATOM     16  C   UNL     1      -0.723  -8.787   1.419  0.00  0.00    +0.163 A 
ATOM     17  C   UNL     1      -0.021  -9.033   0.235  0.00  0.00    +0.164 A 
ATOM     18  C   UNL     1       0.360  -7.984  -0.583  0.00  0.00    +0.075 A 
ATOM     19  C   UNL     1       0.048  -6.677  -0.231  0.00  0.00    +0.053 A 
ATOM     20  N   UNL     1       0.422  -5.619  -1.034  0.00  0.00    -0.322 N 
ATOM     21  H   UNL     1       0.909  -5.791  -1.856  0.00  0.00    +0.169 HD
ATOM     22  C   UNL     1       0.118  -4.353  -0.698  0.00  0.00    +0.251 A 
ATOM     23  O   UNL     1       0.461  -3.444  -1.433  0.00  0.00    -0.268 OA
ATOM     24  O   UNL     1       0.294 -10.305  -0.132  0.00  0.00    -0.485 OA
ATOM     25  C   UNL     1       0.229 -11.305   0.890  0.00  0.00    +0.270 C 
ATOM     26  C   UNL     1      -1.089 -11.126   1.655  0.00  0.00    +0.270 C 
ATOM     27  O   UNL     1      -1.099  -9.815   2.231  0.00  0.00    -0.485 OA
ENDBRANCH  11  12
ENDBRANCH   1  11
BRANCH   1  28
ATOM     28  C   UNL     1       0.395  -2.541   2.874  0.00  0.00    +0.001 C 
BRANCH  28  29
ATOM     29  C   UNL     1       1.712  -2.091   3.453  0.00  0.00    +0.136 A 
ATOM     30  N   UNL     1       2.857  -2.723   3.376  0.00  0.00    -0.115 NA
ATOM     31  N   UNL     1       3.743  -2.018   3.991  0.00  0.00    -0.023 NA
ATOM     32  N   UNL     1       3.190  -0.957   4.466  0.00  0.00    -0.044 NA
ATOM     33  N   UNL     1       1.938  -0.965   4.155  0.00  0.00    -0.224 N 
BRANCH  33  34
ATOM     34  C   UNL     1       0.949   0.058   4.501  0.00  0.00    +0.221 C 
BRANCH  34  35
ATOM     35  C   UNL     1       0.315  -0.283   5.825  0.00  0.00    +0.126 A 
ATOM     36  C   UNL     1       0.759   0.107   7.033  0.00  0.00    +0.046 A 
ATOM     37  C   UNL     1      -0.132  -0.432   7.990  0.00  0.00    +0.041 A 
ATOM     38  C   UNL     1      -1.062  -1.126   7.309  0.00  0.00    +0.195 A 
ATOM     39  O   UNL     1      -0.787  -1.031   5.998  0.00  0.00    -0.466 OA
ENDBRANCH  34  35
ENDBRANCH  33  34
ENDBRANCH  28  29
ENDBRANCH   1  28
TORSDOF 9
