REMARK  Name = ZINC39359402
REMARK  9 active torsions:
REMARK  status: ('A' for Active; 'I' for Inactive)
REMARK    1  A    between atoms: C_1  and  O_2
REMARK    2  A    between atoms: O_2  and  C_3
REMARK    3  A    between atoms: C_5  and  C_13
REMARK    4  A    between atoms: C_7  and  O_11
REMARK    5  A    between atoms: C_8  and  O_9
REMARK    6  A    between atoms: O_9  and  C_10
REMARK    7  A    between atoms: O_11  and  C_12
REMARK    8  A    between atoms: C_18  and  C_28
REMARK    9  A    between atoms: C_21  and  O_27
REMARK                            x       y       z     vdW  Elec       q    Type
REMARK                         _______ _______ _______ _____ _____    ______ ____
ROOT
ATOM      1  C   UNL     1       2.462   0.340   4.203  0.00  0.00    +0.032 C 
ATOM      2  C   UNL     1       1.821  -0.012   5.545  0.00  0.00    +0.059 C 
ATOM      3  C   UNL     1       2.467   0.797   6.652  0.00  0.00    +0.014 C 
ATOM      4  C   UNL     1       3.765   1.155   6.559  0.00  0.00    +0.023 C 
ATOM      5  C   UNL     1       4.463   1.966   7.641  0.00  0.00    +0.090 C 
ATOM      6  C   UNL     1       3.531   2.025   8.814  0.00  0.00    +0.048 C 
ATOM      7  C   UNL     1       3.682   1.938  10.117  0.00  0.00    +0.235 C 
ATOM      8  N   UNL     1       2.467   1.927  10.731  0.00  0.00    -0.114 NA
ATOM      9  N   UNL     1       1.504   2.044   9.962  0.00  0.00    -0.157 NA
ATOM     10  C   UNL     1       2.025   2.212   8.604  0.00  0.00    +0.245 C 
ATOM     11  N   UNL     1       1.654   1.111   7.712  0.00  0.00    -0.321 N 
ATOM     12  C   UNL     1       4.543   0.803   5.443  0.00  0.00    +0.162 C 
ATOM     13  O   UNL     1       5.713   1.130   5.408  0.00  0.00    -0.292 OA
ATOM     14  C   UNL     1       3.961   0.033   4.291  0.00  0.00    +0.088 C 
ATOM     15  H   UNL     1       0.840   0.608   7.870  0.00  0.00    +0.148 HD
ENDROOT
BRANCH   5  16
ATOM     16  C   UNL     1       5.751   1.291   8.039  0.00  0.00    -0.016 A 
ATOM     17  C   UNL     1       5.730   0.007   8.550  0.00  0.00    +0.006 A 
ATOM     18  C   UNL     1       6.910  -0.612   8.915  0.00  0.00    +0.002 A 
ATOM     19  C   UNL     1       8.114   0.052   8.770  0.00  0.00    +0.021 A 
ATOM     20  C   UNL     1       8.137   1.337   8.259  0.00  0.00    +0.060 A 
ATOM     21  C   UNL     1       6.955   1.956   7.888  0.00  0.00    +0.063 A 
ATOM     22 CL   UNL     1       6.983   3.566   7.240  0.00  0.00    -0.082 Cl
ATOM     23 CL   UNL     1       9.648   2.172   8.078  0.00  0.00    -0.082 Cl
ENDBRANCH   5  16
BRANCH   1  26
ATOM     24  C   UNL     1       0.626  -0.619   1.042  0.00  0.00    +0.165 A 
ATOM     25  C   UNL     1       1.202   0.138   2.051  0.00  0.00    +0.053 A 
ATOM     26  C   UNL     1       1.837  -0.486   3.109  0.00  0.00    -0.036 A 
ATOM     27  C   UNL     1       1.900  -1.866   3.166  0.00  0.00    +0.053 A 
ATOM     28  C   UNL     1       1.327  -2.630   2.160  0.00  0.00    +0.165 A 
ATOM     29  C   UNL     1       0.683  -2.006   1.098  0.00  0.00    +0.204 A 
BRANCH  24  31
ATOM     30  C   UNL     1      -0.017   1.425   0.010  0.00  0.00    +0.277 C 
ATOM     31  O   UNL     1       0.002  -0.004   0.002  0.00  0.00    -0.491 OA
ENDBRANCH  24  31
BRANCH  29  32
ATOM     32  O   UNL     1       0.114  -2.753   0.113  0.00  0.00    -0.488 OA
ATOM     33  C   UNL     1       0.939  -3.090  -1.004  0.00  0.00    +0.277 C 
ENDBRANCH  29  32
BRANCH  28  34
ATOM     34  O   UNL     1       1.390  -3.987   2.217  0.00  0.00    -0.491 OA
ATOM     35  C   UNL     1       2.062  -4.559   3.340  0.00  0.00    +0.277 C 
ENDBRANCH  28  34
ENDBRANCH   1  26
BRANCH   7  36
ATOM     36  O   UNL     1       4.878   1.869  10.759  0.00  0.00    -0.491 OA
ATOM     37  H   UNL     1       4.805   1.810  11.721  0.00  0.00    +0.294 HD
ENDBRANCH   7  36
TORSDOF 6
