REMARK  Name = ZINC21257119
REMARK  8 active torsions:
REMARK  status: ('A' for Active; 'I' for Inactive)
REMARK    1  A    between atoms: C_1  and  C_2
REMARK    2  A    between atoms: C_2  and  O_3
REMARK    3  A    between atoms: O_3  and  C_4
REMARK    4  A    between atoms: C_6  and  C_14
REMARK    5  A    between atoms: C_9  and  O_10
REMARK    6  A    between atoms: O_10  and  C_11
REMARK    7  A    between atoms: C_11  and  C_13
REMARK    8  A    between atoms: C_19  and  C_24
REMARK                            x       y       z     vdW  Elec       q    Type
REMARK                         _______ _______ _______ _____ _____    ______ ____
ROOT
ATOM      1  C   UNL     1       1.861  -2.723   1.172  0.00  0.00    +0.136 C 
ATOM      2  C   UNL     1       3.326  -2.408   1.359  0.00  0.00    +0.036 C 
ATOM      3  C   UNL     1       4.018  -1.459   0.708  0.00  0.00    +0.017 C 
ATOM      4  C   UNL     1       5.497  -1.250   0.991  0.00  0.00    +0.059 C 
ATOM      5  C   UNL     1       5.803  -1.587   2.449  0.00  0.00    +0.033 C 
ATOM      6  C   UNL     1       5.414  -3.053   2.680  0.00  0.00    +0.088 C 
ATOM      7  C   UNL     1       3.967  -3.222   2.324  0.00  0.00    +0.163 C 
ATOM      8  O   UNL     1       3.322  -4.087   2.883  0.00  0.00    -0.292 OA
ATOM      9  N   UNL     1       3.501  -0.635  -0.240  0.00  0.00    -0.316 N 
ATOM     10  C   UNL     1       2.298   0.053  -0.125  0.00  0.00    +0.052 A 
ATOM     11  C   UNL     1       2.234   1.435  -0.114  0.00  0.00    +0.025 A 
ATOM     12  C   UNL     1       0.997   2.057  -0.077  0.00  0.00    +0.002 A 
ATOM     13  C   UNL     1      -0.162   1.302  -0.043  0.00  0.00    +0.002 A 
ATOM     14  C   UNL     1      -0.097  -0.080  -0.026  0.00  0.00    +0.025 A 
ATOM     15  C   UNL     1       1.139  -0.705  -0.060  0.00  0.00    +0.049 A 
ATOM     16  N   UNL     1       1.254  -2.092   0.020  0.00  0.00    -0.331 N 
ATOM     17  H   UNL     1       4.042  -0.474  -1.184  0.00  0.00    +0.152 HD
ATOM     18  H   UNL     1       0.875  -2.708  -0.809  0.00  0.00    +0.147 HD
ENDROOT
BRANCH   5  19
ATOM     19  C   UNL     1       7.273  -1.401   2.719  0.00  0.00    -0.025 A 
ATOM     20  C   UNL     1       8.206  -2.108   1.984  0.00  0.00    +0.005 A 
ATOM     21  C   UNL     1       9.555  -1.937   2.231  0.00  0.00    +0.000 A 
ATOM     22  C   UNL     1       9.973  -1.057   3.213  0.00  0.00    +0.001 A 
ATOM     23  C   UNL     1       9.041  -0.350   3.948  0.00  0.00    +0.020 A 
ATOM     24  C   UNL     1       7.690  -0.517   3.698  0.00  0.00    +0.044 A 
ATOM     25 CL   UNL     1       6.520   0.378   4.616  0.00  0.00    -0.083 Cl
ENDBRANCH   5  19
BRANCH   1  28
ATOM     26  C   UNL     1      -0.176  -2.811   4.352  0.00  0.00    +0.163 A 
ATOM     27  C   UNL     1       0.507  -3.217   3.217  0.00  0.00    +0.055 A 
ATOM     28  C   UNL     1       1.119  -2.280   2.406  0.00  0.00    -0.019 A 
ATOM     29  C   UNL     1       1.057  -0.937   2.729  0.00  0.00    +0.009 A 
ATOM     30  C   UNL     1       0.373  -0.524   3.857  0.00  0.00    +0.050 A 
ATOM     31  C   UNL     1      -0.243  -1.459   4.674  0.00  0.00    +0.173 A 
BRANCH  26  32
ATOM     32  O   UNL     1      -0.780  -3.732   5.150  0.00  0.00    -0.489 OA
BRANCH  32  34
ATOM     33  C   UNL     1      -1.406  -5.983   5.770  0.00  0.00    +0.048 C 
ATOM     34  C   UNL     1      -0.670  -5.102   4.758  0.00  0.00    +0.226 C 
ENDBRANCH  32  34
ENDBRANCH  26  32
BRANCH  31  35
ATOM     35  O   UNL     1      -0.912  -1.055   5.787  0.00  0.00    -0.422 OA
BRANCH  35  36
ATOM     36  C   UNL     1      -0.254  -1.130   6.954  0.00  0.00    +0.309 C 
ATOM     37  O   UNL     1       0.909  -1.458   6.972  0.00  0.00    -0.251 OA
ATOM     38  C   UNL     1      -0.966  -0.806   8.242  0.00  0.00    +0.136 C 
ENDBRANCH  35  36
ENDBRANCH  31  35
ENDBRANCH   1  28
TORSDOF 6
