REMARK  Name = ZINC05413374
REMARK  12 active torsions:
REMARK  status: ('A' for Active; 'I' for Inactive)
REMARK    1  A    between atoms: C_1  and  O_2
REMARK    2  A    between atoms: O_2  and  C_3
REMARK    3  A    between atoms: C_6  and  C_9
REMARK    4  A    between atoms: C_9  and  C_10
REMARK    5  A    between atoms: C_10  and  C_12
REMARK    6  A    between atoms: C_10  and  N_16
REMARK    7  A    between atoms: C_12  and  O_14
REMARK    8  A    between atoms: O_14  and  C_15
REMARK    9  A    between atoms: C_17  and  C_19
REMARK   10  A    between atoms: N_22  and  S_33
REMARK   11  A    between atoms: C_26  and  C_28
REMARK   12  A    between atoms: S_33  and  C_36
REMARK                            x       y       z     vdW  Elec       q    Type
REMARK                         _______ _______ _______ _____ _____    ______ ____
ROOT
ATOM      1  C   UNL     1       3.791   6.115  -3.104  0.00  0.00    +0.177 C 
ATOM      2  C   UNL     1       2.481   5.330  -2.958  0.00  0.00    +0.141 C 
ATOM      3  N   UNL     1       2.783   4.017  -2.371  0.00  0.00    -0.173 NA
ATOM      4  C   UNL     1       3.779   3.160  -3.028  0.00  0.00    +0.128 C 
ATOM      5  C   UNL     1       5.084   3.942  -3.177  0.00  0.00    +0.125 C 
ATOM      6  N   UNL     1       4.782   5.255  -3.764  0.00  0.00    -0.287 N 
ATOM      7  C   UNL     1       5.404   5.663  -4.888  0.00  0.00    +0.219 C 
ATOM      8  O   UNL     1       5.235   6.792  -5.299  0.00  0.00    -0.275 OA
ENDROOT
BRANCH   7   9
ATOM      9  C   UNL     1       6.308   4.717  -5.635  0.00  0.00    +0.072 C 
ATOM     10  C   UNL     1       7.542   4.408  -4.783  0.00  0.00    -0.007 C 
ATOM     11  C   UNL     1       8.486   3.497  -5.571  0.00  0.00    -0.082 C 
ATOM     12  C   UNL     1       7.719   4.424  -7.674  0.00  0.00    -0.082 C 
ATOM     13  C   UNL     1       6.753   5.364  -6.950  0.00  0.00    -0.007 C 
ATOM     14  N   UNL     1       8.895   4.165  -6.822  0.00  0.00    +0.379 N 
ATOM     15  H   UNL     1       9.553   3.561  -7.328  0.00  0.00    -0.086 HD
ATOM     16  H   UNL     1       9.352   5.056  -6.595  0.00  0.00    -0.086 HD
ENDBRANCH   7   9
BRANCH   1  18
ATOM     17  N   UNL     1       3.828   8.566  -3.437  0.00  0.00    -0.301 N 
ATOM     18  C   UNL     1       3.552   7.346  -3.940  0.00  0.00    +0.236 C 
ATOM     19  O   UNL     1       3.111   7.239  -5.064  0.00  0.00    -0.274 OA
ATOM     20  H   UNL     1       4.181   8.651  -2.537  0.00  0.00    +0.150 HD
BRANCH  17  21
ATOM     21  C   UNL     1       3.596   9.762  -4.250  0.00  0.00    +0.186 C 
BRANCH  21  22
ATOM     22  C   UNL     1       4.795  10.012  -5.129  0.00  0.00    +0.328 C 
ATOM     23  O   UNL     1       5.745   9.268  -5.082  0.00  0.00    -0.249 OA
BRANCH  22  24
ATOM     24  O   UNL     1       4.806  11.063  -5.964  0.00  0.00    -0.467 OA
ATOM     25  C   UNL     1       5.993  11.242  -6.782  0.00  0.00    +0.280 C 
ENDBRANCH  22  24
ENDBRANCH  21  22
BRANCH  21  26
ATOM     26  C   UNL     1       3.377  10.967  -3.332  0.00  0.00    +0.069 C 
BRANCH  26  30
ATOM     27  C   UNL     1      -0.216  10.411  -1.087  0.00  0.00    +0.120 A 
ATOM     28  C   UNL     1       0.994   9.955  -0.585  0.00  0.00    +0.046 A 
ATOM     29  C   UNL     1       2.154  10.136  -1.313  0.00  0.00    +0.007 A 
ATOM     30  C   UNL     1       2.110  10.771  -2.540  0.00  0.00    -0.045 A 
ATOM     31  C   UNL     1       0.905  11.231  -3.040  0.00  0.00    +0.007 A 
ATOM     32  C   UNL     1      -0.258  11.048  -2.319  0.00  0.00    +0.046 A 
BRANCH  27  34
ATOM     33  C   UNL     1      -2.569  10.729  -0.951  0.00  0.00    +0.277 C 
ATOM     34  O   UNL     1      -1.359  10.234  -0.373  0.00  0.00    -0.495 OA
ENDBRANCH  27  34
ENDBRANCH  26  30
ENDBRANCH  21  26
ENDBRANCH  17  21
ENDBRANCH   1  18
BRANCH   3  35
ATOM     35  S   UNL     1       2.020   3.516  -0.989  0.00  0.00    +0.061 S 
ATOM     36  O   UNL     1       1.596   4.691  -0.310  0.00  0.00    -0.153 OA
ATOM     37  O   UNL     1       2.869   2.551  -0.383  0.00  0.00    -0.153 OA
BRANCH  35  38
ATOM     38  C   UNL     1       0.559   2.663  -1.480  0.00  0.00    +0.105 A 
ATOM     39  C   UNL     1       0.598   1.300  -1.708  0.00  0.00    +0.028 A 
ATOM     40  C   UNL     1      -0.549   0.631  -2.094  0.00  0.00    +0.002 A 
ATOM     41  C   UNL     1      -1.733   1.326  -2.257  0.00  0.00    +0.000 A 
ATOM     42  C   UNL     1      -1.773   2.688  -2.024  0.00  0.00    +0.002 A 
ATOM     43  C   UNL     1      -0.626   3.357  -1.638  0.00  0.00    +0.028 A 
ENDBRANCH  35  38
ENDBRANCH   3  35
TORSDOF 10
