REMARK  Name = ZINC02532052
REMARK  8 active torsions:
REMARK  status: ('A' for Active; 'I' for Inactive)
REMARK    1  A    between atoms: C_5  and  C_7
REMARK    2  A    between atoms: C_7  and  O_9
REMARK    3  A    between atoms: O_9  and  C_10
REMARK    4  A    between atoms: C_13  and  C_16
REMARK    5  A    between atoms: N_17  and  N_18
REMARK    6  A    between atoms: C_19  and  C_21
REMARK    7  A    between atoms: C_21  and  N_22
REMARK    8  A    between atoms: C_23  and  C_25
REMARK                            x       y       z     vdW  Elec       q    Type
REMARK                         _______ _______ _______ _____ _____    ______ ____
ROOT
ATOM      1  C   UNL     1       3.138   5.132  -0.029  0.00  0.00    +0.138 C 
ATOM      2  N   UNL     1       2.903   3.858   0.049  0.00  0.00    -0.188 NA
ENDROOT
BRANCH   1   6
ATOM      3  C   UNL     1       7.136   6.558  -0.038  0.00  0.00    +0.132 A 
ATOM      4  C   UNL     1       6.080   7.457  -0.119  0.00  0.00    +0.047 A 
ATOM      5  C   UNL     1       4.781   6.999  -0.116  0.00  0.00    +0.013 A 
ATOM      6  C   UNL     1       4.526   5.627  -0.032  0.00  0.00    -0.005 A 
ATOM      7  C   UNL     1       5.591   4.727   0.055  0.00  0.00    +0.013 A 
ATOM      8  C   UNL     1       6.888   5.194   0.046  0.00  0.00    +0.047 A 
BRANCH   3   9
ATOM      9  O   UNL     1       8.416   7.014  -0.042  0.00  0.00    -0.422 OA
BRANCH   9  10
ATOM     10  C   UNL     1       8.825   7.696   1.046  0.00  0.00    +0.347 C 
ATOM     11  O   UNL     1       8.097   7.789   2.015  0.00  0.00    -0.244 OA
BRANCH  10  16
ATOM     12  C   UNL     1      12.241   8.821  -0.029  0.00  0.00    +0.001 A 
ATOM     13  C   UNL     1      12.659   9.521   1.090  0.00  0.00    +0.003 A 
ATOM     14  C   UNL     1      11.836   9.631   2.194  0.00  0.00    +0.039 A 
ATOM     15  C   UNL     1      10.585   9.040   2.189  0.00  0.00    +0.137 A 
ATOM     16  C   UNL     1      10.157   8.331   1.061  0.00  0.00    +0.094 A 
ATOM     17  C   UNL     1      10.999   8.222  -0.048  0.00  0.00    +0.018 A 
ATOM     18  F   UNL     1       9.781   9.146   3.269  0.00  0.00    -0.205 F 
ENDBRANCH  10  16
ENDBRANCH   9  10
ENDBRANCH   3   9
ENDBRANCH   1   6
BRANCH   2  19
ATOM     19  N   UNL     1       1.583   3.387   0.052  0.00  0.00    -0.206 N 
ATOM     20  C   UNL     1       1.340   2.064   0.134  0.00  0.00    +0.249 C 
ATOM     21  O   UNL     1       2.264   1.281   0.204  0.00  0.00    -0.272 OA
ATOM     22  H   UNL     1       0.845   4.014  -0.004  0.00  0.00    +0.177 HD
BRANCH  20  23
ATOM     23  C   UNL     1      -0.079   1.558   0.137  0.00  0.00    +0.202 C 
BRANCH  23  24
ATOM     24  N   UNL     1      -0.076   0.096   0.232  0.00  0.00    -0.303 N 
ATOM     25  C   UNL     1      -1.242  -0.580   0.252  0.00  0.00    +0.244 C 
ATOM     26  O   UNL     1      -2.296   0.022   0.190  0.00  0.00    -0.270 OA
ATOM     27  H   UNL     1       0.765  -0.385   0.281  0.00  0.00    +0.150 HD
BRANCH  25  28
ATOM     28  C   UNL     1      -1.239  -2.056   0.348  0.00  0.00    +0.038 A 
ATOM     29  C   UNL     1      -0.030  -2.751   0.413  0.00  0.00    +0.013 A 
ATOM     30  C   UNL     1      -0.034  -4.127   0.509  0.00  0.00    +0.002 A 
ATOM     31  C   UNL     1      -1.232  -4.820   0.529  0.00  0.00    +0.015 A 
ATOM     32  C   UNL     1      -2.434  -4.137   0.459  0.00  0.00    +0.019 A 
ATOM     33  C   UNL     1      -2.444  -2.759   0.369  0.00  0.00    +0.028 A 
ATOM     34 BR   UNL     1      -4.065  -5.093   0.487  0.00  0.00    -0.050 Br
ENDBRANCH  25  28
ENDBRANCH  23  24
ENDBRANCH  20  23
ENDBRANCH   2  19
TORSDOF 8
