REMARK  Name = ZINC28059758
REMARK  9 active torsions:
REMARK  status: ('A' for Active; 'I' for Inactive)
REMARK    1  A    between atoms: C_1  and  C_2
REMARK    2  A    between atoms: C_10  and  C_13
REMARK    3  A    between atoms: C_16  and  S_19
REMARK    4  A    between atoms: S_19  and  C_20
REMARK    5  A    between atoms: C_21  and  C_29
REMARK    6  A    between atoms: C_32  and  O_37
REMARK    7  A    between atoms: C_33  and  O_35
REMARK    8  A    between atoms: O_35  and  C_36
REMARK    9  A    between atoms: O_37  and  C_38
REMARK                            x       y       z     vdW  Elec       q    Type
REMARK                         _______ _______ _______ _____ _____    ______ ____
ROOT
ATOM      1  C   UNL     1       3.529   2.780  -0.314  0.00  0.00    +0.044 C 
ATOM      2  C   UNL     1       2.056   3.080  -0.218  0.00  0.00    -0.050 A 
ATOM      3  C   UNL     1       1.145   2.041  -0.141  0.00  0.00    +0.007 A 
ATOM      4  C   UNL     1      -0.212   2.300  -0.059  0.00  0.00    +0.046 A 
ATOM      5  C   UNL     1      -0.661   3.607  -0.044  0.00  0.00    +0.131 A 
ATOM      6  C   UNL     1       0.260   4.660  -0.121  0.00  0.00    +0.038 A 
ATOM      7  C   UNL     1       1.620   4.391  -0.209  0.00  0.00    +0.016 A 
ATOM      8  C   UNL     1      -0.257   6.050  -0.101  0.00  0.00    +0.050 C 
ATOM      9  C   UNL     1      -1.550   6.249  -0.360  0.00  0.00    +0.025 C 
ATOM     10  C   UNL     1      -2.432   5.061  -0.669  0.00  0.00    +0.234 C 
ATOM     11  O   UNL     1      -1.983   3.905   0.037  0.00  0.00    -0.479 OA
ATOM     12  C   UNL     1      -2.171   7.625  -0.360  0.00  0.00    +0.174 C 
ATOM     13  N   UNL     1      -1.257   8.588   0.238  0.00  0.00    -0.201 N 
ATOM     14  C   UNL     1       0.054   8.333   0.487  0.00  0.00    +0.240 A 
ATOM     15  N   UNL     1       0.566   9.409   1.012  0.00  0.00    -0.092 NA
ATOM     16  N   UNL     1      -0.334  10.326   1.116  0.00  0.00    -0.021 NA
ATOM     17  N   UNL     1      -1.469   9.897   0.666  0.00  0.00    -0.042 NA
ATOM     18  N   UNL     1       0.618   7.102   0.194  0.00  0.00    -0.282 N 
ATOM     19  H   UNL     1       1.705   6.933   0.186  0.00  0.00    +0.155 HD
ENDROOT
BRANCH  10  20
ATOM     20  C   UNL     1      -2.393   4.785  -2.150  0.00  0.00    -0.003 A 
ATOM     21  C   UNL     1      -1.273   4.201  -2.714  0.00  0.00    +0.008 A 
ATOM     22  C   UNL     1      -1.235   3.942  -4.069  0.00  0.00    +0.015 A 
ATOM     23  C   UNL     1      -2.319   4.280  -4.870  0.00  0.00    +0.008 A 
ATOM     24  C   UNL     1      -3.441   4.872  -4.301  0.00  0.00    +0.015 A 
ATOM     25  C   UNL     1      -3.474   5.123  -2.944  0.00  0.00    +0.008 A 
BRANCH  23  26
ATOM     26  S   UNL     1      -2.272   3.959  -6.602  0.00  0.00    -0.129 S 
ATOM     27  C   UNL     1      -0.646   3.198  -6.863  0.00  0.00    +0.090 C 
ENDBRANCH  23  26
ENDBRANCH  10  20
BRANCH  12  28
ATOM     28  C   UNL     1      -2.472   8.036  -1.778  0.00  0.00    -0.015 A 
ATOM     29  C   UNL     1      -1.447   8.134  -2.701  0.00  0.00    +0.010 A 
ATOM     30  C   UNL     1      -1.719   8.506  -4.004  0.00  0.00    +0.050 A 
ATOM     31  C   UNL     1      -3.020   8.792  -4.386  0.00  0.00    +0.162 A 
ATOM     32  C   UNL     1      -4.051   8.699  -3.456  0.00  0.00    +0.162 A 
ATOM     33  C   UNL     1      -3.772   8.321  -2.152  0.00  0.00    +0.055 A 
BRANCH  32  34
ATOM     34  O   UNL     1      -5.330   8.979  -3.826  0.00  0.00    -0.491 OA
ATOM     35  C   UNL     1      -6.337   8.862  -2.818  0.00  0.00    +0.277 C 
ENDBRANCH  32  34
BRANCH  31  36
ATOM     36  O   UNL     1      -3.289   9.163  -5.666  0.00  0.00    -0.491 OA
ATOM     37  C   UNL     1      -2.181   9.237  -6.566  0.00  0.00    +0.277 C 
ENDBRANCH  31  36
ENDBRANCH  12  28
TORSDOF 5
