REMARK  Name = ZINC32761085
REMARK  8 active torsions:
REMARK  status: ('A' for Active; 'I' for Inactive)
REMARK    1  A    between atoms: C_1  and  C_2
REMARK    2  A    between atoms: C_4  and  C_29
REMARK    3  A    between atoms: C_6  and  C_28
REMARK    4  A    between atoms: C_10  and  C_11
REMARK    5  A    between atoms: N_13  and  C_14
REMARK    6  A    between atoms: C_14  and  C_15
REMARK    7  A    between atoms: C_15  and  C_17
REMARK    8  A    between atoms: C_15  and  N_23
REMARK                            x       y       z     vdW  Elec       q    Type
REMARK                         _______ _______ _______ _____ _____    ______ ____
ROOT
ATOM      1  C   UNL     1       0.398  -3.017   2.062  0.00  0.00    +0.251 C 
ATOM      2  O   UNL     1       0.429  -2.607   3.207  0.00  0.00    -0.270 OA
ATOM      3  N   UNL     1       0.359  -2.145   1.035  0.00  0.00    -0.312 N 
ATOM      4  H   UNL     1       0.331  -2.515  -0.000  0.00  0.00    +0.149 HD
ENDROOT
BRANCH   1  14
ATOM      5  C   UNL     1       0.492  -5.196   4.170  0.00  0.00    +0.046 C 
ATOM      6  C   UNL     1       0.442  -5.486   2.692  0.00  0.00    -0.020 A 
ATOM      7  C   UNL     1       0.434  -6.814   2.236  0.00  0.00    +0.032 A 
ATOM      8  C   UNL     1       0.467  -8.020   2.979  0.00  0.00    +0.050 A 
ATOM      9  N   UNL     1       0.457  -9.170   2.343  0.00  0.00    -0.237 NA
ATOM     10  C   UNL     1       0.417  -9.250   1.024  0.00  0.00    +0.128 A 
ATOM     11  N   UNL     1       0.385  -8.167   0.271  0.00  0.00    -0.225 NA
ATOM     12  C   UNL     1       0.392  -6.975   0.826  0.00  0.00    +0.113 A 
ATOM     13  S   UNL     1       0.360  -5.306   0.226  0.00  0.00    -0.064 S 
ATOM     14  C   UNL     1       0.401  -4.463   1.798  0.00  0.00    +0.079 A 
ATOM     15  C   UNL     1       0.408 -10.606   0.366  0.00  0.00    +0.088 C 
ATOM     16  C   UNL     1       0.512  -7.984   4.485  0.00  0.00    +0.066 C 
ENDBRANCH   1  14
BRANCH   3  17
ATOM     17  C   UNL     1       0.356  -0.703   1.298  0.00  0.00    +0.094 C 
BRANCH  17  18
ATOM     18  C   UNL     1       0.146   0.054  -0.015  0.00  0.00    -0.020 C 
BRANCH  18  19
ATOM     19  C   UNL     1       0.236   1.536   0.241  0.00  0.00    -0.059 A 
ATOM     20  C   UNL     1      -0.801   2.193   0.877  0.00  0.00    +0.002 A 
ATOM     21  C   UNL     1      -0.716   3.552   1.116  0.00  0.00    +0.000 A 
ATOM     22  C   UNL     1       0.402   4.256   0.709  0.00  0.00    +0.000 A 
ATOM     23  C   UNL     1       1.436   3.601   0.067  0.00  0.00    +0.000 A 
ATOM     24  C   UNL     1       1.353   2.241  -0.167  0.00  0.00    +0.002 A 
ENDBRANCH  18  19
BRANCH  18  25
ATOM     25  N   UNL     1      -1.180  -0.269  -0.559  0.00  0.00    +0.385 N 
ATOM     26  C   UNL     1      -1.541   0.655  -1.665  0.00  0.00    -0.078 C 
ATOM     27  C   UNL     1      -2.642  -0.121  -2.430  0.00  0.00    -0.020 C 
ATOM     28  C   UNL     1      -2.148  -1.585  -2.356  0.00  0.00    -0.020 C 
ATOM     29  C   UNL     1      -1.195  -1.626  -1.147  0.00  0.00    -0.078 C 
ATOM     30  H   UNL     1      -1.879  -0.188   0.286  0.00  0.00    -0.081 HD
ENDBRANCH  18  25
ENDBRANCH  17  18
ENDBRANCH   3  17
TORSDOF 5
