REMARK  Name = ZINC51347583
REMARK  14 active torsions:
REMARK  status: ('A' for Active; 'I' for Inactive)
REMARK    1  A    between atoms: C_1  and  C_2
REMARK    2  A    between atoms: C_2  and  N_3
REMARK    3  A    between atoms: N_3  and  C_4
REMARK    4  A    between atoms: N_3  and  C_6
REMARK    5  A    between atoms: C_4  and  C_5
REMARK    6  A    between atoms: C_6  and  C_7
REMARK    7  A    between atoms: C_7  and  N_8
REMARK    8  A    between atoms: C_9  and  C_11
REMARK    9  A    between atoms: C_11  and  O_12
REMARK   10  A    between atoms: O_12  and  N_13
REMARK   11  A    between atoms: C_17  and  C_38
REMARK   12  A    between atoms: C_22  and  C_37
REMARK   13  A    between atoms: C_33  and  C_34
REMARK   14  A    between atoms: C_33  and  O_36
REMARK                            x       y       z     vdW  Elec       q    Type
REMARK                         _______ _______ _______ _____ _____    ______ ____
ROOT
ATOM      1  N   UNL     1       3.221  -8.092   4.614  0.00  0.00    -0.089 NA
ATOM      2  C   UNL     1       3.735  -8.654   5.664  0.00  0.00    +0.080 C 
ATOM      3  C   UNL     1       4.083  -7.817   6.867  0.00  0.00    +0.059 C 
ATOM      4  C   UNL     1       4.254  -8.704   8.100  0.00  0.00    +0.017 C 
ATOM      5  C   UNL     1       5.205  -9.867   7.793  0.00  0.00    -0.007 C 
ATOM      6  C   UNL     1       5.371 -10.732   9.033  0.00  0.00    +0.002 C 
ATOM      7  C   UNL     1       6.780 -11.250   9.234  0.00  0.00    +0.005 C 
ATOM      8  C   UNL     1       6.909 -12.011  10.572  0.00  0.00    +0.011 C 
ATOM      9  C   UNL     1       5.918 -13.150  10.562  0.00  0.00    +0.011 C 
ATOM     10  C   UNL     1       4.495 -12.573  10.444  0.00  0.00    +0.002 C 
ATOM     11  C   UNL     1       4.284 -11.787   9.175  0.00  0.00    -0.003 C 
ATOM     12  C   UNL     1       4.025 -12.657   7.966  0.00  0.00    +0.008 C 
ATOM     13  C   UNL     1       4.782 -12.180   6.729  0.00  0.00    +0.031 C 
ATOM     14  C   UNL     1       4.621 -10.681   6.665  0.00  0.00    -0.062 C 
ATOM     15  C   UNL     1       3.960 -10.105   5.676  0.00  0.00    +0.026 C 
ATOM     16  C   UNL     1       3.628 -13.821  10.657  0.00  0.00    +0.008 C 
ATOM     17  C   UNL     1       4.364 -14.550  11.816  0.00  0.00    +0.049 C 
ATOM     18  C   UNL     1       5.814 -13.998  11.837  0.00  0.00    +0.132 C 
ATOM     19  C   UNL     1       6.275 -14.114   9.428  0.00  0.00    +0.015 C 
ATOM     20  C   UNL     1       6.552  -9.298   7.339  0.00  0.00    +0.016 C 
ENDROOT
BRANCH  18  21
ATOM     21  C   UNL     1       6.041 -13.195  13.043  0.00  0.00    -0.070 C 
ATOM     22  C   UNL     1       6.224 -12.552  14.009  0.00  0.00    +0.007 C 
ENDBRANCH  18  21
BRANCH  18  23
ATOM     23  O   UNL     1       6.749 -15.077  11.772  0.00  0.00    -0.376 OA
ATOM     24  H   UNL     1       6.738 -15.655  12.547  0.00  0.00    +0.211 HD
ENDBRANCH  18  23
BRANCH   1  25
ATOM     25  O   UNL     1       3.002  -6.694   4.595  0.00  0.00    -0.384 OA
BRANCH  25  26
ATOM     26  C   UNL     1       2.431  -6.211   3.378  0.00  0.00    +0.358 C 
BRANCH  26  28
ATOM     27  N   UNL     1       1.715  -4.041   2.429  0.00  0.00    -0.314 N 
ATOM     28  C   UNL     1       2.242  -4.718   3.468  0.00  0.00    +0.253 C 
ATOM     29  O   UNL     1       2.565  -4.126   4.476  0.00  0.00    -0.272 OA
ATOM     30  H   UNL     1       1.456  -4.515   1.623  0.00  0.00    +0.149 HD
BRANCH  27  31
ATOM     31  C   UNL     1       1.531  -2.591   2.517  0.00  0.00    +0.086 C 
BRANCH  31  32
ATOM     32  C   UNL     1       0.920  -2.074   1.213  0.00  0.00    -0.060 C 
BRANCH  32  33
ATOM     33  N   UNL     1       0.624  -0.641   1.346  0.00  0.00    +0.380 N 
ATOM     34  H   UNL     1       0.037  -0.492   2.153  0.00  0.00    -0.082 HD
BRANCH  33  36
ATOM     35  C   UNL     1       1.564   1.580   1.769  0.00  0.00    -0.017 C 
ATOM     36  C   UNL     1       1.878   0.106   1.506  0.00  0.00    -0.082 C 
ENDBRANCH  33  36
BRANCH  33  37
ATOM     37  C   UNL     1      -0.074  -0.172   0.141  0.00  0.00    -0.082 C 
ATOM     38  C   UNL     1      -1.451  -0.835   0.059  0.00  0.00    -0.017 C 
ENDBRANCH  33  37
ENDBRANCH  32  33
ENDBRANCH  31  32
ENDBRANCH  27  31
ENDBRANCH  26  28
ENDBRANCH  25  26
ENDBRANCH   1  25
TORSDOF 10
