REMARK  Name = ZINC25750673
REMARK  8 active torsions:
REMARK  status: ('A' for Active; 'I' for Inactive)
REMARK    1  A    between atoms: C_3  and  C_26
REMARK    2  A    between atoms: C_5  and  N_7
REMARK    3  A    between atoms: C_8  and  C_10
REMARK    4  A    between atoms: C_10  and  C_11
REMARK    5  A    between atoms: C_11  and  C_12
REMARK    6  A    between atoms: C_12  and  N_13
REMARK    7  A    between atoms: C_17  and  N_23
REMARK    8  A    between atoms: C_27  and  C_28
REMARK                            x       y       z     vdW  Elec       q    Type
REMARK                         _______ _______ _______ _____ _____    ______ ____
ROOT
ATOM      1  N   UNL     1      -4.437   8.558  -3.019  0.00  0.00    -0.285 N 
ATOM      2  C   UNL     1      -3.977   7.314  -2.784  0.00  0.00    +0.217 C 
ATOM      3  O   UNL     1      -3.707   6.581  -3.712  0.00  0.00    -0.275 OA
ATOM      4  H   UNL     1      -4.754   9.195  -2.181  0.00  0.00    +0.155 HD
ENDROOT
BRANCH   1   9
ATOM      5  C   UNL     1      -4.336  10.865  -5.887  0.00  0.00    +0.003 A 
ATOM      6  C   UNL     1      -4.656  10.018  -6.928  0.00  0.00    +0.017 A 
ATOM      7  C   UNL     1      -4.908   8.665  -6.676  0.00  0.00    +0.027 A 
ATOM      8  C   UNL     1      -4.834   8.179  -5.368  0.00  0.00    +0.040 A 
ATOM      9  C   UNL     1      -4.512   9.040  -4.331  0.00  0.00    +0.035 A 
ATOM     10  C   UNL     1      -4.269  10.384  -4.593  0.00  0.00    +0.023 A 
BRANCH   7  11
ATOM     11  C   UNL     1      -5.240   7.783  -7.753  0.00  0.00    -0.060 C 
ATOM     12  C   UNL     1      -5.513   7.059  -8.636  0.00  0.00    -0.054 C 
BRANCH  12  13
ATOM     13  C   UNL     1      -5.846   6.177  -9.714  0.00  0.00    +0.062 A 
ATOM     14  C   UNL     1      -5.969   6.456 -11.065  0.00  0.00    +0.024 A 
ATOM     15  C   UNL     1      -6.302   5.428 -11.916  0.00  0.00    +0.009 A 
ATOM     16  C   UNL     1      -6.497   4.182 -11.411  0.00  0.00    +0.046 A 
ATOM     17  S   UNL     1      -6.202   4.428  -9.667  0.00  0.00    -0.088 S 
ENDBRANCH  12  13
ENDBRANCH   7  11
ENDBRANCH   1   9
BRANCH   2  18
ATOM     18  C   UNL     1      -3.799   6.832  -1.367  0.00  0.00    +0.098 C 
BRANCH  18  19
ATOM     19  C   UNL     1      -3.268   5.397  -1.380  0.00  0.00    +0.031 C 
BRANCH  19  20
ATOM     20  C   UNL     1      -3.087   4.908   0.059  0.00  0.00    +0.129 C 
BRANCH  20  21
ATOM     21  N   UNL     1      -2.579   3.534   0.047  0.00  0.00    -0.274 N 
ATOM     22  C   UNL     1      -1.238   3.150   0.040  0.00  0.00    +0.090 A 
ATOM     23  C   UNL     1      -0.046   3.857   0.042  0.00  0.00    +0.032 A 
ATOM     24  C   UNL     1       1.156   3.176   0.034  0.00  0.00    +0.035 A 
ATOM     25  C   UNL     1       1.172   1.793   0.023  0.00  0.00    +0.130 A 
ATOM     26  C   UNL     1      -0.012   1.081   0.021  0.00  0.00    +0.081 A 
ATOM     27  C   UNL     1      -1.223   1.755   0.023  0.00  0.00    +0.159 A 
ATOM     28  O   UNL     1      -2.513   1.339   0.030  0.00  0.00    -0.407 OA
ATOM     29  C   UNL     1      -3.322   2.409   0.040  0.00  0.00    +0.421 A 
ATOM     30  O   UNL     1      -4.538   2.371   0.044  0.00  0.00    -0.223 OA
BRANCH  25  31
ATOM     31  N   UNL     1       2.465   1.071   0.013  0.00  0.00    +0.057 N 
ATOM     32  O   UNL     1       2.483  -0.147   0.003  0.00  0.00    -0.126 OA
ATOM     33  O   UNL     1       3.511   1.696   0.015  0.00  0.00    -0.126 OA
ENDBRANCH  25  31
ENDBRANCH  20  21
ENDBRANCH  19  20
ENDBRANCH  18  19
ENDBRANCH   2  18
TORSDOF 8
