REMARK  Name = ZINC12521040
REMARK  11 active torsions:
REMARK  status: ('A' for Active; 'I' for Inactive)
REMARK    1  A    between atoms: C_1  and  C_2
REMARK    2  A    between atoms: C_2  and  O_3
REMARK    3  A    between atoms: O_3  and  C_4
REMARK    4  A    between atoms: C_7  and  S_10
REMARK    5  A    between atoms: S_10  and  N_13
REMARK    6  A    between atoms: N_13  and  C_14
REMARK    7  A    between atoms: C_18  and  C_20
REMARK    8  A    between atoms: N_22  and  C_23
REMARK    9  A    between atoms: C_23  and  C_24
REMARK   10  A    between atoms: C_24  and  C_26
REMARK   11  A    between atoms: C_24  and  N_66
REMARK                            x       y       z     vdW  Elec       q    Type
REMARK                         _______ _______ _______ _____ _____    ______ ____
ROOT
ATOM      1  C   UNL     1      -5.649   6.864  -3.452  0.00  0.00    +0.049 A 
ATOM      2  C   UNL     1      -6.319   7.058  -2.249  0.00  0.00    +0.024 A 
ATOM      3  C   UNL     1      -5.915   6.385  -1.112  0.00  0.00    +0.003 A 
ATOM      4  C   UNL     1      -4.844   5.516  -1.162  0.00  0.00    +0.013 A 
ATOM      5  C   UNL     1      -4.164   5.316  -2.364  0.00  0.00    +0.038 A 
ATOM      6  C   UNL     1      -4.568   5.999  -3.511  0.00  0.00    +0.037 A 
ENDROOT
BRANCH   5   7
ATOM      7  C   UNL     1      -3.015   4.387  -2.420  0.00  0.00    +0.244 C 
ATOM      8  O   UNL     1      -2.424   4.213  -3.468  0.00  0.00    -0.270 OA
ATOM      9  N   UNL     1      -2.623   3.732  -1.309  0.00  0.00    -0.312 N 
ATOM     10  H   UNL     1      -3.094   3.870  -0.473  0.00  0.00    +0.149 HD
BRANCH   9  11
ATOM     11  C   UNL     1      -1.484   2.812  -1.365  0.00  0.00    +0.097 C 
BRANCH  11  12
ATOM     12  C   UNL     1      -1.250   2.205   0.020  0.00  0.00    +0.016 C 
BRANCH  12  18
ATOM     13  C   UNL     1       0.013   4.181   0.623  0.00  0.00    -0.078 C 
ATOM     14  C   UNL     1       0.063   5.368   1.587  0.00  0.00    -0.019 C 
ATOM     15  C   UNL     1       0.273   4.851   3.014  0.00  0.00    -0.004 C 
ATOM     16  C   UNL     1      -0.857   3.882   3.369  0.00  0.00    -0.019 C 
ATOM     17  C   UNL     1      -0.880   2.738   2.353  0.00  0.00    -0.078 C 
ATOM     18  N   UNL     1      -1.111   3.299   1.004  0.00  0.00    +0.387 N 
ATOM     19  H   UNL     1      -1.977   3.849   1.016  0.00  0.00    -0.081 HD
ENDBRANCH  12  18
BRANCH  12  20
ATOM     20  C   UNL     1      -0.007   1.355  -0.007  0.00  0.00    +0.093 A 
ATOM     21  C   UNL     1       0.028   0.011   0.034  0.00  0.00    +0.043 A 
ATOM     22  C   UNL     1       1.389  -0.366  -0.020  0.00  0.00    +0.041 A 
ATOM     23  C   UNL     1       2.105   0.770  -0.091  0.00  0.00    +0.195 A 
ATOM     24  O   UNL     1       1.254   1.810  -0.083  0.00  0.00    -0.469 OA
ENDBRANCH  12  20
ENDBRANCH  11  12
ENDBRANCH   9  11
ENDBRANCH   5   7
BRANCH   1  25
ATOM     25  N   UNL     1      -6.061   7.547  -4.599  0.00  0.00    -0.216 N 
ATOM     26  H   UNL     1      -6.141   7.074  -5.442  0.00  0.00    +0.174 HD
BRANCH  25  27
ATOM     27  S   UNL     1      -6.415   9.163  -4.519  0.00  0.00    +0.072 S 
ATOM     28  O   UNL     1      -6.772   9.566  -5.834  0.00  0.00    -0.150 OA
ATOM     29  O   UNL     1      -7.283   9.334  -3.408  0.00  0.00    -0.150 OA
BRANCH  27  33
ATOM     30  C   UNL     1      -2.568  11.325  -3.502  0.00  0.00    +0.121 A 
ATOM     31  C   UNL     1      -2.912  11.105  -4.828  0.00  0.00    +0.047 A 
ATOM     32  C   UNL     1      -4.086  10.445  -5.136  0.00  0.00    +0.032 A 
ATOM     33  C   UNL     1      -4.918  10.004  -4.123  0.00  0.00    +0.109 A 
ATOM     34  C   UNL     1      -4.580  10.227  -2.801  0.00  0.00    +0.032 A 
ATOM     35  C   UNL     1      -3.405  10.882  -2.488  0.00  0.00    +0.047 A 
BRANCH  30  36
ATOM     36  O   UNL     1      -1.413  11.974  -3.197  0.00  0.00    -0.492 OA
BRANCH  36  38
ATOM     37  C   UNL     1       0.206  12.908  -1.665  0.00  0.00    +0.048 C 
ATOM     38  C   UNL     1      -1.124  12.165  -1.811  0.00  0.00    +0.225 C 
ENDBRANCH  36  38
ENDBRANCH  30  36
ENDBRANCH  27  33
ENDBRANCH  25  27
ENDBRANCH   1  25
TORSDOF 10
