REMARK  Name = ZINC01149194
REMARK  8 active torsions:
REMARK  status: ('A' for Active; 'I' for Inactive)
REMARK    1  A    between atoms: C_1  and  C_2
REMARK    2  A    between atoms: C_2  and  C_3
REMARK    3  A    between atoms: C_3  and  N_4
REMARK    4  A    between atoms: C_8  and  C_9
REMARK    5  A    between atoms: C_10  and  N_21
REMARK    6  A    between atoms: C_15  and  C_20
REMARK    7  A    between atoms: N_21  and  C_22
REMARK    8  A    between atoms: C_22  and  C_23
REMARK                            x       y       z     vdW  Elec       q    Type
REMARK                         _______ _______ _______ _____ _____    ______ ____
ROOT
ATOM      1  C   UNL     1      -3.713   5.918  -2.798  0.00  0.00    +0.081 A 
ATOM      2  C   UNL     1      -3.344   5.329  -1.565  0.00  0.00    +0.134 A 
ATOM      3  N   UNL     1      -3.970   5.690  -0.455  0.00  0.00    -0.214 NA
ATOM      4  C   UNL     1      -4.938   6.606  -0.464  0.00  0.00    +0.142 A 
ATOM      5  C   UNL     1      -5.563   6.954   0.747  0.00  0.00    +0.047 A 
ATOM      6  C   UNL     1      -6.558   7.886   0.747  0.00  0.00    +0.008 A 
ATOM      7  C   UNL     1      -6.944   8.485  -0.460  0.00  0.00    -0.034 A 
ATOM      8  C   UNL     1      -6.332   8.139  -1.615  0.00  0.00    +0.099 A 
ATOM      9  N   UNL     1      -5.336   7.208  -1.626  0.00  0.00    -0.267 N 
ATOM     10  C   UNL     1      -4.746   6.885  -2.797  0.00  0.00    +0.267 A 
ATOM     11  O   UNL     1      -5.097   7.419  -3.835  0.00  0.00    -0.267 OA
ATOM     12  C   UNL     1      -8.043   9.516  -0.471  0.00  0.00    +0.045 C 
ENDROOT
BRANCH   1  17
ATOM     13  N   UNL     1       0.448   5.469  -5.032  0.00  0.00    -0.255 N 
ATOM     14  C   UNL     1      -0.849   5.246  -5.163  0.00  0.00    +0.258 C 
ATOM     15  O   UNL     1      -1.293   4.700  -6.157  0.00  0.00    -0.269 OA
ATOM     16  C   UNL     1      -1.711   5.661  -4.108  0.00  0.00    +0.077 C 
ATOM     17  C   UNL     1      -3.067   5.549  -4.000  0.00  0.00    +0.037 C 
ATOM     18  S   UNL     1      -0.534   6.375  -2.967  0.00  0.00    -0.061 S 
ATOM     19  C   UNL     1       0.941   6.074  -3.929  0.00  0.00    +0.121 C 
ATOM     20  S   UNL     1       2.566   6.458  -3.550  0.00  0.00    -0.027 S 
BRANCH  13  21
ATOM     21  C   UNL     1       1.363   5.054  -6.098  0.00  0.00    +0.115 C 
BRANCH  21  23
ATOM     22  C   UNL     1       2.480   5.762  -8.218  0.00  0.00    +0.005 C 
ATOM     23  C   UNL     1       1.524   6.195  -7.104  0.00  0.00    +0.016 C 
ENDBRANCH  21  23
ENDBRANCH  13  21
ENDBRANCH   1  17
BRANCH   2  24
ATOM     24  N   UNL     1      -2.343   4.383  -1.521  0.00  0.00    -0.324 N 
ATOM     25  H   UNL     1      -1.889   4.118  -2.337  0.00  0.00    +0.148 HD
BRANCH  24  26
ATOM     26  C   UNL     1      -1.964   3.776  -0.242  0.00  0.00    +0.138 C 
BRANCH  26  27
ATOM     27  C   UNL     1      -0.855   2.781  -0.467  0.00  0.00    -0.027 A 
ATOM     28  C   UNL     1       0.463   3.191  -0.400  0.00  0.00    +0.009 A 
ATOM     29  C   UNL     1       1.484   2.282  -0.606  0.00  0.00    +0.050 A 
ATOM     30  C   UNL     1       1.188   0.957  -0.881  0.00  0.00    +0.166 A 
ATOM     31  C   UNL     1      -0.140   0.544  -0.949  0.00  0.00    +0.167 A 
ATOM     32  C   UNL     1      -1.159   1.462  -0.745  0.00  0.00    +0.054 A 
ATOM     33  O   UNL     1      -0.168  -0.791  -1.230  0.00  0.00    -0.453 OA
ATOM     34  C   UNL     1       1.154  -1.275  -0.931  0.00  0.00    +0.466 C 
ATOM     35  O   UNL     1       1.992  -0.119  -1.120  0.00  0.00    -0.453 OA
ENDBRANCH  26  27
ENDBRANCH  24  26
ENDBRANCH   2  24
TORSDOF 6
