REMARK  Name = ZINC19941578
REMARK  9 active torsions:
REMARK  status: ('A' for Active; 'I' for Inactive)
REMARK    1  A    between atoms: C_1  and  C_2
REMARK    2  A    between atoms: C_5  and  C_41
REMARK    3  A    between atoms: C_6  and  N_8
REMARK    4  A    between atoms: N_11  and  C_14
REMARK    5  A    between atoms: C_14  and  C_16
REMARK    6  A    between atoms: C_14  and  C_29
REMARK    7  A    between atoms: C_22  and  C_28
REMARK    8  A    between atoms: N_33  and  C_34
REMARK    9  A    between atoms: C_34  and  C_35
REMARK                            x       y       z     vdW  Elec       q    Type
REMARK                         _______ _______ _______ _____ _____    ______ ____
ROOT
ATOM      1  C   UNL     1       5.248   6.384   0.041  0.00  0.00    +0.162 C 
ENDROOT
BRANCH   1   2
ATOM      2  C   UNL     1       5.057   7.086   1.361  0.00  0.00    +0.042 A 
ATOM      3  C   UNL     1       6.095   7.186   2.228  0.00  0.00    +0.021 A 
ATOM      4  C   UNL     1       5.878   7.878   3.500  0.00  0.00    -0.001 A 
ATOM      5  C   UNL     1       6.911   8.017   4.433  0.00  0.00    +0.010 A 
ATOM      6  C   UNL     1       6.675   8.663   5.613  0.00  0.00    +0.001 A 
ATOM      7  C   UNL     1       5.419   9.183   5.895  0.00  0.00    +0.005 A 
ATOM      8  C   UNL     1       4.387   9.058   4.991  0.00  0.00    -0.026 A 
ATOM      9  C   UNL     1       4.604   8.404   3.782  0.00  0.00    +0.052 A 
ATOM     10  N   UNL     1       3.589   8.264   2.860  0.00  0.00    -0.322 N 
ATOM     11  H   UNL     1       2.590   8.672   3.074  0.00  0.00    +0.169 HD
ATOM     12  C   UNL     1       3.798   7.631   1.692  0.00  0.00    +0.254 A 
ATOM     13  O   UNL     1       2.878   7.526   0.900  0.00  0.00    -0.268 OA
ATOM     14  C   UNL     1       3.029   9.628   5.310  0.00  0.00    +0.046 C 
ENDBRANCH   1   2
BRANCH   1  18
ATOM     15  N   UNL     1       3.590   2.508  -0.228  0.00  0.00    -0.327 N 
ATOM     16  C   UNL     1       3.384   3.260   1.018  0.00  0.00    +0.120 C 
ATOM     17  C   UNL     1       4.429   4.375   1.115  0.00  0.00    +0.104 C 
ATOM     18  N   UNL     1       4.311   5.256  -0.054  0.00  0.00    -0.286 NA
ATOM     19  C   UNL     1       4.516   4.504  -1.300  0.00  0.00    +0.104 C 
ATOM     20  C   UNL     1       3.472   3.390  -1.398  0.00  0.00    +0.120 C 
BRANCH  15  26
ATOM     21  C   UNL     1      -1.029   0.862  -0.566  0.00  0.00    +0.044 C 
ATOM     22  C   UNL     1       0.454   0.608  -0.483  0.00  0.00    -0.049 A 
ATOM     23  C   UNL     1       0.935  -0.688  -0.501  0.00  0.00    +0.004 A 
ATOM     24  C   UNL     1       2.295  -0.926  -0.419  0.00  0.00    +0.005 A 
ATOM     25  C   UNL     1       3.178   0.132  -0.331  0.00  0.00    -0.029 A 
ATOM     26  C   UNL     1       2.699   1.436  -0.318  0.00  0.00    +0.033 A 
ATOM     27  C   UNL     1       1.332   1.671  -0.394  0.00  0.00    +0.026 A 
ATOM     28  C   UNL     1       4.660  -0.128  -0.249  0.00  0.00    +0.045 C 
ENDBRANCH  15  26
ENDBRANCH   1  18
BRANCH   1  29
ATOM     29  C   UNL     1       6.662   5.872  -0.057  0.00  0.00    +0.173 A 
ATOM     30  N   UNL     1       7.178   4.868   0.609  0.00  0.00    -0.111 NA
ATOM     31  N   UNL     1       8.408   4.742   0.247  0.00  0.00    -0.023 NA
ATOM     32  N   UNL     1       8.692   5.644  -0.626  0.00  0.00    -0.044 NA
ATOM     33  N   UNL     1       7.641   6.361  -0.840  0.00  0.00    -0.223 N 
BRANCH  33  34
ATOM     34  C   UNL     1       7.534   7.494  -1.762  0.00  0.00    +0.182 C 
BRANCH  34  35
ATOM     35  C   UNL     1       8.014   8.747  -1.076  0.00  0.00    -0.026 A 
ATOM     36  C   UNL     1       7.105   9.595  -0.472  0.00  0.00    +0.005 A 
ATOM     37  C   UNL     1       7.545  10.742   0.162  0.00  0.00    +0.000 A 
ATOM     38  C   UNL     1       8.893  11.046   0.182  0.00  0.00    +0.000 A 
ATOM     39  C   UNL     1       9.802  10.201  -0.427  0.00  0.00    +0.000 A 
ATOM     40  C   UNL     1       9.362   9.051  -1.056  0.00  0.00    +0.005 A 
ENDBRANCH  34  35
ENDBRANCH  33  34
ENDBRANCH   1  29
TORSDOF 6
