REMARK  Name = ZINC41584273
REMARK  13 active torsions:
REMARK  status: ('A' for Active; 'I' for Inactive)
REMARK    1  A    between atoms: C_1  and  C_2
REMARK    2  A    between atoms: C_2  and  C_3
REMARK    3  A    between atoms: C_3  and  C_4
REMARK    4  A    between atoms: C_4  and  N_5
REMARK    5  A    between atoms: N_5  and  C_6
REMARK    6  A    between atoms: N_5  and  C_10
REMARK    7  A    between atoms: C_6  and  C_7
REMARK    8  A    between atoms: C_7  and  C_8
REMARK    9  A    between atoms: C_8  and  C_9
REMARK   10  A    between atoms: C_10  and  C_11
REMARK   11  A    between atoms: C_12  and  O_33
REMARK   12  A    between atoms: C_18  and  C_29
REMARK   13  A    between atoms: C_19  and  C_22
REMARK                            x       y       z     vdW  Elec       q    Type
REMARK                         _______ _______ _______ _____ _____    ______ ____
ROOT
ATOM      1  C   UNL     1      -4.579  -4.024   0.150  0.00  0.00    +0.020 A 
ATOM      2  C   UNL     1      -5.230  -3.821   1.355  0.00  0.00    +0.122 A 
ATOM      3  C   UNL     1      -6.543  -4.252   1.535  0.00  0.00    +0.046 A 
ATOM      4  C   UNL     1      -7.208  -4.878   0.518  0.00  0.00    +0.019 A 
ATOM      5  C   UNL     1      -6.566  -5.087  -0.701  0.00  0.00    +0.065 A 
ATOM      6  C   UNL     1      -5.240  -4.657  -0.894  0.00  0.00    +0.144 A 
ATOM      7  O   UNL     1      -4.620  -4.870  -2.071  0.00  0.00    -0.450 OA
ATOM      8  C   UNL     1      -5.297  -5.199  -3.173  0.00  0.00    +0.219 A 
ATOM      9  C   UNL     1      -6.582  -5.640  -3.142  0.00  0.00    +0.076 A 
ATOM     10  C   UNL     1      -7.249  -5.751  -1.828  0.00  0.00    +0.201 A 
ATOM     11  O   UNL     1      -8.305  -6.343  -1.685  0.00  0.00    -0.286 OA
ENDROOT
BRANCH   9  12
ATOM     12  C   UNL     1      -7.291  -6.010  -4.391  0.00  0.00    -0.011 A 
ATOM     13  C   UNL     1      -6.971  -7.195  -5.052  0.00  0.00    +0.010 A 
ATOM     14  C   UNL     1      -7.633  -7.535  -6.213  0.00  0.00    +0.016 A 
ATOM     15  C   UNL     1      -8.615  -6.702  -6.722  0.00  0.00    +0.018 A 
ATOM     16  C   UNL     1      -8.937  -5.524  -6.070  0.00  0.00    +0.016 A 
ATOM     17  C   UNL     1      -8.284  -5.178  -4.905  0.00  0.00    +0.010 A 
ATOM     18 BR   UNL     1      -9.519  -7.174  -8.315  0.00  0.00    -0.050 Br
ENDBRANCH   9  12
BRANCH   8  19
ATOM     19  C   UNL     1      -4.608  -5.075  -4.507  0.00  0.00    +0.451 C 
ATOM     20  F   UNL     1      -5.535  -5.293  -5.532  0.00  0.00    -0.163 F 
ATOM     21  F   UNL     1      -4.065  -3.792  -4.635  0.00  0.00    -0.163 F 
ATOM     22  F   UNL     1      -3.585  -6.026  -4.593  0.00  0.00    -0.163 F 
ENDBRANCH   8  19
BRANCH   2  23
ATOM     23  O   UNL     1      -4.583  -3.198   2.372  0.00  0.00    -0.506 OA
ATOM     24  H   UNL     1      -4.690  -2.237   2.376  0.00  0.00    +0.292 HD
ENDBRANCH   2  23
BRANCH   1  25
ATOM     25  C   UNL     1      -3.159  -3.553  -0.030  0.00  0.00    -0.036 C 
BRANCH  25  26
ATOM     26  N   UNL     1      -3.157  -2.253  -0.713  0.00  0.00    +0.383 N 
ATOM     27  H   UNL     1      -3.664  -2.329  -1.582  0.00  0.00    -0.081 HD
BRANCH  26  28
ATOM     28  C   UNL     1      -3.802  -1.248   0.143  0.00  0.00    -0.078 C 
BRANCH  28  29
ATOM     29  C   UNL     1      -3.913   0.075  -0.616  0.00  0.00    -0.019 C 
BRANCH  29  31
ATOM     30  C   UNL     1      -4.694   2.444  -0.484  0.00  0.00    +0.004 C 
ATOM     31  C   UNL     1      -4.584   1.121   0.276  0.00  0.00    -0.005 C 
ENDBRANCH  29  31
ENDBRANCH  28  29
ENDBRANCH  26  28
BRANCH  26  32
ATOM     32  C   UNL     1      -1.773  -1.845  -0.988  0.00  0.00    -0.078 C 
BRANCH  32  33
ATOM     33  C   UNL     1      -1.152  -2.804  -2.006  0.00  0.00    -0.019 C 
BRANCH  33  34
ATOM     34  C   UNL     1       0.317  -2.434  -2.225  0.00  0.00    -0.005 C 
ATOM     35  C   UNL     1       0.970  -3.465  -3.147  0.00  0.00    +0.004 C 
ENDBRANCH  33  34
ENDBRANCH  32  33
ENDBRANCH  26  32
ENDBRANCH  25  26
ENDBRANCH   1  25
TORSDOF 11
