REMARK  Name = ZINC09375272
REMARK  9 active torsions:
REMARK  status: ('A' for Active; 'I' for Inactive)
REMARK    1  A    between atoms: C_1  and  C_2
REMARK    2  A    between atoms: C_2  and  C_3
REMARK    3  A    between atoms: C_3  and  C_4
REMARK    4  A    between atoms: C_3  and  C_5
REMARK    5  A    between atoms: C_3  and  C_6
REMARK    6  A    between atoms: C_12  and  C_16
REMARK    7  A    between atoms: N_18  and  N_19
REMARK    8  A    between atoms: C_20  and  C_21
REMARK    9  A    between atoms: C_26  and  O_27
REMARK                            x       y       z     vdW  Elec       q    Type
REMARK                         _______ _______ _______ _____ _____    ______ ____
ROOT
ATOM      1  C   UNL     1       0.739  -2.027  -1.265  0.00  0.00    -0.001 C 
ATOM      2  C   UNL     1       1.477  -2.533  -0.024  0.00  0.00    +0.010 C 
ATOM      3  C   UNL     1       1.261  -4.044   0.132  0.00  0.00    +0.058 C 
ATOM      4  C   UNL     1       1.586  -4.705  -1.185  0.00  0.00    +0.067 A 
ATOM      5  C   UNL     1       1.676  -4.003  -2.394  0.00  0.00    +0.006 A 
ATOM      6  C   UNL     1       1.988  -4.938  -3.349  0.00  0.00    +0.125 A 
ATOM      7  N   UNL     1       2.069  -6.136  -2.689  0.00  0.00    -0.272 N 
ATOM      8  H   UNL     1       2.275  -6.989  -3.102  0.00  0.00    +0.189 HD
ATOM      9  N   UNL     1       1.829  -5.958  -1.435  0.00  0.00    -0.178 NA
ATOM     10  C   UNL     1       1.456  -2.521  -2.530  0.00  0.00    +0.043 C 
ENDROOT
BRANCH   6  11
ATOM     11  C   UNL     1       2.193  -4.702  -4.786  0.00  0.00    +0.281 C 
ATOM     12  O   UNL     1       2.090  -3.578  -5.239  0.00  0.00    -0.267 OA
ATOM     13  N   UNL     1       2.497  -5.732  -5.601  0.00  0.00    -0.202 N 
ATOM     14  H   UNL     1       2.580  -6.628  -5.240  0.00  0.00    +0.178 HD
BRANCH  13  15
ATOM     15  N   UNL     1       2.693  -5.508  -6.970  0.00  0.00    -0.187 NA
ATOM     16  C   UNL     1       2.985  -6.500  -7.755  0.00  0.00    +0.142 C 
BRANCH  16  17
ATOM     17  C   UNL     1       3.191  -6.264  -9.195  0.00  0.00    +0.037 A 
ATOM     18  C   UNL     1       3.500  -7.329 -10.044  0.00  0.00    +0.028 A 
ATOM     19  C   UNL     1       3.692  -7.101 -11.391  0.00  0.00    +0.019 A 
ATOM     20  C   UNL     1       3.578  -5.820 -11.906  0.00  0.00    +0.019 A 
ATOM     21  C   UNL     1       3.273  -4.758 -11.075  0.00  0.00    +0.047 A 
ATOM     22  C   UNL     1       3.072  -4.970  -9.721  0.00  0.00    +0.126 A 
ATOM     23 BR   UNL     1       4.111  -8.543 -12.540  0.00  0.00    -0.050 Br
BRANCH  22  24
ATOM     24  O   UNL     1       2.767  -3.928  -8.906  0.00  0.00    -0.506 OA
ATOM     25  H   UNL     1       3.538  -3.488  -8.524  0.00  0.00    +0.292 HD
ENDBRANCH  22  24
ENDBRANCH  16  17
ENDBRANCH  13  15
ENDBRANCH   6  11
BRANCH   1  26
ATOM     26  C   UNL     1       0.718  -0.497  -1.257  0.00  0.00    -0.032 C 
ATOM     27  C   UNL     1      -0.022   0.009  -2.496  0.00  0.00    +0.011 C 
ATOM     28  C   UNL     1       2.154   0.032  -1.268  0.00  0.00    +0.011 C 
BRANCH  26  30
ATOM     29  C   UNL     1      -0.019   1.526   0.010  0.00  0.00    +0.004 C 
ATOM     30  C   UNL     1       0.002  -0.004   0.002  0.00  0.00    +0.003 C 
ENDBRANCH  26  30
ENDBRANCH   1  26
TORSDOF 6
