REMARK  Name = ZINC00675658
REMARK  11 active torsions:
REMARK  status: ('A' for Active; 'I' for Inactive)
REMARK    1  A    between atoms: C_1  and  C_2
REMARK    2  A    between atoms: C_5  and  C_24
REMARK    3  A    between atoms: C_7  and  O_8
REMARK    4  A    between atoms: O_8  and  C_9
REMARK    5  A    between atoms: C_9  and  C_10
REMARK    6  A    between atoms: N_12  and  N_13
REMARK    7  A    between atoms: C_14  and  C_15
REMARK    8  A    between atoms: C_17  and  O_23
REMARK    9  A    between atoms: C_18  and  O_22
REMARK   10  A    between atoms: C_24  and  C_25
REMARK   11  A    between atoms: C_24  and  C_26
REMARK                            x       y       z     vdW  Elec       q    Type
REMARK                         _______ _______ _______ _____ _____    ______ ____
ROOT
ATOM      1  C   UNL     1      -2.798  -2.003   4.993  0.00  0.00    +0.270 C 
ATOM      2  O   UNL     1      -3.336  -1.463   5.937  0.00  0.00    -0.270 OA
ATOM      3  N   UNL     1      -2.746  -3.348   4.926  0.00  0.00    -0.204 N 
ATOM      4  H   UNL     1      -2.316  -3.779   4.171  0.00  0.00    +0.177 HD
ENDROOT
BRANCH   3   5
ATOM      5  N   UNL     1      -3.315  -4.122   5.945  0.00  0.00    -0.188 NA
ATOM      6  C   UNL     1      -3.265  -5.418   5.880  0.00  0.00    +0.138 C 
BRANCH   6   7
ATOM      7  C   UNL     1      -3.863  -6.233   6.953  0.00  0.00    -0.001 A 
ATOM      8  C   UNL     1      -3.816  -7.628   6.882  0.00  0.00    +0.058 A 
ATOM      9  C   UNL     1      -4.373  -8.388   7.893  0.00  0.00    +0.160 A 
ATOM     10  C   UNL     1      -4.990  -7.763   8.975  0.00  0.00    +0.173 A 
ATOM     11  C   UNL     1      -5.043  -6.378   9.044  0.00  0.00    +0.063 A 
ATOM     12  C   UNL     1      -4.483  -5.613   8.041  0.00  0.00    +0.028 A 
ATOM     13 BR   UNL     1      -5.882  -5.537  10.515  0.00  0.00    -0.046 Br
BRANCH  10  14
ATOM     14  O   UNL     1      -5.543  -8.513   9.966  0.00  0.00    -0.503 OA
ATOM     15  H   UNL     1      -6.472  -8.737   9.818  0.00  0.00    +0.292 HD
ENDBRANCH  10  14
BRANCH   9  16
ATOM     16  O   UNL     1      -4.324  -9.745   7.830  0.00  0.00    -0.503 OA
ATOM     17  H   UNL     1      -5.078 -10.146   7.377  0.00  0.00    +0.292 HD
ENDBRANCH   9  16
ENDBRANCH   6   7
ENDBRANCH   3   5
BRANCH   1  18
ATOM     18  C   UNL     1      -2.186  -1.169   3.896  0.00  0.00    +0.326 C 
BRANCH  18  19
ATOM     19  O   UNL     1      -2.368   0.217   4.194  0.00  0.00    -0.482 OA
BRANCH  19  26
ATOM     20  C   UNL     1      -2.717   2.962   4.763  0.00  0.00    +0.047 C 
ATOM     21  C   UNL     1      -2.012   2.471   3.524  0.00  0.00    -0.009 A 
ATOM     22  C   UNL     1      -1.506   3.377   2.612  0.00  0.00    +0.007 A 
ATOM     23  C   UNL     1      -0.855   2.929   1.478  0.00  0.00    +0.004 A 
ATOM     24  C   UNL     1      -0.718   1.572   1.248  0.00  0.00    -0.041 A 
ATOM     25  C   UNL     1      -1.222   0.662   2.157  0.00  0.00    +0.049 A 
ATOM     26  C   UNL     1      -1.871   1.110   3.298  0.00  0.00    +0.124 A 
BRANCH  24  27
ATOM     27  C   UNL     1      -0.013   1.086   0.008  0.00  0.00    +0.013 C 
ATOM     28  C   UNL     1       1.423   1.615  -0.003  0.00  0.00    +0.012 C 
ATOM     29  C   UNL     1      -0.753   1.593  -1.232  0.00  0.00    +0.012 C 
ENDBRANCH  24  27
ENDBRANCH  19  26
ENDBRANCH  18  19
ENDBRANCH   1  18
TORSDOF 8
