REMARK  Name = ZINC59791101
REMARK  9 active torsions:
REMARK  status: ('A' for Active; 'I' for Inactive)
REMARK    1  A    between atoms: C_3  and  N_32
REMARK    2  A    between atoms: C_6  and  C_7
REMARK    3  A    between atoms: C_10  and  S_13
REMARK    4  A    between atoms: N_11  and  N_12
REMARK    5  A    between atoms: S_13  and  C_14
REMARK    6  A    between atoms: C_14  and  C_15
REMARK    7  A    between atoms: N_17  and  C_18
REMARK    8  A    between atoms: C_21  and  S_24
REMARK    9  A    between atoms: S_24  and  N_27
REMARK                            x       y       z     vdW  Elec       q    Type
REMARK                         _______ _______ _______ _____ _____    ______ ____
ROOT
ATOM      1  C   UNL     1      -5.302  -3.558  -0.045  0.00  0.00    +0.173 C 
ENDROOT
BRANCH   1   2
ATOM      2  C   UNL     1      -6.109  -4.818  -0.228  0.00  0.00    +0.227 C 
ATOM      3  O   UNL     1      -5.559  -5.848  -0.554  0.00  0.00    -0.275 OA
ATOM      4  N   UNL     1      -7.442  -4.799  -0.029  0.00  0.00    -0.285 N 
ATOM      5  H   UNL     1      -7.872  -3.993   0.296  0.00  0.00    +0.155 HD
BRANCH   4   6
ATOM      6  C   UNL     1      -8.205  -5.942  -0.292  0.00  0.00    +0.034 A 
ATOM      7  C   UNL     1      -9.490  -5.818  -0.805  0.00  0.00    +0.025 A 
ATOM      8  C   UNL     1     -10.241  -6.948  -1.064  0.00  0.00    +0.030 A 
ATOM      9  C   UNL     1      -9.714  -8.202  -0.813  0.00  0.00    +0.106 A 
ATOM     10  C   UNL     1      -8.435  -8.328  -0.302  0.00  0.00    +0.030 A 
ATOM     11  C   UNL     1      -7.677  -7.202  -0.047  0.00  0.00    +0.025 A 
BRANCH   9  12
ATOM     12  S   UNL     1     -10.675  -9.641  -1.144  0.00  0.00    +0.061 S 
ATOM     13  O   UNL     1     -10.161 -10.672  -0.313  0.00  0.00    -0.153 OA
ATOM     14  O   UNL     1     -12.037  -9.238  -1.104  0.00  0.00    -0.153 OA
BRANCH  12  15
ATOM     15  N   UNL     1     -10.360 -10.091  -2.707  0.00  0.00    -0.177 NA
ATOM     16  C   UNL     1     -11.093  -9.630  -3.895  0.00  0.00    +0.109 C 
ATOM     17  C   UNL     1     -10.467 -10.330  -5.120  0.00  0.00    +0.018 C 
ATOM     18  C   UNL     1      -9.786 -11.577  -4.496  0.00  0.00    +0.018 C 
ATOM     19  C   UNL     1      -9.295 -11.014  -3.137  0.00  0.00    +0.109 C 
ENDBRANCH  12  15
ENDBRANCH   9  12
ENDBRANCH   4   6
ENDBRANCH   1   2
BRANCH   1  20
ATOM     20  S   UNL     1      -3.554  -3.906  -0.383  0.00  0.00    -0.075 S 
BRANCH  20  24
ATOM     21  C   UNL     1      -1.263  -0.768   0.033  0.00  0.00    +0.182 A 
ATOM     22  N   UNL     1      -2.454  -0.296   0.320  0.00  0.00    -0.127 NA
ATOM     23  N   UNL     1      -3.331  -1.230   0.225  0.00  0.00    -0.121 NA
ATOM     24  C   UNL     1      -2.754  -2.357  -0.129  0.00  0.00    +0.209 A 
ATOM     25  N   UNL     1      -1.420  -2.102  -0.269  0.00  0.00    -0.224 N 
BRANCH  21  31
ATOM     26  C   UNL     1      -0.013   1.386   0.046  0.00  0.00    +0.014 A 
ATOM     27  C   UNL     1       1.175   2.088   0.043  0.00  0.00    +0.033 A 
ATOM     28  C   UNL     1       2.382   1.412   0.021  0.00  0.00    +0.126 A 
ATOM     29  C   UNL     1       2.407   0.029   0.003  0.00  0.00    +0.033 A 
ATOM     30  C   UNL     1       1.226  -0.685   0.006  0.00  0.00    +0.014 A 
ATOM     31  C   UNL     1       0.005  -0.009   0.029  0.00  0.00    +0.021 A 
BRANCH  28  32
ATOM     32  N   UNL     1       3.653   2.172   0.017  0.00  0.00    +0.056 N 
ATOM     33  O   UNL     1       3.634   3.381   0.033  0.00  0.00    -0.126 OA
ATOM     34  O   UNL     1       4.709   1.584  -0.001  0.00  0.00    -0.126 OA
ENDBRANCH  28  32
ENDBRANCH  21  31
BRANCH  25  35
ATOM     35  N   UNL     1      -0.443  -2.986  -0.629  0.00  0.00    -0.295 N 
ATOM     36  H   UNL     1      -0.050  -3.441   0.181  0.00  0.00    +0.163 HD
ATOM     37  H   UNL     1      -0.795  -3.664  -1.289  0.00  0.00    +0.163 HD
ENDBRANCH  25  35
ENDBRANCH  20  24
ENDBRANCH   1  20
TORSDOF 9
