REMARK  Name = ZINC37147229
REMARK  9 active torsions:
REMARK  status: ('A' for Active; 'I' for Inactive)
REMARK    1  A    between atoms: C_1  and  C_2
REMARK    2  A    between atoms: C_2  and  N_3
REMARK    3  A    between atoms: N_3  and  C_4
REMARK    4  A    between atoms: N_3  and  C_8
REMARK    5  A    between atoms: C_4  and  C_5
REMARK    6  A    between atoms: C_5  and  C_6
REMARK    7  A    between atoms: C_5  and  C_7
REMARK    8  A    between atoms: C_11  and  C_19
REMARK    9  A    between atoms: C_15  and  C_17
REMARK                            x       y       z     vdW  Elec       q    Type
REMARK                         _______ _______ _______ _____ _____    ______ ____
ROOT
ATOM      1  C   UNL     1      -1.148  -1.163  -0.346  0.00  0.00    -0.051 C 
ATOM      2  C   UNL     1      -2.300  -1.034   0.652  0.00  0.00    -0.011 C 
ATOM      3  C   UNL     1      -3.232  -2.239   0.515  0.00  0.00    -0.015 C 
ATOM      4  C   UNL     1      -3.793  -2.290  -0.908  0.00  0.00    +0.004 C 
ATOM      5  C   UNL     1      -2.641  -2.420  -1.906  0.00  0.00    +0.017 C 
ATOM      6  C   UNL     1      -1.709  -1.214  -1.768  0.00  0.00    +0.078 C 
ATOM      7  C   UNL     1      -2.451  -3.523   0.801  0.00  0.00    +0.007 C 
ENDROOT
BRANCH   1   8
ATOM      8  N   UNL     1      -0.253  -0.006  -0.214  0.00  0.00    +0.382 N 
ATOM      9  H   UNL     1      -0.623   0.768  -0.745  0.00  0.00    -0.081 HD
BRANCH   8  11
ATOM     10  C   UNL     1       0.783   1.579   1.339  0.00  0.00    -0.017 C 
ATOM     11  C   UNL     1      -0.151   0.375   1.201  0.00  0.00    -0.082 C 
ENDBRANCH   8  11
BRANCH   8  12
ATOM     12  C   UNL     1       1.080  -0.356  -0.724  0.00  0.00    -0.075 C 
BRANCH  12  13
ATOM     13  C   UNL     1       1.710  -1.417   0.182  0.00  0.00    -0.034 C 
ATOM     14  C   UNL     1       1.323  -2.810  -0.318  0.00  0.00    +0.005 C 
ATOM     15  C   UNL     1       3.232  -1.270   0.156  0.00  0.00    +0.005 C 
ENDBRANCH  12  13
ENDBRANCH   8  12
ENDBRANCH   1   8
BRANCH   6  16
ATOM     16  C   UNL     1      -0.600  -1.339  -2.729  0.00  0.00    +0.064 C 
ATOM     17  N   UNL     1       0.255  -1.435  -3.470  0.00  0.00    -0.196 NA
ENDBRANCH   6  16
TORSDOF 5
