REMARK  Name = ZINC66412953
REMARK  4 active torsions:
REMARK  status: ('A' for Active; 'I' for Inactive)
REMARK    1  A    between atoms: C_1  and  C_2
REMARK    2  A    between atoms: C_5  and  C_7
REMARK    3  A    between atoms: C_13  and  C_15
REMARK    4  A    between atoms: C_18  and  N_20
REMARK                            x       y       z     vdW  Elec       q    Type
REMARK                         _______ _______ _______ _____ _____    ______ ____
ROOT
ATOM      1  C   UNL     1       1.039  -4.034  -0.024  0.00  0.00    +0.177 A 
ATOM      2  N   UNL     1       2.341  -4.268  -0.026  0.00  0.00    -0.203 NA
ATOM      3  C   UNL     1       2.737  -5.527  -0.034  0.00  0.00    +0.185 A 
ATOM      4  S   UNL     1       1.285  -6.373  -0.040  0.00  0.00    +0.050 S 
ATOM      5  N   UNL     1       0.226  -5.074  -0.025  0.00  0.00    -0.187 NA
ATOM      6  N   UNL     1       4.031  -6.028  -0.038  0.00  0.00    -0.263 N 
ATOM      7  C   UNL     1       4.238  -7.360  -0.047  0.00  0.00    +0.224 C 
ATOM      8  O   UNL     1       3.293  -8.120  -0.052  0.00  0.00    -0.275 OA
ATOM      9  H   UNL     1       4.787  -5.420  -0.035  0.00  0.00    +0.157 HD
ENDROOT
BRANCH   1  14
ATOM     10  C   UNL     1      -0.018   1.503   0.010  0.00  0.00    +0.051 C 
ATOM     11  C   UNL     1       0.002  -0.004   0.002  0.00  0.00    -0.013 A 
ATOM     12  C   UNL     1      -1.042  -0.872   0.002  0.00  0.00    +0.011 A 
ATOM     13  C   UNL     1      -0.789  -2.226  -0.007  0.00  0.00    +0.019 A 
ATOM     14  C   UNL     1       0.512  -2.653  -0.015  0.00  0.00    +0.057 A 
ATOM     15  S   UNL     1       1.405  -1.107  -0.018  0.00  0.00    -0.090 S 
ENDBRANCH   1  14
BRANCH   7  16
ATOM     16  C   UNL     1       5.644  -7.904  -0.052  0.00  0.00    +0.107 C 
ATOM     17  C   UNL     1       6.124  -8.609  -1.322  0.00  0.00    +0.047 C 
ATOM     18  C   UNL     1       5.812  -9.425  -0.064  0.00  0.00    +0.182 C 
BRANCH  18  19
ATOM     19  N   UNL     1       6.945  -9.985   0.676  0.00  0.00    +0.026 N 
ATOM     20  O   UNL     1       6.750 -10.762   1.582  0.00  0.00    -0.131 OA
ATOM     21  O   UNL     1       8.075  -9.671   0.382  0.00  0.00    -0.131 OA
ENDBRANCH  18  19
ENDBRANCH   7  16
TORSDOF 3
