REMARK  Name = ZINC13064631
REMARK  13 active torsions:
REMARK  status: ('A' for Active; 'I' for Inactive)
REMARK    1  A    between atoms: C_1  and  C_2
REMARK    2  A    between atoms: C_2  and  C_3
REMARK    3  A    between atoms: C_3  and  C_5
REMARK    4  A    between atoms: C_3  and  N_73
REMARK    5  A    between atoms: N_9  and  C_10
REMARK    6  A    between atoms: C_10  and  C_11
REMARK    7  A    between atoms: C_17  and  C_18
REMARK    8  A    between atoms: C_17  and  N_73
REMARK    9  A    between atoms: C_18  and  C_19
REMARK   10  A    between atoms: C_25  and  C_26
REMARK   11  A    between atoms: C_25  and  N_73
REMARK   12  A    between atoms: C_30  and  C_39
REMARK   13  A    between atoms: C_31  and  C_38
REMARK                            x       y       z     vdW  Elec       q    Type
REMARK                         _______ _______ _______ _____ _____    ______ ____
ROOT
ATOM      1  N   UNL     1       2.588   1.032   1.172  0.00  0.00    +0.389 N 
ATOM      2  H   UNL     1       2.512   1.812   1.835  0.00  0.00    -0.080 HD
ENDROOT
BRANCH   1   3
ATOM      3  C   UNL     1       3.965   0.498   1.215  0.00  0.00    +0.003 C 
BRANCH   3   4
ATOM      4  C   UNL     1       4.184  -0.491   0.099  0.00  0.00    +0.138 A 
ATOM      5  N   UNL     1       3.878  -0.325  -1.165  0.00  0.00    -0.115 NA
ATOM      6  N   UNL     1       4.221  -1.392  -1.801  0.00  0.00    -0.023 NA
ATOM      7  N   UNL     1       4.731  -2.237  -0.974  0.00  0.00    -0.044 NA
ATOM      8  N   UNL     1       4.725  -1.719   0.207  0.00  0.00    -0.228 N 
BRANCH   8   9
ATOM      9  C   UNL     1       5.217  -2.348   1.436  0.00  0.00    +0.178 C 
BRANCH   9  10
ATOM     10  C   UNL     1       4.133  -3.263   2.009  0.00  0.00    +0.140 C 
ATOM     11  C   UNL     1       4.604  -3.851   3.356  0.00  0.00    +0.035 C 
ATOM     12  C   UNL     1       4.074  -5.309   3.282  0.00  0.00    +0.031 C 
ATOM     13  C   UNL     1       4.220  -5.598   1.767  0.00  0.00    +0.160 C 
ATOM     14  O   UNL     1       3.900  -4.358   1.116  0.00  0.00    -0.375 OA
ENDBRANCH   9  10
ENDBRANCH   8   9
ENDBRANCH   3   4
BRANCH   3  16
ATOM     15  C   UNL     1       4.797   2.612   2.255  0.00  0.00    +0.002 C 
ATOM     16  C   UNL     1       4.949   1.660   1.067  0.00  0.00    -0.011 C 
ENDBRANCH   3  16
ENDBRANCH   1   3
BRANCH   1  17
ATOM     17  C   UNL     1       1.625  -0.022   1.558  0.00  0.00    -0.073 C 
BRANCH  17  18
ATOM     18  C   UNL     1       1.790  -0.317   3.050  0.00  0.00    +0.016 C 
BRANCH  18  19
ATOM     19  C   UNL     1       0.702  -1.258   3.499  0.00  0.00    -0.049 A 
ATOM     20  C   UNL     1      -0.541  -0.762   3.845  0.00  0.00    +0.003 A 
ATOM     21  C   UNL     1      -1.540  -1.625   4.253  0.00  0.00    +0.000 A 
ATOM     22  C   UNL     1      -1.294  -2.984   4.324  0.00  0.00    +0.000 A 
ATOM     23  C   UNL     1      -0.049  -3.479   3.983  0.00  0.00    +0.000 A 
ATOM     24  C   UNL     1       0.949  -2.616   3.571  0.00  0.00    +0.003 A 
ENDBRANCH  18  19
ENDBRANCH  17  18
ENDBRANCH   1  17
BRANCH   1  25
ATOM     25  C   UNL     1       2.279   1.524  -0.187  0.00  0.00    -0.037 C 
BRANCH  25  26
ATOM     26  C   UNL     1       1.111   2.472  -0.103  0.00  0.00    +0.001 A 
ATOM     27  C   UNL     1       1.330   3.806   0.006  0.00  0.00    +0.017 A 
ATOM     28  C   UNL     1       0.173   4.700   0.085  0.00  0.00    -0.001 A 
ATOM     29  C   UNL     1       0.336   6.085   0.198  0.00  0.00    +0.013 A 
ATOM     30  C   UNL     1      -0.763   6.893   0.270  0.00  0.00    -0.047 A 
ATOM     31  C   UNL     1      -2.041   6.351   0.232  0.00  0.00    -0.046 A 
ATOM     32  C   UNL     1      -2.225   4.990   0.122  0.00  0.00    +0.030 A 
ATOM     33  C   UNL     1      -1.120   4.148   0.046  0.00  0.00    +0.049 A 
ATOM     34  N   UNL     1      -1.275   2.783  -0.070  0.00  0.00    -0.322 N 
ATOM     35  H   UNL     1      -2.168   2.404  -0.100  0.00  0.00    +0.169 HD
ATOM     36  C   UNL     1      -0.207   1.969  -0.138  0.00  0.00    +0.251 A 
ATOM     37  O   UNL     1      -0.381   0.767  -0.236  0.00  0.00    -0.268 OA
ATOM     38  C   UNL     1      -3.240   7.261   0.313  0.00  0.00    +0.044 C 
ATOM     39  C   UNL     1      -0.588   8.384   0.391  0.00  0.00    +0.044 C 
ENDBRANCH  25  26
ENDBRANCH   1  25
TORSDOF 10
