REMARK  Name = ZINC39611640
REMARK  12 active torsions:
REMARK  status: ('A' for Active; 'I' for Inactive)
REMARK    1  A    between atoms: C_1  and  C_2
REMARK    2  A    between atoms: C_2  and  C_4
REMARK    3  A    between atoms: C_2  and  N_12
REMARK    4  A    between atoms: C_13  and  C_15
REMARK    5  A    between atoms: C_15  and  O_16
REMARK    6  A    between atoms: O_16  and  C_17
REMARK    7  A    between atoms: C_17  and  C_19
REMARK    8  A    between atoms: C_19  and  C_21
REMARK    9  A    between atoms: C_19  and  N_24
REMARK   10  A    between atoms: C_21  and  C_22
REMARK   11  A    between atoms: C_21  and  C_23
REMARK   12  A    between atoms: C_25  and  C_27
REMARK                            x       y       z     vdW  Elec       q    Type
REMARK                         _______ _______ _______ _____ _____    ______ ____
ROOT
ATOM      1  C   UNL     1       0.256  -1.565  -5.869  0.00  0.00    +0.328 C 
ATOM      2  O   UNL     1       1.419  -1.873  -5.981  0.00  0.00    -0.249 OA
ENDROOT
BRANCH   1   3
ATOM      3  O   UNL     1      -0.216  -1.149  -4.684  0.00  0.00    -0.454 OA
BRANCH   3   4
ATOM      4  C   UNL     1       0.712  -1.094  -3.598  0.00  0.00    +0.327 C 
BRANCH   4   6
ATOM      5  N   UNL     1       0.688  -0.476  -1.203  0.00  0.00    -0.306 N 
ATOM      6  C   UNL     1       0.006  -0.608  -2.358  0.00  0.00    +0.251 C 
ATOM      7  O   UNL     1      -1.175  -0.336  -2.400  0.00  0.00    -0.272 OA
ATOM      8  H   UNL     1       1.632  -0.695  -1.170  0.00  0.00    +0.149 HD
BRANCH   5  10
ATOM      9  C   UNL     1      -0.019   1.526   0.010  0.00  0.00    +0.033 C 
ATOM     10  C   UNL     1       0.002  -0.004   0.002  0.00  0.00    +0.100 C 
BRANCH  10  11
ATOM     11  C   UNL     1       0.731  -0.503   1.223  0.00  0.00    -0.026 A 
ATOM     12  C   UNL     1       2.113  -0.514   1.246  0.00  0.00    +0.007 A 
ATOM     13  C   UNL     1       2.783  -0.972   2.365  0.00  0.00    +0.022 A 
ATOM     14  C   UNL     1       2.070  -1.420   3.463  0.00  0.00    +0.059 A 
ATOM     15  C   UNL     1       0.686  -1.409   3.440  0.00  0.00    +0.060 A 
ATOM     16  C   UNL     1       0.017  -0.945   2.321  0.00  0.00    +0.027 A 
ATOM     17 CL   UNL     1      -0.210  -1.971   4.816  0.00  0.00    -0.082 Cl
ATOM     18 CL   UNL     1       2.911  -1.996   4.868  0.00  0.00    -0.082 Cl
ENDBRANCH  10  11
ENDBRANCH   5  10
ENDBRANCH   4   6
ENDBRANCH   3   4
ENDBRANCH   1   3
BRANCH   1  19
ATOM     19  C   UNL     1      -0.664  -1.649  -7.060  0.00  0.00    +0.185 C 
BRANCH  19  20
ATOM     20  N   UNL     1       0.087  -2.126  -8.224  0.00  0.00    -0.298 N 
ATOM     21  C   UNL     1      -0.333  -1.820  -9.468  0.00  0.00    +0.246 C 
ATOM     22  O   UNL     1      -1.334  -1.149  -9.624  0.00  0.00    -0.270 OA
ATOM     23  H   UNL     1       0.885  -2.662  -8.100  0.00  0.00    +0.150 HD
BRANCH  21  24
ATOM     24  C   UNL     1       0.424  -2.302 -10.642  0.00  0.00    +0.055 A 
ATOM     25  C   UNL     1       1.571  -3.079 -10.467  0.00  0.00    +0.014 A 
ATOM     26  C   UNL     1       2.272  -3.525 -11.567  0.00  0.00    +0.001 A 
ATOM     27  C   UNL     1       1.842  -3.205 -12.843  0.00  0.00    +0.001 A 
ATOM     28  C   UNL     1       0.708  -2.436 -13.026  0.00  0.00    +0.021 A 
ATOM     29  C   UNL     1      -0.008  -1.987 -11.933  0.00  0.00    +0.053 A 
ATOM     30 CL   UNL     1      -1.437  -1.028 -12.163  0.00  0.00    -0.083 Cl
ENDBRANCH  21  24
ENDBRANCH  19  20
BRANCH  19  31
ATOM     31  C   UNL     1      -1.805  -2.621  -6.755  0.00  0.00    +0.014 C 
ATOM     32  C   UNL     1      -2.589  -2.122  -5.539  0.00  0.00    +0.009 C 
ATOM     33  C   UNL     1      -2.739  -2.705  -7.964  0.00  0.00    +0.009 C 
ENDBRANCH  19  31
ENDBRANCH   1  19
TORSDOF 9
