REMARK  Name = ZINC63350743
REMARK  10 active torsions:
REMARK  status: ('A' for Active; 'I' for Inactive)
REMARK    1  A    between atoms: C_1  and  C_2
REMARK    2  A    between atoms: C_5  and  S_8
REMARK    3  A    between atoms: S_8  and  N_11
REMARK    4  A    between atoms: C_14  and  C_17
REMARK    5  A    between atoms: N_19  and  C_20
REMARK    6  A    between atoms: C_20  and  C_22
REMARK    7  A    between atoms: C_20  and  C_23
REMARK    8  A    between atoms: N_25  and  C_26
REMARK    9  A    between atoms: C_26  and  C_27
REMARK   10  A    between atoms: C_27  and  C_28
REMARK                            x       y       z     vdW  Elec       q    Type
REMARK                         _______ _______ _______ _____ _____    ______ ____
ROOT
ATOM      1  C   UNL     1       4.498  -8.132  -0.077  0.00  0.00    +0.217 C 
ATOM      2  O   UNL     1       4.276  -8.895  -0.994  0.00  0.00    -0.275 OA
ATOM      3  N   UNL     1       5.316  -8.505   0.927  0.00  0.00    -0.304 N 
ATOM      4  H   UNL     1       5.493  -7.895   1.660  0.00  0.00    +0.149 HD
ENDROOT
BRANCH   1   8
ATOM      5  N   UNL     1       1.651  -4.999  -0.034  0.00  0.00    -0.177 NA
ATOM      6  C   UNL     1       2.364  -5.199  -1.304  0.00  0.00    +0.110 C 
ATOM      7  C   UNL     1       2.984  -6.599  -1.306  0.00  0.00    +0.030 C 
ATOM      8  C   UNL     1       3.858  -6.767  -0.061  0.00  0.00    +0.077 C 
ATOM      9  C   UNL     1       2.995  -6.624   1.194  0.00  0.00    +0.030 C 
ATOM     10  C   UNL     1       2.376  -5.218   1.225  0.00  0.00    +0.110 C 
BRANCH   5  11
ATOM     11  S   UNL     1       0.063  -4.530  -0.023  0.00  0.00    +0.061 S 
ATOM     12  O   UNL     1      -0.476  -4.950   1.223  0.00  0.00    -0.153 OA
ATOM     13  O   UNL     1      -0.490  -4.937  -1.267  0.00  0.00    -0.153 OA
BRANCH  11  18
ATOM     14  C   UNL     1      -0.018   1.503   0.010  0.00  0.00    +0.044 C 
ATOM     15  C   UNL     1       0.002  -0.004   0.002  0.00  0.00    -0.050 A 
ATOM     16  C   UNL     1       0.006  -0.689  -1.199  0.00  0.00    +0.005 A 
ATOM     17  C   UNL     1       0.025  -2.071  -1.206  0.00  0.00    +0.029 A 
ATOM     18  C   UNL     1       0.040  -2.768  -0.013  0.00  0.00    +0.105 A 
ATOM     19  C   UNL     1       0.037  -2.084   1.188  0.00  0.00    +0.029 A 
ATOM     20  C   UNL     1       0.023  -0.702   1.195  0.00  0.00    +0.005 A 
ENDBRANCH  11  18
ENDBRANCH   5  11
ENDBRANCH   1   8
BRANCH   3  21
ATOM     21  C   UNL     1       5.938  -9.831   0.911  0.00  0.00    +0.156 C 
ATOM     22  C   UNL     1       7.221  -9.783   0.079  0.00  0.00    +0.038 C 
BRANCH  21  23
ATOM     23  C   UNL     1       6.268 -10.248   2.321  0.00  0.00    +0.233 C 
ATOM     24  O   UNL     1       6.010  -9.510   3.248  0.00  0.00    -0.274 OA
ATOM     25  N   UNL     1       6.851 -11.441   2.552  0.00  0.00    -0.313 N 
ATOM     26  H   UNL     1       7.057 -12.032   1.811  0.00  0.00    +0.149 HD
BRANCH  25  27
ATOM     27  C   UNL     1       7.172 -11.846   3.923  0.00  0.00    +0.108 C 
BRANCH  27  28
ATOM     28  C   UNL     1       7.821 -13.232   3.906  0.00  0.00    +0.052 C 
BRANCH  28  29
ATOM     29  C   UNL     1       8.152 -13.648   5.316  0.00  0.00    -0.040 C 
ATOM     30  C   UNL     1       7.397 -14.415   6.136  0.00  0.00    -0.001 A 
ATOM     31  C   UNL     1       6.091 -15.065   5.967  0.00  0.00    +0.010 A 
ATOM     32  C   UNL     1       5.579 -15.784   6.991  0.00  0.00    +0.001 A 
ATOM     33  C   UNL     1       6.261 -15.923   8.207  0.00  0.00    +0.002 A 
ATOM     34  C   UNL     1       7.464 -15.356   8.438  0.00  0.00    +0.026 A 
ATOM     35  C   UNL     1       8.097 -14.578   7.430  0.00  0.00    +0.043 A 
ATOM     36  N   UNL     1       9.241 -13.937   7.411  0.00  0.00    -0.380 N 
ATOM     37  C   UNL     1       9.398 -13.299   6.099  0.00  0.00    +0.144 C 
ATOM     38  H   UNL     1       9.878 -13.895   8.141  0.00  0.00    +0.160 HD
ENDBRANCH  28  29
ENDBRANCH  27  28
ENDBRANCH  25  27
ENDBRANCH  21  23
ENDBRANCH   3  21
TORSDOF 8
