REMARK  Name = ZINC36545073
REMARK  11 active torsions:
REMARK  status: ('A' for Active; 'I' for Inactive)
REMARK    1  A    between atoms: C_1  and  C_2
REMARK    2  A    between atoms: C_3  and  C_4
REMARK    3  A    between atoms: C_4  and  C_6
REMARK    4  A    between atoms: C_4  and  N_20
REMARK    5  A    between atoms: N_8  and  C_9
REMARK    6  A    between atoms: C_9  and  S_10
REMARK    7  A    between atoms: S_10  and  C_13
REMARK    8  A    between atoms: C_16  and  C_19
REMARK    9  A    between atoms: N_20  and  C_21
REMARK   10  A    between atoms: C_28  and  C_30
REMARK   11  A    between atoms: C_33  and  O_36
REMARK                            x       y       z     vdW  Elec       q    Type
REMARK                         _______ _______ _______ _____ _____    ______ ____
ROOT
ATOM      1  C   UNL     1       0.609  -1.733  -0.515  0.00  0.00    +0.190 C 
ENDROOT
BRANCH   1   2
ATOM      2  C   UNL     1       0.766  -2.390  -1.863  0.00  0.00    +0.239 C 
ATOM      3  O   UNL     1       0.176  -3.421  -2.107  0.00  0.00    -0.273 OA
ATOM      4  N   UNL     1       1.561  -1.831  -2.797  0.00  0.00    -0.294 N 
ATOM      5  H   UNL     1       2.033  -1.006  -2.601  0.00  0.00    +0.150 HD
BRANCH   4   6
ATOM      6  C   UNL     1       1.713  -2.469  -4.106  0.00  0.00    +0.278 C 
BRANCH   6   7
ATOM      7  S   UNL     1       0.545  -1.727  -5.280  0.00  0.00    +0.013 S 
ATOM      8  O   UNL     1       0.724  -2.292  -6.571  0.00  0.00    -0.168 OA
ATOM      9  O   UNL     1      -0.749  -1.646  -4.697  0.00  0.00    -0.168 OA
BRANCH   7  10
ATOM     10  C   UNL     1       1.071  -0.054  -5.444  0.00  0.00    +0.090 A 
ATOM     11  C   UNL     1       0.567   0.915  -4.597  0.00  0.00    +0.027 A 
ATOM     12  C   UNL     1       0.979   2.228  -4.726  0.00  0.00    +0.005 A 
ATOM     13  C   UNL     1       1.895   2.572  -5.703  0.00  0.00    -0.050 A 
ATOM     14  C   UNL     1       2.399   1.603  -6.550  0.00  0.00    +0.005 A 
ATOM     15  C   UNL     1       1.990   0.289  -6.418  0.00  0.00    +0.027 A 
ATOM     16  C   UNL     1       2.344   4.004  -5.844  0.00  0.00    +0.044 C 
ENDBRANCH   7  10
ENDBRANCH   6   7
ENDBRANCH   4   6
ENDBRANCH   1   2
BRANCH   1  19
ATOM     17  C   UNL     1      -1.551   1.421  -0.155  0.00  0.00    +0.035 C 
ATOM     18  C   UNL     1      -1.023   0.015  -0.026  0.00  0.00    -0.032 C 
ATOM     19  C   UNL     1       0.043  -0.348  -0.694  0.00  0.00    +0.000 C 
ENDBRANCH   1  19
BRANCH   1  20
ATOM     20  N   UNL     1      -0.300  -2.529   0.313  0.00  0.00    -0.251 N 
ATOM     21  C   UNL     1      -1.550  -2.788  -0.117  0.00  0.00    +0.252 C 
ATOM     22  O   UNL     1      -1.891  -2.451  -1.234  0.00  0.00    -0.270 OA
BRANCH  20  23
ATOM     23  C   UNL     1       0.130  -3.019   1.551  0.00  0.00    +0.056 A 
ATOM     24  C   UNL     1      -0.261  -2.387   2.724  0.00  0.00    +0.025 A 
ATOM     25  C   UNL     1       0.165  -2.874   3.944  0.00  0.00    +0.002 A 
ATOM     26  C   UNL     1       0.981  -3.989   3.999  0.00  0.00    +0.002 A 
ATOM     27  C   UNL     1       1.373  -4.621   2.834  0.00  0.00    +0.022 A 
ATOM     28  C   UNL     1       0.946  -4.143   1.609  0.00  0.00    +0.062 A 
ATOM     29 CL   UNL     1       1.432  -4.941   0.146  0.00  0.00    -0.082 Cl
ENDBRANCH  20  23
BRANCH  21  30
ATOM     30  C   UNL     1      -2.506  -3.482   0.769  0.00  0.00    +0.037 A 
ATOM     31  C   UNL     1      -3.858  -3.129   0.753  0.00  0.00    +0.016 A 
ATOM     32  C   UNL     1      -4.747  -3.779   1.580  0.00  0.00    +0.046 A 
ATOM     33  C   UNL     1      -4.300  -4.784   2.430  0.00  0.00    +0.117 A 
ATOM     34  C   UNL     1      -2.956  -5.137   2.449  0.00  0.00    +0.046 A 
ATOM     35  C   UNL     1      -2.062  -4.497   1.621  0.00  0.00    +0.016 A 
BRANCH  33  36
ATOM     36  O   UNL     1      -5.179  -5.422   3.244  0.00  0.00    -0.507 OA
ATOM     37  H   UNL     1      -5.583  -6.207   2.849  0.00  0.00    +0.292 HD
ENDBRANCH  33  36
ENDBRANCH  21  30
ENDBRANCH   1  20
TORSDOF 9
