REMARK  Name = ZINC18066160
REMARK  4 active torsions:
REMARK  status: ('A' for Active; 'I' for Inactive)
REMARK    1  A    between atoms: C_1  and  C_2
REMARK    2  A    between atoms: N_10  and  N_11
REMARK    3  A    between atoms: N_11  and  C_12
REMARK    4  A    between atoms: C_12  and  N_14
REMARK                            x       y       z     vdW  Elec       q    Type
REMARK                         _______ _______ _______ _____ _____    ______ ____
ROOT
ATOM      1  C   UNL     1       0.774   1.494   0.072  0.00  0.00    +0.045 C 
ATOM      2  C   UNL     1       0.577   0.001   0.044  0.00  0.00    -0.036 A 
ATOM      3  C   UNL     1       0.533  -0.668  -1.168  0.00  0.00    +0.006 A 
ATOM      4  C   UNL     1       0.352  -2.036  -1.210  0.00  0.00    +0.024 A 
ATOM      5  C   UNL     1       0.212  -2.759  -0.030  0.00  0.00    +0.044 A 
ATOM      6  C   UNL     1       0.257  -2.079   1.194  0.00  0.00    +0.042 A 
ATOM      7  C   UNL     1       0.445  -0.701   1.227  0.00  0.00    +0.032 A 
ATOM      8 BR   UNL     1       0.512   0.209   2.883  0.00  0.00    -0.049 Br
ATOM      9  C   UNL     1       0.081  -3.104   2.249  0.00  0.00    +0.154 C 
ATOM     10  N   UNL     1       0.057  -2.918   3.547  0.00  0.00    -0.175 NA
ATOM     11  C   UNL     1      -0.062  -4.380   1.520  0.00  0.00    +0.269 C 
ATOM     12  O   UNL     1      -0.228  -5.476   2.022  0.00  0.00    -0.268 OA
ATOM     13  N   UNL     1       0.022  -4.116   0.205  0.00  0.00    -0.280 N 
ATOM     14  H   UNL     1      -0.043  -4.787  -0.492  0.00  0.00    +0.155 HD
ENDROOT
BRANCH  10  15
ATOM     15  N   UNL     1      -0.469  -1.732   4.076  0.00  0.00    -0.218 N 
ATOM     16  H   UNL     1      -0.901  -1.090   3.491  0.00  0.00    +0.176 HD
BRANCH  15  17
ATOM     17  C   UNL     1      -0.375  -1.484   5.397  0.00  0.00    +0.147 C 
ATOM     18  S   UNL     1      -1.018  -0.034   6.043  0.00  0.00    -0.017 S 
BRANCH  17  19
ATOM     19  N   UNL     1       0.225  -2.376   6.210  0.00  0.00    -0.339 N 
ATOM     20  H   UNL     1       0.589  -3.197   5.844  0.00  0.00    +0.144 HD
ATOM     21  H   UNL     1       0.292  -2.197   7.160  0.00  0.00    +0.144 HD
ENDBRANCH  17  19
ENDBRANCH  15  17
ENDBRANCH  10  15
TORSDOF 3
