REMARK  Name = ZINC13500692
REMARK  13 active torsions:
REMARK  status: ('A' for Active; 'I' for Inactive)
REMARK    1  A    between atoms: C_1  and  C_2
REMARK    2  A    between atoms: C_2  and  O_3
REMARK    3  A    between atoms: O_3  and  C_4
REMARK    4  A    between atoms: C_4  and  C_6
REMARK    5  A    between atoms: C_6  and  N_7
REMARK    6  A    between atoms: C_8  and  C_12
REMARK    7  A    between atoms: C_12  and  C_14
REMARK    8  A    between atoms: C_12  and  N_68
REMARK    9  A    between atoms: C_14  and  C_15
REMARK   10  A    between atoms: C_14  and  C_16
REMARK   11  A    between atoms: C_17  and  C_18
REMARK   12  A    between atoms: C_17  and  N_68
REMARK   13  A    between atoms: C_33  and  N_68
REMARK                            x       y       z     vdW  Elec       q    Type
REMARK                         _______ _______ _______ _____ _____    ______ ____
ROOT
ATOM      1  N   UNL     1      -0.112   0.817   3.717  0.00  0.00    +0.391 N 
ATOM      2  H   UNL     1       0.456   0.730   4.568  0.00  0.00    -0.080 HD
ENDROOT
BRANCH   1   3
ATOM      3  C   UNL     1      -1.465   0.285   3.986  0.00  0.00    -0.067 C 
ATOM      4  C   UNL     1      -1.359  -1.185   4.440  0.00  0.00    -0.015 C 
ATOM      5  C   UNL     1      -2.604  -1.865   3.816  0.00  0.00    -0.002 C 
ATOM      6  C   UNL     1      -2.715  -1.175   2.434  0.00  0.00    -0.002 C 
ATOM      7  C   UNL     1      -2.327   0.292   2.711  0.00  0.00    -0.015 C 
ENDBRANCH   1   3
BRANCH   1   8
ATOM      8  C   UNL     1       0.527   0.042   2.632  0.00  0.00    +0.006 C 
BRANCH   8  10
ATOM      9  N   UNL     1       0.021  -0.076   0.135  0.00  0.00    -0.220 N 
ATOM     10  C   UNL     1       0.147   0.608   1.288  0.00  0.00    +0.139 A 
ATOM     11  N   UNL     1      -0.118   1.861   1.013  0.00  0.00    -0.115 NA
ATOM     12  N   UNL     1      -0.399   1.943  -0.242  0.00  0.00    -0.023 NA
ATOM     13  N   UNL     1      -0.319   0.773  -0.775  0.00  0.00    -0.043 NA
BRANCH   9  14
ATOM     14  C   UNL     1       0.227  -1.514  -0.051  0.00  0.00    +0.267 C 
BRANCH  14  15
ATOM     15  C   UNL     1      -1.106  -2.194  -0.230  0.00  0.00    +0.329 C 
ATOM     16  O   UNL     1      -2.111  -1.532  -0.341  0.00  0.00    -0.249 OA
BRANCH  15  17
ATOM     17  O   UNL     1      -1.177  -3.534  -0.265  0.00  0.00    -0.464 OA
BRANCH  17  19
ATOM     18  C   UNL     1      -2.392  -5.641  -0.383  0.00  0.00    +0.048 C 
ATOM     19  C   UNL     1      -2.486  -4.118  -0.500  0.00  0.00    +0.229 C 
ENDBRANCH  17  19
ENDBRANCH  15  17
ENDBRANCH  14  15
ENDBRANCH   9  14
ENDBRANCH   8  10
BRANCH   8  20
ATOM     20  C   UNL     1       2.045   0.120   2.807  0.00  0.00    -0.024 C 
ATOM     21  C   UNL     1       2.725  -0.769   1.764  0.00  0.00    +0.006 C 
ATOM     22  C   UNL     1       2.422  -0.361   4.210  0.00  0.00    +0.006 C 
ENDBRANCH   8  20
ENDBRANCH   1   8
BRANCH   1  23
ATOM     23  C   UNL     1      -0.196   2.243   3.338  0.00  0.00    -0.036 C 
BRANCH  23  24
ATOM     24  C   UNL     1      -0.445   3.059   4.580  0.00  0.00    +0.001 A 
ATOM     25  C   UNL     1       0.599   3.622   5.240  0.00  0.00    +0.017 A 
ATOM     26  C   UNL     1       0.325   4.413   6.439  0.00  0.00    +0.002 A 
ATOM     27  C   UNL     1       1.362   5.020   7.157  0.00  0.00    +0.059 A 
ATOM     28  C   UNL     1       1.073   5.756   8.284  0.00  0.00    +0.167 A 
ATOM     29  C   UNL     1      -0.253   5.899   8.713  0.00  0.00    +0.168 A 
ATOM     30  C   UNL     1      -1.284   5.302   8.011  0.00  0.00    +0.075 A 
ATOM     31  C   UNL     1      -1.008   4.555   6.872  0.00  0.00    +0.053 A 
ATOM     32  N   UNL     1      -2.024   3.952   6.159  0.00  0.00    -0.322 N 
ATOM     33  H   UNL     1      -2.942   4.050   6.458  0.00  0.00    +0.169 HD
ATOM     34  C   UNL     1      -1.761   3.230   5.055  0.00  0.00    +0.251 A 
ATOM     35  O   UNL     1      -2.683   2.711   4.451  0.00  0.00    -0.268 OA
ATOM     36  O   UNL     1      -0.263   6.668   9.839  0.00  0.00    -0.453 OA
ATOM     37  C   UNL     1       1.014   7.333   9.864  0.00  0.00    +0.466 C 
ATOM     38  O   UNL     1       1.883   6.438   9.147  0.00  0.00    -0.453 OA
ENDBRANCH  23  24
ENDBRANCH   1  23
TORSDOF 10
