REMARK  Name = ZINC64202847
REMARK  11 active torsions:
REMARK  status: ('A' for Active; 'I' for Inactive)
REMARK    1  A    between atoms: C_1  and  C_2
REMARK    2  A    between atoms: C_2  and  C_3
REMARK    3  A    between atoms: C_2  and  C_4
REMARK    4  A    between atoms: C_2  and  N_5
REMARK    5  A    between atoms: C_6  and  C_8
REMARK    6  A    between atoms: C_8  and  N_9
REMARK    7  A    between atoms: N_9  and  C_10
REMARK    8  A    between atoms: C_11  and  C_13
REMARK    9  A    between atoms: C_18  and  N_19
REMARK   10  A    between atoms: N_19  and  S_20
REMARK   11  A    between atoms: S_20  and  C_23
REMARK                            x       y       z     vdW  Elec       q    Type
REMARK                         _______ _______ _______ _____ _____    ______ ____
ROOT
ATOM      1  C   UNL     1       5.605   0.950  -3.561  0.00  0.00    +0.059 A 
ATOM      2  C   UNL     1       6.381  -0.147  -3.177  0.00  0.00    +0.015 A 
ATOM      3  C   UNL     1       7.755  -0.071  -3.236  0.00  0.00    +0.001 A 
ATOM      4  C   UNL     1       8.374   1.089  -3.674  0.00  0.00    +0.002 A 
ATOM      5  C   UNL     1       7.622   2.181  -4.056  0.00  0.00    +0.025 A 
ATOM      6  C   UNL     1       6.234   2.121  -4.010  0.00  0.00    +0.060 A 
ENDROOT
BRANCH   1   9
ATOM      7  N   UNL     1       3.530   0.322  -2.429  0.00  0.00    -0.292 N 
ATOM      8  C   UNL     1       4.328  -0.094  -1.273  0.00  0.00    +0.133 C 
ATOM      9  C   UNL     1       4.133   0.875  -3.500  0.00  0.00    +0.249 C 
ATOM     10  O   UNL     1       3.464   1.312  -4.417  0.00  0.00    -0.270 OA
BRANCH   7  11
ATOM     11  C   UNL     1       2.077   0.138  -2.421  0.00  0.00    +0.203 C 
BRANCH  11  13
ATOM     12  N   UNL     1       0.076   1.421  -1.736  0.00  0.00    -0.309 N 
ATOM     13  C   UNL     1       1.419   1.365  -1.843  0.00  0.00    +0.231 C 
ATOM     14  O   UNL     1       2.097   2.300  -1.475  0.00  0.00    -0.274 OA
ATOM     15  H   UNL     1      -0.466   0.673  -2.031  0.00  0.00    +0.149 HD
BRANCH  12  17
ATOM     16  C   UNL     1      -0.209   3.833  -2.028  0.00  0.00    +0.031 C 
ATOM     17  C   UNL     1      -0.564   2.614  -1.174  0.00  0.00    +0.026 C 
ATOM     18  C   UNL     1      -0.069   2.832   0.257  0.00  0.00    +0.031 C 
ATOM     19  C   UNL     1      -2.082   2.421  -1.165  0.00  0.00    +0.031 C 
ENDBRANCH  12  17
ENDBRANCH  11  13
ENDBRANCH   7  11
ENDBRANCH   1   9
BRANCH   6  20
ATOM     20  N   UNL     1       5.475   3.216  -4.400  0.00  0.00    -0.216 N 
ATOM     21  H   UNL     1       4.648   3.422  -3.937  0.00  0.00    +0.174 HD
BRANCH  20  22
ATOM     22  S   UNL     1       5.982   4.171  -5.654  0.00  0.00    +0.072 S 
ATOM     23  O   UNL     1       4.936   5.100  -5.905  0.00  0.00    -0.150 OA
ATOM     24  O   UNL     1       7.307   4.580  -5.344  0.00  0.00    -0.150 OA
BRANCH  22  25
ATOM     25  C   UNL     1       6.093   3.141  -7.080  0.00  0.00    +0.110 A 
ATOM     26  C   UNL     1       7.350   2.457  -7.361  0.00  0.00    +0.031 A 
ATOM     27  C   UNL     1       7.502   1.654  -8.436  0.00  0.00    +0.027 A 
ATOM     28  C   UNL     1       6.381   1.456  -9.353  0.00  0.00    +0.056 A 
ATOM     29  N   UNL     1       6.197   0.767 -10.452  0.00  0.00    -0.268 N 
ATOM     30  C   UNL     1       4.908   0.973 -10.881  0.00  0.00    +0.308 C 
ATOM     31  O   UNL     1       4.416   0.477 -11.873  0.00  0.00    -0.252 OA
ATOM     32  N   UNL     1       4.258   1.823 -10.018  0.00  0.00    -0.267 N 
ATOM     33  C   UNL     1       5.091   2.158  -9.064  0.00  0.00    +0.058 A 
ATOM     34  C   UNL     1       5.011   3.005  -7.876  0.00  0.00    +0.054 A 
ATOM     35  H   UNL     1       3.340   2.123 -10.101  0.00  0.00    +0.156 HD
ATOM     36  H   UNL     1       6.859   0.208 -10.888  0.00  0.00    +0.156 HD
ENDBRANCH  22  25
ENDBRANCH  20  22
ENDBRANCH   6  20
TORSDOF 7
