REMARK  Name = ZINC33279306
REMARK  6 active torsions:
REMARK  status: ('A' for Active; 'I' for Inactive)
REMARK    1  A    between atoms: C_1  and  C_2
REMARK    2  A    between atoms: C_4  and  C_7
REMARK    3  A    between atoms: C_9  and  S_12
REMARK    4  A    between atoms: S_12  and  N_15
REMARK    5  A    between atoms: C_19  and  C_22
REMARK    6  A    between atoms: N_24  and  C_25
REMARK                            x       y       z     vdW  Elec       q    Type
REMARK                         _______ _______ _______ _____ _____    ______ ____
ROOT
ATOM      1  N   UNL     1       1.720  -7.784   0.908  0.00  0.00    -0.175 NA
ATOM      2  C   UNL     1       2.462  -8.325   2.056  0.00  0.00    +0.109 C 
ATOM      3  C   UNL     1       3.075  -9.671   1.656  0.00  0.00    +0.018 C 
ATOM      4  C   UNL     1       3.919  -9.488   0.392  0.00  0.00    +0.015 C 
ATOM      5  C   UNL     1       3.026  -9.005  -0.753  0.00  0.00    +0.091 C 
ATOM      6  C   UNL     1       2.410  -7.656  -0.382  0.00  0.00    +0.122 C 
ENDROOT
BRANCH   5   7
ATOM      7  C   UNL     1       3.851  -8.855  -2.005  0.00  0.00    +0.222 C 
ATOM      8  O   UNL     1       3.938  -7.775  -2.549  0.00  0.00    -0.275 OA
ATOM      9  N   UNL     1       4.492  -9.923  -2.521  0.00  0.00    -0.285 N 
ATOM     10  H   UNL     1       4.475 -10.885  -1.988  0.00  0.00    +0.155 HD
BRANCH   9  11
ATOM     11  C   UNL     1       5.180  -9.807  -3.734  0.00  0.00    +0.037 A 
ATOM     12  C   UNL     1       5.826  -8.621  -4.050  0.00  0.00    +0.023 A 
ATOM     13  C   UNL     1       6.504  -8.509  -5.247  0.00  0.00    +0.002 A 
ATOM     14  C   UNL     1       6.532  -9.576  -6.123  0.00  0.00    +0.004 A 
ATOM     15  C   UNL     1       5.885 -10.765  -5.813  0.00  0.00    -0.042 A 
ATOM     16  C   UNL     1       5.217 -10.887  -4.616  0.00  0.00    -0.023 A 
ATOM     17  C   UNL     1       4.502 -12.149  -4.210  0.00  0.00    +0.037 C 
ATOM     18  C   UNL     1       4.261 -13.045  -5.423  0.00  0.00    +0.005 C 
ATOM     19  C   UNL     1       5.589 -13.216  -6.170  0.00  0.00    +0.005 C 
ATOM     20  C   UNL     1       5.951 -11.883  -6.821  0.00  0.00    +0.035 C 
ENDBRANCH   9  11
ENDBRANCH   5   7
BRANCH   1  21
ATOM     21  S   UNL     1       0.135  -7.334   1.066  0.00  0.00    +0.067 S 
ATOM     22  O   UNL     1      -0.388  -8.065   2.166  0.00  0.00    -0.152 OA
ATOM     23  O   UNL     1      -0.437  -7.400  -0.234  0.00  0.00    -0.152 OA
BRANCH  21  26
ATOM     24  C   UNL     1       0.085  -3.292   1.373  0.00  0.00    +0.031 A 
ATOM     25  C   UNL     1       0.091  -4.538   0.748  0.00  0.00    +0.048 A 
ATOM     26  C   UNL     1       0.119  -5.636   1.536  0.00  0.00    +0.143 A 
ATOM     27  S   UNL     1       0.136  -4.928   3.173  0.00  0.00    -0.076 S 
ATOM     28  C   UNL     1       0.112  -3.251   2.736  0.00  0.00    +0.058 A 
BRANCH  24  32
ATOM     29  C   UNL     1      -0.004   1.507   0.015  0.00  0.00    +0.112 C 
ATOM     30  C   UNL     1       0.017   0.001   0.010  0.00  0.00    +0.225 A 
ATOM     31  N   UNL     1       0.045  -0.780   1.061  0.00  0.00    -0.192 NA
ATOM     32  C   UNL     1       0.054  -2.043   0.575  0.00  0.00    +0.203 A 
ATOM     33  N   UNL     1       0.032  -1.954  -0.730  0.00  0.00    -0.056 NA
ATOM     34  O   UNL     1       0.004  -0.790  -1.068  0.00  0.00    -0.338 OA
ENDBRANCH  24  32
ENDBRANCH  21  26
ENDBRANCH   1  21
TORSDOF 5
