REMARK  Name = ZINC67240828
REMARK  8 active torsions:
REMARK  status: ('A' for Active; 'I' for Inactive)
REMARK    1  A    between atoms: C_1  and  C_2
REMARK    2  A    between atoms: C_2  and  C_3
REMARK    3  A    between atoms: C_6  and  N_9
REMARK    4  A    between atoms: N_18  and  C_21
REMARK    5  A    between atoms: C_21  and  C_22
REMARK    6  A    between atoms: N_24  and  C_25
REMARK    7  A    between atoms: C_27  and  C_32
REMARK    8  A    between atoms: C_30  and  C_31
REMARK                            x       y       z     vdW  Elec       q    Type
REMARK                         _______ _______ _______ _____ _____    ______ ____
ROOT
ATOM      1  N   UNL     1       2.721  -1.893   4.589  0.00  0.00    -0.207 N 
ATOM      2  C   UNL     1       4.069  -2.108   4.628  0.00  0.00    +0.255 C 
ATOM      3  O   UNL     1       4.820  -2.191   3.680  0.00  0.00    -0.272 OA
ATOM      4  C   UNL     1       4.434  -2.220   6.076  0.00  0.00    +0.246 C 
ATOM      5  C   UNL     1       3.083  -2.876   6.565  0.00  0.00    +0.216 C 
ATOM      6  C   UNL     1       2.109  -2.167   5.786  0.00  0.00    +0.251 C 
ATOM      7  O   UNL     1       0.980  -1.873   6.115  0.00  0.00    -0.273 OA
ATOM      8  N   UNL     1       3.489  -3.326   7.824  0.00  0.00    -0.214 N 
ATOM      9  N   UNL     1       4.804  -3.825   7.547  0.00  0.00    -0.082 NA
ATOM     10  N   UNL     1       5.347  -3.241   6.556  0.00  0.00    -0.156 NA
ENDROOT
BRANCH   1  14
ATOM     11  C   UNL     1       0.692  -0.538   1.209  0.00  0.00    -0.048 A 
ATOM     12  C   UNL     1       2.059  -0.734   1.160  0.00  0.00    +0.005 A 
ATOM     13  C   UNL     1       2.735  -1.183   2.278  0.00  0.00    +0.024 A 
ATOM     14  C   UNL     1       2.038  -1.437   3.452  0.00  0.00    +0.044 A 
ATOM     15  C   UNL     1       0.665  -1.239   3.498  0.00  0.00    +0.024 A 
ATOM     16  C   UNL     1      -0.004  -0.785   2.378  0.00  0.00    +0.005 A 
BRANCH  11  18
ATOM     17  C   UNL     1      -0.074   1.481  -0.010  0.00  0.00    +0.009 C 
ATOM     18  C   UNL     1      -0.042  -0.049  -0.013  0.00  0.00    +0.032 C 
ENDBRANCH  11  18
ENDBRANCH   1  14
BRANCH   8  19
ATOM     19  C   UNL     1       2.761  -3.295   9.095  0.00  0.00    +0.224 C 
BRANCH  19  20
ATOM     20  C   UNL     1       1.965  -4.565   9.249  0.00  0.00    +0.236 C 
ATOM     21  O   UNL     1       2.002  -5.413   8.382  0.00  0.00    -0.274 OA
ATOM     22  N   UNL     1       1.212  -4.760  10.349  0.00  0.00    -0.284 N 
ATOM     23  H   UNL     1       1.244  -4.120  11.078  0.00  0.00    +0.155 HD
BRANCH  22  24
ATOM     24  C   UNL     1       0.384  -5.884  10.441  0.00  0.00    +0.037 A 
ATOM     25  C   UNL     1      -0.074  -6.507   9.287  0.00  0.00    +0.027 A 
ATOM     26  C   UNL     1      -0.891  -7.616   9.381  0.00  0.00    -0.049 A 
ATOM     27  C   UNL     1      -1.254  -8.106  10.622  0.00  0.00    +0.004 A 
ATOM     28  C   UNL     1      -0.800  -7.488  11.773  0.00  0.00    +0.005 A 
ATOM     29  C   UNL     1       0.022  -6.382  11.686  0.00  0.00    -0.029 A 
ATOM     30  C   UNL     1       0.522  -5.713  12.940  0.00  0.00    +0.045 C 
ATOM     31  C   UNL     1      -1.388  -8.293   8.130  0.00  0.00    +0.044 C 
ENDBRANCH  22  24
ENDBRANCH  19  20
ENDBRANCH   8  19
TORSDOF 5
