REMARK  Name = ZINC22914605
REMARK  11 active torsions:
REMARK  status: ('A' for Active; 'I' for Inactive)
REMARK    1  A    between atoms: C_1  and  C_2
REMARK    2  A    between atoms: C_5  and  O_9
REMARK    3  A    between atoms: C_7  and  C_8
REMARK    4  A    between atoms: O_9  and  C_10
REMARK    5  A    between atoms: C_10  and  C_11
REMARK    6  A    between atoms: C_11  and  C_13
REMARK    7  A    between atoms: C_11  and  O_37
REMARK    8  A    between atoms: C_13  and  N_14
REMARK    9  A    between atoms: N_17  and  C_20
REMARK   10  A    between atoms: C_20  and  C_21
REMARK   11  A    between atoms: C_21  and  N_22
REMARK                            x       y       z     vdW  Elec       q    Type
REMARK                         _______ _______ _______ _____ _____    ______ ____
ROOT
ATOM      1  N   UNL     1       2.073   0.960   1.140  0.00  0.00    -0.303 NA
ATOM      2  C   UNL     1       1.440   1.357   2.405  0.00  0.00    +0.066 C 
ATOM      3  C   UNL     1       2.093   0.595   3.560  0.00  0.00    -0.063 C 
ATOM      4  N   UNL     1       3.534   0.883   3.582  0.00  0.00    +0.382 N 
ATOM      5  C   UNL     1       4.167   0.486   2.317  0.00  0.00    -0.063 C 
ATOM      6  C   UNL     1       3.514   1.249   1.162  0.00  0.00    +0.066 C 
ATOM      7  H   UNL     1       3.661   1.970   3.700  0.00  0.00    -0.082 HD
ENDROOT
BRANCH   1   8
ATOM      8  C   UNL     1       1.423   1.615  -0.003  0.00  0.00    +0.119 C 
BRANCH   8   9
ATOM      9  C   UNL     1       1.746   0.845  -1.285  0.00  0.00    +0.166 C 
BRANCH   9  10
ATOM     10  O   UNL     1       1.256  -0.493  -1.173  0.00  0.00    -0.387 OA
ATOM     11  H   UNL     1       1.624  -1.148  -0.369  0.00  0.00    +0.210 HD
ENDBRANCH   9  10
BRANCH   9  12
ATOM     12  C   UNL     1       1.079   1.535  -2.476  0.00  0.00    +0.261 C 
BRANCH  12  13
ATOM     13  O   UNL     1       1.475   0.885  -3.686  0.00  0.00    -0.489 OA
BRANCH  13  18
ATOM     14  C   UNL     1      -0.628   2.929  -8.494  0.00  0.00    +0.044 C 
ATOM     15  C   UNL     1      -0.065   2.382  -7.208  0.00  0.00    -0.047 A 
ATOM     16  C   UNL     1      -0.409   2.964  -6.001  0.00  0.00    +0.007 A 
ATOM     17  C   UNL     1       0.102   2.462  -4.820  0.00  0.00    +0.046 A 
ATOM     18  C   UNL     1       0.968   1.378  -4.846  0.00  0.00    +0.121 A 
ATOM     19  C   UNL     1       1.310   0.795  -6.057  0.00  0.00    +0.049 A 
ATOM     20  C   UNL     1       0.793   1.298  -7.235  0.00  0.00    -0.044 A 
ATOM     21  C   UNL     1       1.165   0.666  -8.552  0.00  0.00    +0.044 C 
ENDBRANCH  13  18
ENDBRANCH  12  13
ENDBRANCH   9  12
ENDBRANCH   8   9
ENDBRANCH   1   8
BRANCH   4  22
ATOM     22  C   UNL     1       4.185   0.228   4.725  0.00  0.00    -0.059 C 
BRANCH  22  23
ATOM     23  C   UNL     1       3.673   0.847   6.027  0.00  0.00    +0.098 C 
BRANCH  23  24
ATOM     24  N   UNL     1       4.322   0.194   7.166  0.00  0.00    -0.236 N 
ATOM     25  C   UNL     1       3.737  -0.889   7.712  0.00  0.00    +0.254 C 
ATOM     26  O   UNL     1       2.690  -1.306   7.255  0.00  0.00    -0.270 OA
ATOM     27  C   UNL     1       4.361  -1.575   8.853  0.00  0.00    +0.046 A 
ATOM     28  C   UNL     1       3.795  -2.696   9.443  0.00  0.00    +0.014 A 
ATOM     29  C   UNL     1       4.420  -3.307  10.524  0.00  0.00    +0.001 A 
ATOM     30  C   UNL     1       5.594  -2.830  11.034  0.00  0.00    +0.008 A 
ATOM     31  C   UNL     1       6.200  -1.697  10.466  0.00  0.00    -0.016 A 
ATOM     32  C   UNL     1       5.575  -1.068   9.368  0.00  0.00    +0.006 A 
ATOM     33  C   UNL     1       6.159   0.074   8.775  0.00  0.00    +0.046 A 
ATOM     34  C   UNL     1       7.351   0.565   9.287  0.00  0.00    +0.014 A 
ATOM     35  C   UNL     1       7.957  -0.064  10.369  0.00  0.00    +0.001 A 
ATOM     36  C   UNL     1       7.407  -1.168  10.954  0.00  0.00    +0.008 A 
ATOM     37  C   UNL     1       5.478   0.703   7.633  0.00  0.00    +0.254 C 
ATOM     38  O   UNL     1       5.962   1.686   7.107  0.00  0.00    -0.270 OA
ENDBRANCH  23  24
ENDBRANCH  22  23
ENDBRANCH   4  22
TORSDOF 9
