REMARK  Name = ZINC38704606
REMARK  8 active torsions:
REMARK  status: ('A' for Active; 'I' for Inactive)
REMARK    1  A    between atoms: C_3  and  N_32
REMARK    2  A    between atoms: C_5  and  C_6
REMARK    3  A    between atoms: C_7  and  C_8
REMARK    4  A    between atoms: C_7  and  C_10
REMARK    5  A    between atoms: N_12  and  C_13
REMARK    6  A    between atoms: C_14  and  C_22
REMARK    7  A    between atoms: N_24  and  C_25
REMARK    8  A    between atoms: C_25  and  C_26
REMARK                            x       y       z     vdW  Elec       q    Type
REMARK                         _______ _______ _______ _____ _____    ______ ____
ROOT
ATOM      1  C   UNL     1       0.386  -2.802  -0.122  0.00  0.00    +0.259 C 
ATOM      2  O   UNL     1       1.359  -2.092   0.055  0.00  0.00    -0.269 OA
ATOM      3  N   UNL     1       0.545  -4.124  -0.334  0.00  0.00    -0.275 N 
ATOM      4  H   UNL     1      -0.231  -4.689  -0.475  0.00  0.00    +0.156 HD
ENDROOT
BRANCH   3   5
ATOM      5  C   UNL     1       1.816  -4.675  -0.349  0.00  0.00    +0.085 A 
ATOM      6  C   UNL     1       2.168  -6.000  -0.555  0.00  0.00    +0.069 A 
ATOM      7  C   UNL     1       3.584  -6.323  -0.523  0.00  0.00    -0.023 A 
ATOM      8  C   UNL     1       4.387  -5.263  -0.291  0.00  0.00    -0.004 A 
ATOM      9  S   UNL     1       3.284  -3.890  -0.130  0.00  0.00    -0.077 S 
ATOM     10  C   UNL     1       5.882  -5.270  -0.197  0.00  0.00    +0.043 C 
ATOM     11  C   UNL     1       6.347  -6.724  -0.030  0.00  0.00    +0.005 C 
ATOM     12  C   UNL     1       5.641  -7.594  -1.074  0.00  0.00    +0.005 C 
ATOM     13  C   UNL     1       4.155  -7.718  -0.729  0.00  0.00    +0.037 C 
BRANCH   6  14
ATOM     14  C   UNL     1       1.154  -7.031  -0.795  0.00  0.00    +0.247 C 
ATOM     15  O   UNL     1       0.797  -7.281  -1.932  0.00  0.00    -0.270 OA
ATOM     16  N   UNL     1       0.617  -7.702   0.243  0.00  0.00    -0.309 N 
ATOM     17  H   UNL     1       0.901  -7.503   1.149  0.00  0.00    +0.149 HD
BRANCH  16  18
ATOM     18  C   UNL     1      -0.396  -8.733   0.003  0.00  0.00    +0.136 C 
BRANCH  18  19
ATOM     19  C   UNL     1      -0.837  -9.335   1.339  0.00  0.00    +0.135 C 
ATOM     20  C   UNL     1      -1.814 -10.504   1.090  0.00  0.00    +0.035 C 
ATOM     21  C   UNL     1      -2.852 -10.315   2.229  0.00  0.00    +0.031 C 
ATOM     22  C   UNL     1      -2.884  -8.770   2.345  0.00  0.00    +0.160 C 
ATOM     23  O   UNL     1      -1.528  -8.348   2.113  0.00  0.00    -0.375 OA
ENDBRANCH  18  19
ENDBRANCH  16  18
ENDBRANCH   6  14
ENDBRANCH   3   5
BRANCH   1  25
ATOM     24  C   UNL     1      -1.134  -0.885   0.252  0.00  0.00    +0.070 C 
ATOM     25  C   UNL     1      -0.958  -2.220  -0.105  0.00  0.00    +0.117 C 
BRANCH  24  30
ATOM     26  C   UNL     1       0.229   1.180   0.473  0.00  0.00    +0.051 A 
ATOM     27  C   UNL     1       1.378   1.505   1.189  0.00  0.00    +0.066 A 
ATOM     28  C   UNL     1       1.754   0.376   1.887  0.00  0.00    +0.189 A 
ATOM     29  O   UNL     1       0.882  -0.607   1.618  0.00  0.00    -0.442 OA
ATOM     30  C   UNL     1      -0.059  -0.149   0.760  0.00  0.00    +0.132 A 
BRANCH  28  31
ATOM     31  N   UNL     1       2.845   0.274   2.720  0.00  0.00    -0.301 N 
ATOM     32  C   UNL     1       3.728   1.427   2.941  0.00  0.00    +0.108 C 
ATOM     33  C   UNL     1       3.850   1.673   4.448  0.00  0.00    +0.019 C 
ATOM     34  C   UNL     1       4.313   0.386   5.135  0.00  0.00    +0.003 C 
ATOM     35  C   UNL     1       3.276  -0.716   4.908  0.00  0.00    +0.019 C 
ATOM     36  C   UNL     1       3.144  -0.988   3.411  0.00  0.00    +0.108 C 
ENDBRANCH  28  31
ENDBRANCH  24  30
BRANCH  25  37
ATOM     37  C   UNL     1      -2.091  -3.022  -0.456  0.00  0.00    +0.104 C 
ATOM     38  N   UNL     1      -2.989  -3.659  -0.735  0.00  0.00    -0.191 NA
ENDBRANCH  25  37
ENDBRANCH   1  25
TORSDOF 8
