REMARK  Name = ZINC13507396
REMARK  8 active torsions:
REMARK  status: ('A' for Active; 'I' for Inactive)
REMARK    1  A    between atoms: C_5  and  N_7
REMARK    2  A    between atoms: N_7  and  C_8
REMARK    3  A    between atoms: C_8  and  C_10
REMARK    4  A    between atoms: C_8  and  C_17
REMARK    5  A    between atoms: N_19  and  C_20
REMARK    6  A    between atoms: C_25  and  C_27
REMARK    7  A    between atoms: C_27  and  N_28
REMARK    8  A    between atoms: C_29  and  C_31
REMARK                            x       y       z     vdW  Elec       q    Type
REMARK                         _______ _______ _______ _____ _____    ______ ____
ROOT
ATOM      1  N   UNL     1      -0.433   0.837   1.435  0.00  0.00    -0.251 N 
ATOM      2  C   UNL     1      -1.717   0.486   1.647  0.00  0.00    +0.238 C 
ATOM      3  O   UNL     1      -2.384   0.048   0.733  0.00  0.00    -0.274 OA
ENDROOT
BRANCH   1   8
ATOM      4  C   UNL     1       0.897   3.137   3.979  0.00  0.00    +0.002 A 
ATOM      5  C   UNL     1       1.859   2.342   4.575  0.00  0.00    +0.003 A 
ATOM      6  C   UNL     1       2.063   1.048   4.132  0.00  0.00    +0.040 A 
ATOM      7  C   UNL     1       1.302   0.544   3.094  0.00  0.00    +0.145 A 
ATOM      8  C   UNL     1       0.337   1.343   2.490  0.00  0.00    +0.073 A 
ATOM      9  C   UNL     1       0.136   2.641   2.938  0.00  0.00    +0.026 A 
ATOM     10  F   UNL     1       1.497  -0.722   2.664  0.00  0.00    -0.204 F 
ENDBRANCH   1   8
BRANCH   1  11
ATOM     11  C   UNL     1       0.156   0.691   0.102  0.00  0.00    +0.197 C 
BRANCH  11  12
ATOM     12  C   UNL     1      -0.500   1.660  -0.847  0.00  0.00    -0.018 A 
ATOM     13  C   UNL     1      -0.677   2.979  -0.474  0.00  0.00    +0.007 A 
ATOM     14  C   UNL     1      -1.274   3.870  -1.347  0.00  0.00    +0.020 A 
ATOM     15  C   UNL     1      -1.705   3.438  -2.589  0.00  0.00    +0.041 A 
ATOM     16  C   UNL     1      -1.533   2.116  -2.959  0.00  0.00    +0.020 A 
ATOM     17  C   UNL     1      -0.930   1.228  -2.088  0.00  0.00    +0.007 A 
ATOM     18 CL   UNL     1      -2.462   4.554  -3.682  0.00  0.00    -0.084 Cl
ENDBRANCH  11  12
BRANCH  11  19
ATOM     19  C   UNL     1       1.634   0.978   0.172  0.00  0.00    +0.239 C 
ATOM     20  O   UNL     1       2.048   1.845   0.911  0.00  0.00    -0.273 OA
ATOM     21  N   UNL     1       2.494   0.273  -0.589  0.00  0.00    -0.311 N 
ATOM     22  H   UNL     1       2.163  -0.421  -1.180  0.00  0.00    +0.149 HD
BRANCH  21  23
ATOM     23  C   UNL     1       3.931   0.552  -0.521  0.00  0.00    +0.073 C 
ATOM     24  C   UNL     1       4.300   1.667  -1.522  0.00  0.00    +0.022 C 
ATOM     25  C   UNL     1       5.688   1.245  -2.065  0.00  0.00    +0.002 C 
ATOM     26  C   UNL     1       5.558  -0.295  -2.175  0.00  0.00    +0.002 C 
ATOM     27  C   UNL     1       4.731  -0.694  -0.936  0.00  0.00    +0.022 C 
ENDBRANCH  21  23
ENDBRANCH  11  19
ENDBRANCH   1  11
BRANCH   2  28
ATOM     28  C   UNL     1      -2.324   0.637   3.018  0.00  0.00    +0.201 C 
BRANCH  28  29
ATOM     29  N   UNL     1      -3.718   0.190   2.987  0.00  0.00    -0.300 N 
ATOM     30  C   UNL     1      -4.465   0.234   4.108  0.00  0.00    +0.280 C 
ATOM     31  O   UNL     1      -3.981   0.645   5.146  0.00  0.00    -0.267 OA
ATOM     32  H   UNL     1      -4.104  -0.138   2.160  0.00  0.00    +0.150 HD
BRANCH  30  33
ATOM     33  C   UNL     1      -5.862  -0.213   4.077  0.00  0.00    +0.189 A 
ATOM     34  C   UNL     1      -6.725  -0.221   5.135  0.00  0.00    +0.054 A 
ATOM     35  C   UNL     1      -7.945  -0.724   4.656  0.00  0.00    +0.042 A 
ATOM     36  C   UNL     1      -7.774  -0.998   3.344  0.00  0.00    +0.196 A 
ATOM     37  O   UNL     1      -6.519  -0.683   2.997  0.00  0.00    -0.458 OA
ENDBRANCH  30  33
ENDBRANCH  28  29
ENDBRANCH   2  28
TORSDOF 8
