REMARK  Name = ZINC21157825
REMARK  6 active torsions:
REMARK  status: ('A' for Active; 'I' for Inactive)
REMARK    1  A    between atoms: C_1  and  C_2
REMARK    2  A    between atoms: C_2  and  O_3
REMARK    3  A    between atoms: O_3  and  C_4
REMARK    4  A    between atoms: C_6  and  C_11
REMARK    5  A    between atoms: C_9  and  O_10
REMARK    6  A    between atoms: C_21  and  C_22
REMARK                            x       y       z     vdW  Elec       q    Type
REMARK                         _______ _______ _______ _____ _____    ______ ____
ROOT
ATOM      1  C   UNL     1       4.298   6.758  -1.755  0.00  0.00    +0.066 C 
ATOM      2  C   UNL     1       3.061   7.513  -2.247  0.00  0.00    +0.109 C 
ATOM      3  C   UNL     1       1.968   6.556  -2.627  0.00  0.00    +0.218 C 
ATOM      4  O   UNL     1       1.281   6.815  -3.592  0.00  0.00    -0.275 OA
ATOM      5  N   UNL     1       1.716   5.425  -1.945  0.00  0.00    -0.284 N 
ATOM      6  C   UNL     1       2.642   5.003  -0.951  0.00  0.00    +0.052 A 
ATOM      7  C   UNL     1       3.847   5.639  -0.874  0.00  0.00    +0.019 A 
ATOM      8  S   UNL     1       4.689   4.825   0.450  0.00  0.00    -0.098 S 
ATOM      9  C   UNL     1       3.422   3.645   0.886  0.00  0.00    +0.055 A 
ATOM     10  C   UNL     1       2.425   3.937  -0.000  0.00  0.00    +0.011 A 
ATOM     11  H   UNL     1       0.807   4.844  -2.161  0.00  0.00    +0.155 HD
ENDROOT
BRANCH  10  12
ATOM     12  C   UNL     1       1.153   3.174   0.008  0.00  0.00    -0.016 A 
ATOM     13  C   UNL     1       1.174   1.781   0.000  0.00  0.00    +0.010 A 
ATOM     14  C   UNL     1      -0.013   1.076   0.008  0.00  0.00    +0.020 A 
ATOM     15  C   UNL     1      -1.221   1.750   0.017  0.00  0.00    +0.041 A 
ATOM     16  C   UNL     1      -1.247   3.135   0.031  0.00  0.00    +0.020 A 
ATOM     17  C   UNL     1      -0.066   3.849   0.023  0.00  0.00    +0.010 A 
ATOM     18 CL   UNL     1      -2.710   0.858   0.020  0.00  0.00    -0.084 Cl
ENDBRANCH  10  12
BRANCH   1  21
ATOM     19  C   UNL     1       7.043   6.056  -4.253  0.00  0.00    +0.162 A 
ATOM     20  C   UNL     1       6.356   6.569  -3.165  0.00  0.00    +0.053 A 
ATOM     21  C   UNL     1       5.041   6.204  -2.942  0.00  0.00    -0.035 A 
ATOM     22  C   UNL     1       4.406   5.335  -3.810  0.00  0.00    +0.008 A 
ATOM     23  C   UNL     1       5.084   4.823  -4.900  0.00  0.00    +0.049 A 
ATOM     24  C   UNL     1       6.403   5.181  -5.126  0.00  0.00    +0.158 A 
BRANCH  24  25
ATOM     25  O   UNL     1       7.072   4.679  -6.199  0.00  0.00    -0.503 OA
ATOM     26  H   UNL     1       6.565   3.987  -6.888  0.00  0.00    +0.292 HD
ENDBRANCH  24  25
BRANCH  19  27
ATOM     27  O   UNL     1       8.338   6.410  -4.471  0.00  0.00    -0.489 OA
BRANCH  27  29
ATOM     28  C   UNL     1      10.378   7.591  -3.940  0.00  0.00    +0.048 C 
ATOM     29  C   UNL     1       8.930   7.312  -3.533  0.00  0.00    +0.226 C 
ENDBRANCH  27  29
ENDBRANCH  19  27
ENDBRANCH   1  21
TORSDOF 5
