REMARK  Name = ZINC01129005
REMARK  4 active torsions:
REMARK  status: ('A' for Active; 'I' for Inactive)
REMARK    1  A    between atoms: C_4  and  C_7
REMARK    2  A    between atoms: C_22  and  C_27
REMARK    3  A    between atoms: N_29  and  C_30
REMARK    4  A    between atoms: C_30  and  C_31
REMARK                            x       y       z     vdW  Elec       q    Type
REMARK                         _______ _______ _______ _____ _____    ______ ____
ROOT
ATOM      1  C   UNL     1      -1.995   1.931  -1.494  0.00  0.00    +0.105 C 
ATOM      2  C   UNL     1      -0.487   1.754  -1.498  0.00  0.00    +0.024 C 
ATOM      3  C   UNL     1       0.001   1.466  -0.045  0.00  0.00    -0.005 C 
ATOM      4  C   UNL     1       1.547   1.668  -0.114  0.00  0.00    +0.004 C 
ATOM      5  C   UNL     1       2.056   0.480  -0.962  0.00  0.00    +0.004 C 
ATOM      6  C   UNL     1       0.774  -0.336  -1.312  0.00  0.00    -0.003 C 
ATOM      7  C   UNL     1      -0.082  -0.102  -0.017  0.00  0.00    +0.008 C 
ATOM      8  C   UNL     1      -0.000   0.565  -2.328  0.00  0.00    +0.029 C 
ATOM      9  C   UNL     1      -1.091  -0.259  -2.939  0.00  0.00    -0.022 A 
ATOM     10  C   UNL     1      -0.822  -1.036  -4.049  0.00  0.00    +0.018 A 
ATOM     11  C   UNL     1      -1.825  -1.833  -4.606  0.00  0.00    +0.037 A 
ATOM     12  C   UNL     1      -3.104  -1.852  -4.043  0.00  0.00    +0.015 A 
ATOM     13  C   UNL     1      -3.376  -1.066  -2.944  0.00  0.00    +0.024 A 
ATOM     14  C   UNL     1      -2.380  -0.266  -2.410  0.00  0.00    +0.031 A 
ATOM     15  N   UNL     1      -2.639   0.610  -1.351  0.00  0.00    -0.336 N 
ATOM     16  H   UNL     1      -3.192   0.372  -0.590  0.00  0.00    +0.147 HD
ENDROOT
BRANCH   1  20
ATOM     17  C   UNL     1      -3.229   3.730  -5.166  0.00  0.00    +0.000 A 
ATOM     18  C   UNL     1      -4.039   2.796  -4.548  0.00  0.00    +0.000 A 
ATOM     19  C   UNL     1      -3.639   2.214  -3.360  0.00  0.00    +0.005 A 
ATOM     20  C   UNL     1      -2.430   2.566  -2.790  0.00  0.00    -0.027 A 
ATOM     21  C   UNL     1      -1.623   3.505  -3.405  0.00  0.00    +0.005 A 
ATOM     22  C   UNL     1      -2.021   4.083  -4.596  0.00  0.00    +0.000 A 
ENDBRANCH   1  20
BRANCH  11  23
ATOM     23  C   UNL     1      -1.532  -2.658  -5.793  0.00  0.00    +0.244 C 
ATOM     24  O   UNL     1      -0.420  -2.643  -6.285  0.00  0.00    -0.270 OA
ATOM     25  N   UNL     1      -2.497  -3.427  -6.334  0.00  0.00    -0.309 N 
ATOM     26  H   UNL     1      -3.384  -3.439  -5.942  0.00  0.00    +0.149 HD
BRANCH  25  27
ATOM     27  C   UNL     1      -2.206  -4.247  -7.513  0.00  0.00    +0.136 C 
BRANCH  27  28
ATOM     28  C   UNL     1      -3.463  -5.017  -7.921  0.00  0.00    +0.135 C 
ATOM     29  C   UNL     1      -3.159  -5.945  -9.124  0.00  0.00    +0.035 C 
ATOM     30  C   UNL     1      -4.259  -7.027  -8.948  0.00  0.00    +0.031 C 
ATOM     31  C   UNL     1      -4.387  -7.117  -7.413  0.00  0.00    +0.160 C 
ATOM     32  O   UNL     1      -3.874  -5.898  -6.863  0.00  0.00    -0.375 OA
ENDBRANCH  27  28
ENDBRANCH  25  27
ENDBRANCH  11  23
TORSDOF 4
