REMARK  Name = ZINC11898486
REMARK  8 active torsions:
REMARK  status: ('A' for Active; 'I' for Inactive)
REMARK    1  A    between atoms: C_1  and  N_2
REMARK    2  A    between atoms: C_6  and  C_7
REMARK    3  A    between atoms: C_7  and  C_9
REMARK    4  A    between atoms: C_7  and  N_58
REMARK    5  A    between atoms: C_9  and  N_10
REMARK    6  A    between atoms: C_11  and  C_13
REMARK    7  A    between atoms: N_15  and  C_16
REMARK    8  A    between atoms: C_21  and  N_22
REMARK                            x       y       z     vdW  Elec       q    Type
REMARK                         _______ _______ _______ _____ _____    ______ ____
ROOT
ATOM      1  C   UNL     1      -1.099  -1.037   0.228  0.00  0.00    -0.003 C 
ENDROOT
BRANCH   1  11
ATOM      2  C   UNL     1      -1.084  -3.433  -0.134  0.00  0.00    -0.073 C 
ATOM      3  C   UNL     1      -0.131  -4.627  -0.183  0.00  0.00    +0.017 C 
ATOM      4  C   UNL     1       0.502  -4.836   1.168  0.00  0.00    -0.048 A 
ATOM      5  C   UNL     1       1.113  -6.053   1.431  0.00  0.00    +0.004 A 
ATOM      6  C   UNL     1       1.709  -6.284   2.655  0.00  0.00    +0.000 A 
ATOM      7  C   UNL     1       1.696  -5.298   3.624  0.00  0.00    +0.000 A 
ATOM      8  C   UNL     1       1.086  -4.087   3.364  0.00  0.00    +0.002 A 
ATOM      9  C   UNL     1       0.486  -3.854   2.135  0.00  0.00    -0.061 A 
ATOM     10  C   UNL     1      -0.170  -2.518   1.900  0.00  0.00    -0.042 C 
ATOM     11  N   UNL     1      -0.352  -2.295   0.456  0.00  0.00    +0.389 N 
ATOM     12  H   UNL     1       0.570  -2.221   0.009  0.00  0.00    -0.080 HD
ENDBRANCH   1  11
BRANCH   1  18
ATOM     13  C   UNL     1      -1.890   1.960   0.175  0.00  0.00    +0.148 C 
ATOM     14  N   UNL     1      -0.572   1.444   0.551  0.00  0.00    -0.355 N 
ATOM     15  C   UNL     1       0.499   2.199   0.928  0.00  0.00    +0.085 A 
ATOM     16  C   UNL     1       1.529   1.369   1.189  0.00  0.00    +0.019 A 
ATOM     17  C   UNL     1       1.078   0.053   0.966  0.00  0.00    +0.021 A 
ATOM     18  C   UNL     1      -0.211   0.130   0.576  0.00  0.00    +0.006 A 
ENDBRANCH   1  18
BRANCH   1  19
ATOM     19  C   UNL     1      -2.355  -1.000   1.101  0.00  0.00    +0.095 C 
BRANCH  19  20
ATOM     20  N   UNL     1      -3.276  -2.058   0.676  0.00  0.00    -0.309 N 
ATOM     21  C   UNL     1      -4.391  -2.307   1.391  0.00  0.00    +0.299 C 
ATOM     22  O   UNL     1      -4.631  -1.656   2.387  0.00  0.00    -0.265 OA
ATOM     23  H   UNL     1      -3.083  -2.578  -0.119  0.00  0.00    +0.149 HD
BRANCH  21  24
ATOM     24  C   UNL     1      -5.330  -3.385   0.958  0.00  0.00    +0.303 C 
ATOM     25  O   UNL     1      -5.089  -4.036  -0.037  0.00  0.00    -0.265 OA
ATOM     26  N   UNL     1      -6.445  -3.634   1.673  0.00  0.00    -0.276 N 
ATOM     27  H   UNL     1      -6.671  -3.073   2.431  0.00  0.00    +0.155 HD
BRANCH  26  28
ATOM     28  C   UNL     1      -7.275  -4.702   1.323  0.00  0.00    +0.064 A 
ATOM     29  C   UNL     1      -6.731  -5.854   0.767  0.00  0.00    +0.025 A 
ATOM     30  C   UNL     1      -7.555  -6.909   0.426  0.00  0.00    +0.002 A 
ATOM     31  C   UNL     1      -8.920  -6.816   0.627  0.00  0.00    +0.002 A 
ATOM     32  C   UNL     1      -9.465  -5.669   1.174  0.00  0.00    +0.034 A 
ATOM     33  C   UNL     1      -8.647  -4.612   1.522  0.00  0.00    +0.147 A 
BRANCH  33  34
ATOM     34  N   UNL     1      -9.231  -3.384   2.108  0.00  0.00    +0.058 N 
ATOM     35  O   UNL     1     -10.418  -3.344   2.378  0.00  0.00    -0.126 OA
ATOM     36  O   UNL     1      -8.525  -2.414   2.319  0.00  0.00    -0.126 OA
ENDBRANCH  33  34
ENDBRANCH  26  28
ENDBRANCH  21  24
ENDBRANCH  19  20
ENDBRANCH   1  19
TORSDOF 7
