REMARK  Name = ZINC39609553
REMARK  10 active torsions:
REMARK  status: ('A' for Active; 'I' for Inactive)
REMARK    1  A    between atoms: C_1  and  C_2
REMARK    2  A    between atoms: C_2  and  O_3
REMARK    3  A    between atoms: O_3  and  C_4
REMARK    4  A    between atoms: C_8  and  C_10
REMARK    5  A    between atoms: C_10  and  C_11
REMARK    6  A    between atoms: C_11  and  N_12
REMARK    7  A    between atoms: C_13  and  C_15
REMARK    8  A    between atoms: C_26  and  C_28
REMARK    9  A    between atoms: C_32  and  O_33
REMARK   10  A    between atoms: O_33  and  C_34
REMARK                            x       y       z     vdW  Elec       q    Type
REMARK                         _______ _______ _______ _____ _____    ______ ____
ROOT
ATOM      1  C   UNL     1       1.897  -5.831  -8.470  0.00  0.00    +0.100 C 
ATOM      2  C   UNL     1       2.588  -7.168  -8.120  0.00  0.00    +0.121 C 
ATOM      3  N   UNL     1       1.605  -8.209  -8.502  0.00  0.00    -0.296 N 
ATOM      4  C   UNL     1       1.014  -7.711  -9.767  0.00  0.00    +0.115 C 
ATOM      5  C   UNL     1       0.867  -6.191  -9.554  0.00  0.00    -0.004 C 
ATOM      6  C   UNL     1      -0.543  -5.861  -9.074  0.00  0.00    -0.010 C 
ATOM      7  C   UNL     1      -1.544  -6.175 -10.189  0.00  0.00    -0.082 C 
ATOM      8  N   UNL     1      -1.213  -5.385 -11.382  0.00  0.00    +0.379 N 
ATOM      9  C   UNL     1       0.107  -5.775 -11.891  0.00  0.00    -0.082 C 
ATOM     10  C   UNL     1       1.177  -5.445 -10.848  0.00  0.00    -0.010 C 
ATOM     11  C   UNL     1       1.314  -9.351  -7.847  0.00  0.00    +0.251 C 
ATOM     12  O   UNL     1       1.818  -9.575  -6.762  0.00  0.00    -0.270 OA
ATOM     13  H   UNL     1      -1.909  -5.547 -12.094  0.00  0.00    -0.086 HD
ATOM     14  H   UNL     1      -1.203  -4.405 -11.142  0.00  0.00    -0.086 HD
ENDROOT
BRANCH  11  15
ATOM     15  C   UNL     1       0.388 -10.325  -8.444  0.00  0.00    +0.087 A 
ATOM     16  C   UNL     1       0.338 -10.533  -9.805  0.00  0.00    +0.063 A 
ATOM     17  S   UNL     1      -0.843 -11.709 -10.001  0.00  0.00    -0.081 S 
ATOM     18  C   UNL     1      -1.310 -11.969  -8.303  0.00  0.00    +0.120 A 
ATOM     19  C   UNL     1      -0.507 -11.115  -7.629  0.00  0.00    +0.158 A 
ATOM     20 CL   UNL     1      -2.502 -13.059  -7.667  0.00  0.00    -0.072 Cl
BRANCH  19  21
ATOM     21  O   UNL     1      -0.544 -11.003  -6.273  0.00  0.00    -0.492 OA
ATOM     22  C   UNL     1      -1.450 -10.043  -5.725  0.00  0.00    +0.277 C 
ENDBRANCH  19  21
ENDBRANCH  11  15
BRANCH   1  24
ATOM     23  N   UNL     1       1.080  -3.929  -7.116  0.00  0.00    -0.315 N 
ATOM     24  C   UNL     1       1.206  -5.264  -7.257  0.00  0.00    +0.218 C 
ATOM     25  O   UNL     1       0.763  -6.008  -6.408  0.00  0.00    -0.275 OA
ATOM     26  H   UNL     1       1.435  -3.334  -7.795  0.00  0.00    +0.149 HD
BRANCH  23  27
ATOM     27  C   UNL     1       0.408  -3.378  -5.937  0.00  0.00    +0.109 C 
BRANCH  27  28
ATOM     28  C   UNL     1       0.401  -1.850  -6.022  0.00  0.00    +0.054 C 
BRANCH  28  33
ATOM     29  C   UNL     1      -2.289  -0.537  -3.716  0.00  0.00    +0.121 A 
ATOM     30  C   UNL     1      -1.553  -0.239  -2.578  0.00  0.00    +0.045 A 
ATOM     31  C   UNL     1      -0.190  -0.464  -2.559  0.00  0.00    +0.004 A 
ATOM     32  C   UNL     1       0.441  -0.985  -3.674  0.00  0.00    +0.004 A 
ATOM     33  C   UNL     1      -0.290  -1.283  -4.809  0.00  0.00    -0.042 A 
ATOM     34  C   UNL     1      -1.654  -1.065  -4.830  0.00  0.00    +0.049 A 
BRANCH  29  35
ATOM     35  O   UNL     1      -3.630  -0.318  -3.736  0.00  0.00    -0.492 OA
BRANCH  35  37
ATOM     36  C   UNL     1      -5.721   0.403  -2.763  0.00  0.00    +0.048 C 
ATOM     37  C   UNL     1      -4.216   0.227  -2.553  0.00  0.00    +0.225 C 
ENDBRANCH  35  37
ENDBRANCH  29  35
ENDBRANCH  28  33
ENDBRANCH  27  28
ENDBRANCH  23  27
ENDBRANCH   1  24
TORSDOF 8
