REMARK  Name = ZINC19820026
REMARK  3 active torsions:
REMARK  status: ('A' for Active; 'I' for Inactive)
REMARK    1  A    between atoms: C_4  and  O_7
REMARK    2  A    between atoms: O_7  and  C_8
REMARK    3  A    between atoms: C_11  and  C_14
REMARK                            x       y       z     vdW  Elec       q    Type
REMARK                         _______ _______ _______ _____ _____    ______ ____
ROOT
ATOM      1  C   UNL     1       3.883  -6.255   0.072  0.00  0.00    +0.092 C 
ATOM      2  C   UNL     1       4.545  -6.688   1.346  0.00  0.00    +0.069 A 
ATOM      3  C   UNL     1       5.837  -7.114   1.354  0.00  0.00    +0.112 A 
ATOM      4  N   UNL     1       6.411  -7.494   2.539  0.00  0.00    -0.315 N 
ATOM      5  H   UNL     1       7.332  -7.798   2.555  0.00  0.00    +0.170 HD
ATOM      6  C   UNL     1       5.690  -7.446   3.693  0.00  0.00    +0.200 A 
ATOM      7  N   UNL     1       4.439  -7.038   3.698  0.00  0.00    -0.177 NA
ATOM      8  C   UNL     1       3.832  -6.656   2.564  0.00  0.00    +0.280 A 
ATOM      9  O   UNL     1       2.668  -6.282   2.585  0.00  0.00    -0.265 OA
ATOM     10  N   UNL     1       6.278  -7.828   4.869  0.00  0.00    -0.301 N 
ATOM     11  C   UNL     1       5.491  -7.913   6.106  0.00  0.00    +0.108 C 
ATOM     12  C   UNL     1       5.678  -9.307   6.715  0.00  0.00    +0.019 C 
ATOM     13  C   UNL     1       7.172  -9.581   6.901  0.00  0.00    +0.003 C 
ATOM     14  C   UNL     1       7.872  -9.550   5.540  0.00  0.00    +0.019 C 
ATOM     15  C   UNL     1       7.707  -8.165   4.917  0.00  0.00    +0.108 C 
ATOM     16  N   UNL     1       6.556  -7.166   0.183  0.00  0.00    -0.304 N 
ATOM     17  C   UNL     1       5.917  -7.174  -1.028  0.00  0.00    +0.017 C 
ATOM     18  C   UNL     1       4.642  -6.749  -1.134  0.00  0.00    +0.024 C 
ATOM     19  C   UNL     1       3.981  -6.751  -2.375  0.00  0.00    +0.162 C 
ATOM     20  O   UNL     1       2.826  -6.377  -2.436  0.00  0.00    -0.292 OA
ATOM     21  C   UNL     1       4.676  -7.207  -3.628  0.00  0.00    +0.080 C 
ATOM     22  C   UNL     1       6.180  -6.951  -3.485  0.00  0.00    +0.014 C 
ATOM     23  C   UNL     1       6.674  -7.673  -2.234  0.00  0.00    +0.051 C 
ATOM     24  H   UNL     1       7.525  -7.196   0.215  0.00  0.00    +0.153 HD
ENDROOT
BRANCH   1  28
ATOM     25  C   UNL     1       3.710  -1.986  -0.036  0.00  0.00    +0.128 A 
ATOM     26  C   UNL     1       2.539  -2.730  -0.062  0.00  0.00    +0.046 A 
ATOM     27  C   UNL     1       2.598  -4.110  -0.028  0.00  0.00    +0.008 A 
ATOM     28  C   UNL     1       3.822  -4.750   0.034  0.00  0.00    -0.035 A 
ATOM     29  C   UNL     1       4.990  -4.011   0.060  0.00  0.00    +0.008 A 
ATOM     30  C   UNL     1       4.938  -2.631   0.019  0.00  0.00    +0.046 A 
BRANCH  25  31
ATOM     31  O   UNL     1       3.655  -0.629  -0.070  0.00  0.00    -0.456 OA
BRANCH  31  35
ATOM     32  C   UNL     1       2.651   1.356   3.404  0.00  0.00    +0.000 A 
ATOM     33  C   UNL     1       2.633  -0.026   3.369  0.00  0.00    +0.004 A 
ATOM     34  C   UNL     1       2.969  -0.694   2.207  0.00  0.00    +0.046 A 
ATOM     35  C   UNL     1       3.324   0.025   1.074  0.00  0.00    +0.128 A 
ATOM     36  C   UNL     1       3.341   1.412   1.112  0.00  0.00    +0.046 A 
ATOM     37  C   UNL     1       3.004   2.074   2.277  0.00  0.00    +0.004 A 
ENDBRANCH  31  35
ENDBRANCH  25  31
ENDBRANCH   1  28
TORSDOF 3
