REMARK  Name = ZINC24871633
REMARK  13 active torsions:
REMARK  status: ('A' for Active; 'I' for Inactive)
REMARK    1  A    between atoms: C_1  and  C_2
REMARK    2  A    between atoms: C_4  and  N_24
REMARK    3  A    between atoms: C_6  and  C_7
REMARK    4  A    between atoms: N_9  and  C_10
REMARK    5  A    between atoms: N_9  and  C_11
REMARK    6  A    between atoms: C_11  and  C_13
REMARK    7  A    between atoms: C_11  and  C_14
REMARK    8  A    between atoms: C_17  and  S_20
REMARK    9  A    between atoms: S_20  and  N_23
REMARK   10  A    between atoms: C_25  and  C_27
REMARK   11  A    between atoms: C_27  and  C_28
REMARK   12  A    between atoms: C_27  and  C_29
REMARK   13  A    between atoms: C_27  and  C_30
REMARK                            x       y       z     vdW  Elec       q    Type
REMARK                         _______ _______ _______ _____ _____    ______ ____
ROOT
ATOM      1  C   UNL     1      -5.315  -1.775   0.044  0.00  0.00    +0.254 C 
ATOM      2  O   UNL     1      -6.521  -1.619   0.099  0.00  0.00    -0.269 OA
ATOM      3  N   UNL     1      -4.801  -3.015  -0.077  0.00  0.00    -0.293 N 
ATOM      4  C   UNL     1      -3.349  -3.212  -0.051  0.00  0.00    +0.133 C 
ENDROOT
BRANCH   1  10
ATOM      5  C   UNL     1      -6.180   1.195   0.075  0.00  0.00    +0.045 C 
ATOM      6  C   UNL     1      -4.747   0.731   0.126  0.00  0.00    -0.029 A 
ATOM      7  C   UNL     1      -3.711   1.624   0.192  0.00  0.00    +0.035 A 
ATOM      8  C   UNL     1      -2.421   1.141   0.237  0.00  0.00    +0.073 A 
ATOM      9  S   UNL     1      -2.642  -0.577   0.182  0.00  0.00    -0.069 S 
ATOM     10  C   UNL     1      -4.424  -0.618   0.110  0.00  0.00    +0.079 A 
BRANCH   8  11
ATOM     11  N   UNL     1      -1.232   1.857   0.305  0.00  0.00    -0.280 N 
ATOM     12  C   UNL     1      -0.054   1.205   0.342  0.00  0.00    +0.223 C 
ATOM     13  O   UNL     1      -0.030  -0.007   0.316  0.00  0.00    -0.275 OA
ATOM     14  H   UNL     1      -1.254   2.957   0.328  0.00  0.00    +0.155 HD
BRANCH  12  15
ATOM     15  C   UNL     1       1.236   1.982   0.409  0.00  0.00    +0.039 C 
ATOM     16  C   UNL     1       2.417   1.010   0.433  0.00  0.00    +0.020 C 
ATOM     17  C   UNL     1       1.348   2.890  -0.818  0.00  0.00    +0.020 C 
ATOM     18  C   UNL     1       1.252   2.836   1.679  0.00  0.00    +0.020 C 
ENDBRANCH  12  15
ENDBRANCH   8  11
ENDBRANCH   1  10
BRANCH   3  19
ATOM     19  C   UNL     1      -5.693  -4.166  -0.235  0.00  0.00    +0.103 C 
ATOM     20  C   UNL     1      -5.476  -4.795  -1.612  0.00  0.00    +0.033 C 
BRANCH  19  21
ATOM     21  C   UNL     1      -5.394  -5.184   0.835  0.00  0.00    -0.027 A 
ATOM     22  C   UNL     1      -5.409  -6.532   0.530  0.00  0.00    +0.007 A 
ATOM     23  C   UNL     1      -5.130  -7.466   1.511  0.00  0.00    +0.029 A 
ATOM     24  C   UNL     1      -4.847  -7.052   2.799  0.00  0.00    +0.105 A 
ATOM     25  C   UNL     1      -4.838  -5.704   3.105  0.00  0.00    +0.029 A 
ATOM     26  C   UNL     1      -5.111  -4.770   2.123  0.00  0.00    +0.007 A 
BRANCH  24  27
ATOM     27  S   UNL     1      -4.499  -8.242   4.051  0.00  0.00    +0.056 S 
ATOM     28  O   UNL     1      -4.035  -9.408   3.384  0.00  0.00    -0.153 OA
ATOM     29  O   UNL     1      -3.731  -7.575   5.043  0.00  0.00    -0.153 OA
BRANCH  27  30
ATOM     30  N   UNL     1      -5.941  -8.644   4.759  0.00  0.00    -0.204 NA
ATOM     31  H   UNL     1      -5.766  -9.388   5.550  0.00  0.00    +0.144 HD
ATOM     32  H   UNL     1      -6.617  -9.066   4.001  0.00  0.00    +0.144 HD
ENDBRANCH  27  30
ENDBRANCH  24  27
ENDBRANCH  19  21
ENDBRANCH   3  19
TORSDOF 7
