REMARK  Name = ZINC41225561
REMARK  5 active torsions:
REMARK  status: ('A' for Active; 'I' for Inactive)
REMARK    1  A    between atoms: C_1  and  C_2
REMARK    2  A    between atoms: C_7  and  C_8
REMARK    3  A    between atoms: C_8  and  C_10
REMARK    4  A    between atoms: C_8  and  C_16
REMARK    5  A    between atoms: C_10  and  C_11
REMARK                            x       y       z     vdW  Elec       q    Type
REMARK                         _______ _______ _______ _____ _____    ______ ____
ROOT
ATOM      1  C   UNL     1       0.243   0.049   2.492  0.00  0.00    +0.129 C 
ENDROOT
BRANCH   1   8
ATOM      2  C   UNL     1      -0.474   1.459   0.075  0.00  0.00    +0.044 C 
ATOM      3  C   UNL     1      -0.216  -0.025   0.033  0.00  0.00    -0.046 A 
ATOM      4  C   UNL     1      -0.317  -0.710  -1.163  0.00  0.00    +0.003 A 
ATOM      5  C   UNL     1      -0.080  -2.072  -1.202  0.00  0.00    +0.000 A 
ATOM      6  C   UNL     1       0.258  -2.748  -0.044  0.00  0.00    +0.000 A 
ATOM      7  C   UNL     1       0.360  -2.062   1.151  0.00  0.00    +0.005 A 
ATOM      8  C   UNL     1       0.127  -0.700   1.189  0.00  0.00    -0.027 A 
ENDBRANCH   1   8
BRANCH   1   9
ATOM      9  C   UNL     1      -0.803  -0.414   3.419  0.00  0.00    +0.071 C 
ATOM     10  N   UNL     1      -1.610  -0.772   4.134  0.00  0.00    -0.196 NA
ENDBRANCH   1   9
BRANCH   1  11
ATOM     11  C   UNL     1       1.620  -0.209   3.107  0.00  0.00    +0.097 C 
BRANCH  11  12
ATOM     12  C   UNL     1       1.783   0.634   4.346  0.00  0.00    +0.106 A 
ATOM     13  C   UNL     1       1.452   0.267   5.597  0.00  0.00    +0.044 A 
ATOM     14  C   UNL     1       1.771   1.355   6.441  0.00  0.00    +0.041 A 
ATOM     15  C   UNL     1       2.278   2.322   5.656  0.00  0.00    +0.195 A 
ATOM     16  O   UNL     1       2.288   1.878   4.388  0.00  0.00    -0.468 OA
ENDBRANCH  11  12
ENDBRANCH   1  11
TORSDOF 4
