REMARK  Name = ZINC02923022
REMARK  8 active torsions:
REMARK  status: ('A' for Active; 'I' for Inactive)
REMARK    1  A    between atoms: C_1  and  C_2
REMARK    2  A    between atoms: C_3  and  N_9
REMARK    3  A    between atoms: N_9  and  C_10
REMARK    4  A    between atoms: C_10  and  N_12
REMARK    5  A    between atoms: N_12  and  N_13
REMARK    6  A    between atoms: N_21  and  C_24
REMARK    7  A    between atoms: C_24  and  N_25
REMARK    8  A    between atoms: N_28  and  C_31
REMARK                            x       y       z     vdW  Elec       q    Type
REMARK                         _______ _______ _______ _____ _____    ______ ____
ROOT
ATOM      1  N   UNL     1       0.152   1.438  -4.734  0.00  0.00    -0.175 NA
ATOM      2  C   UNL     1       0.235   2.098  -5.865  0.00  0.00    +0.153 C 
ATOM      3  C   UNL     1       0.227   3.567  -6.055  0.00  0.00    +0.028 A 
ATOM      4  C   UNL     1       0.137   4.641  -5.176  0.00  0.00    +0.012 A 
ATOM      5  C   UNL     1       0.157   5.931  -5.667  0.00  0.00    +0.001 A 
ATOM      6  C   UNL     1       0.266   6.154  -7.029  0.00  0.00    +0.002 A 
ATOM      7  C   UNL     1       0.356   5.094  -7.910  0.00  0.00    +0.024 A 
ATOM      8  C   UNL     1       0.338   3.788  -7.434  0.00  0.00    +0.047 A 
ATOM      9  N   UNL     1       0.413   2.564  -8.091  0.00  0.00    -0.252 N 
ATOM     10  C   UNL     1       0.363   1.538  -7.224  0.00  0.00    +0.272 C 
ATOM     11  O   UNL     1       0.412   0.356  -7.511  0.00  0.00    -0.268 OA
ENDROOT
BRANCH   1  12
ATOM     12  N   UNL     1       0.181   0.038  -4.736  0.00  0.00    -0.217 N 
ATOM     13  H   UNL     1       0.262  -0.444  -5.574  0.00  0.00    +0.176 HD
BRANCH  12  14
ATOM     14  C   UNL     1       0.096  -0.640  -3.574  0.00  0.00    +0.154 C 
ATOM     15  S   UNL     1       0.131  -2.351  -3.577  0.00  0.00    -0.017 S 
BRANCH  14  16
ATOM     16  N   UNL     1      -0.018   0.030  -2.410  0.00  0.00    -0.295 N 
ATOM     17  H   UNL     1      -0.080   0.998  -2.412  0.00  0.00    +0.154 HD
BRANCH  16  20
ATOM     18  C   UNL     1      -1.782   0.940  -0.372  0.00  0.00    +0.047 C 
ATOM     19  C   UNL     1      -0.892  -0.261  -0.178  0.00  0.00    -0.011 A 
ATOM     20  C   UNL     1      -0.045  -0.670  -1.200  0.00  0.00    +0.037 A 
ATOM     21  C   UNL     1       0.774  -1.777  -1.018  0.00  0.00    +0.023 A 
ATOM     22  C   UNL     1       0.744  -2.467   0.178  0.00  0.00    +0.003 A 
ATOM     23  C   UNL     1      -0.099  -2.058   1.194  0.00  0.00    +0.020 A 
ATOM     24  C   UNL     1      -0.913  -0.952   1.018  0.00  0.00    +0.046 A 
ATOM     25 CL   UNL     1      -1.966  -0.437   2.299  0.00  0.00    -0.083 Cl
ENDBRANCH  16  20
ENDBRANCH  14  16
ENDBRANCH  12  14
ENDBRANCH   1  12
BRANCH   9  26
ATOM     26  C   UNL     1       0.535   2.413  -9.543  0.00  0.00    +0.201 C 
BRANCH  26  27
ATOM     27  N   UNL     1       1.956   2.385  -9.914  0.00  0.00    -0.284 NA
ATOM     28  C   UNL     1       2.511   3.744  -9.974  0.00  0.00    +0.105 C 
ATOM     29  C   UNL     1       4.027   3.664 -10.184  0.00  0.00    +0.120 C 
ATOM     30  N   UNL     1       4.292   2.831 -11.367  0.00  0.00    -0.327 N 
ATOM     31  C   UNL     1       3.656   1.506 -11.441  0.00  0.00    +0.120 C 
ATOM     32  C   UNL     1       2.155   1.671 -11.182  0.00  0.00    +0.105 C 
BRANCH  30  33
ATOM     33  C   UNL     1       5.124   3.285 -12.393  0.00  0.00    +0.030 A 
ATOM     34  C   UNL     1       5.810   4.485 -12.252  0.00  0.00    +0.023 A 
ATOM     35  C   UNL     1       6.632   4.931 -13.268  0.00  0.00    +0.002 A 
ATOM     36  C   UNL     1       6.773   4.185 -14.424  0.00  0.00    +0.000 A 
ATOM     37  C   UNL     1       6.091   2.991 -14.567  0.00  0.00    +0.002 A 
ATOM     38  C   UNL     1       5.272   2.536 -13.553  0.00  0.00    +0.023 A 
ENDBRANCH  30  33
ENDBRANCH  26  27
ENDBRANCH   9  26
TORSDOF 7
