REMARK  Name = ZINC40046182
REMARK  8 active torsions:
REMARK  status: ('A' for Active; 'I' for Inactive)
REMARK    1  A    between atoms: C_1  and  C_2
REMARK    2  A    between atoms: C_2  and  C_3
REMARK    3  A    between atoms: C_3  and  C_4
REMARK    4  A    between atoms: C_4  and  O_5
REMARK    5  A    between atoms: O_5  and  C_6
REMARK    6  A    between atoms: C_10  and  C_12
REMARK    7  A    between atoms: C_19  and  C_33
REMARK    8  A    between atoms: C_33  and  C_34
REMARK                            x       y       z     vdW  Elec       q    Type
REMARK                         _______ _______ _______ _____ _____    ______ ____
ROOT
ATOM      1  C   UNL     1       2.959  -6.280  -5.094  0.00  0.00    +0.152 C 
ATOM      2  C   UNL     1       4.344  -6.711  -4.738  0.00  0.00    +0.072 A 
ATOM      3  C   UNL     1       5.491  -5.952  -4.228  0.00  0.00    +0.199 A 
ATOM      4  O   UNL     1       5.410  -4.799  -3.843  0.00  0.00    -0.287 OA
ATOM      5  C   UNL     1       6.760  -6.723  -4.225  0.00  0.00    +0.065 A 
ATOM      6  C   UNL     1       7.972  -6.088  -3.959  0.00  0.00    +0.019 A 
ATOM      7  C   UNL     1       9.132  -6.811  -3.965  0.00  0.00    -0.047 A 
ATOM      8  C   UNL     1       9.106  -8.172  -4.235  0.00  0.00    +0.007 A 
ATOM      9  C   UNL     1       7.918  -8.816  -4.498  0.00  0.00    +0.047 A 
ATOM     10  C   UNL     1       6.720  -8.101  -4.495  0.00  0.00    +0.139 A 
ATOM     11  O   UNL     1       5.564  -8.756  -4.747  0.00  0.00    -0.450 OA
ATOM     12  C   UNL     1       4.436  -8.053  -4.974  0.00  0.00    +0.199 A 
ATOM     13  C   UNL     1       3.138  -8.522  -5.487  0.00  0.00    +0.289 C 
ATOM     14  O   UNL     1       2.887  -9.669  -5.799  0.00  0.00    -0.266 OA
ATOM     15  N   UNL     1       2.268  -7.493  -5.561  0.00  0.00    -0.232 N 
ATOM     16  C   UNL     1       0.953  -7.564  -5.999  0.00  0.00    +0.168 A 
ATOM     17  N   UNL     1       0.069  -6.594  -6.094  0.00  0.00    -0.233 NA
ATOM     18  C   UNL     1      -1.154  -6.826  -6.533  0.00  0.00    +0.120 A 
ATOM     19  C   UNL     1      -1.452  -8.103  -6.880  0.00  0.00    +0.068 A 
ATOM     20  S   UNL     1       0.104  -8.911  -6.543  0.00  0.00    -0.060 S 
ENDROOT
BRANCH   1  25
ATOM     21  C   UNL     1       1.514  -3.833  -2.603  0.00  0.00    +0.121 A 
ATOM     22  C   UNL     1       0.980  -4.692  -1.653  0.00  0.00    +0.045 A 
ATOM     23  C   UNL     1       1.088  -6.059  -1.821  0.00  0.00    +0.004 A 
ATOM     24  C   UNL     1       1.728  -6.571  -2.934  0.00  0.00    +0.006 A 
ATOM     25  C   UNL     1       2.262  -5.718  -3.882  0.00  0.00    -0.019 A 
ATOM     26  C   UNL     1       2.151  -4.350  -3.722  0.00  0.00    +0.051 A 
BRANCH  21  27
ATOM     27  O   UNL     1       1.408  -2.488  -2.441  0.00  0.00    -0.492 OA
BRANCH  27  28
ATOM     28  C   UNL     1       0.739  -2.027  -1.265  0.00  0.00    +0.229 C 
BRANCH  28  29
ATOM     29  C   UNL     1       0.718  -0.497  -1.257  0.00  0.00    +0.041 C 
BRANCH  29  31
ATOM     30  C   UNL     1      -0.019   1.526   0.010  0.00  0.00    +0.004 C 
ATOM     31  C   UNL     1       0.002  -0.004   0.002  0.00  0.00    -0.000 C 
ENDBRANCH  29  31
ENDBRANCH  28  29
ENDBRANCH  27  28
ENDBRANCH  21  27
ENDBRANCH   1  25
BRANCH   7  32
ATOM     32  C   UNL     1      10.444  -6.127  -3.678  0.00  0.00    +0.032 C 
ATOM     33  C   UNL     1      10.724  -6.171  -2.175  0.00  0.00    +0.009 C 
ENDBRANCH   7  32
TORSDOF 6
