REMARK  Name = ZINC33937177
REMARK  13 active torsions:
REMARK  status: ('A' for Active; 'I' for Inactive)
REMARK    1  A    between atoms: C_1  and  C_2
REMARK    2  A    between atoms: C_2  and  C_3
REMARK    3  A    between atoms: C_3  and  C_5
REMARK    4  A    between atoms: C_3  and  N_17
REMARK    5  A    between atoms: N_9  and  C_10
REMARK    6  A    between atoms: C_10  and  C_11
REMARK    7  A    between atoms: N_17  and  C_18
REMARK    8  A    between atoms: N_17  and  C_27
REMARK    9  A    between atoms: C_18  and  C_19
REMARK   10  A    between atoms: C_19  and  C_20
REMARK   11  A    between atoms: C_25  and  C_26
REMARK   12  A    between atoms: C_27  and  C_28
REMARK   13  A    between atoms: C_34  and  C_40
REMARK                            x       y       z     vdW  Elec       q    Type
REMARK                         _______ _______ _______ _____ _____    ______ ____
ROOT
ATOM      1  N   UNL     1       2.817   0.010   0.951  0.00  0.00    +0.389 N 
ATOM      2  H   UNL     1       2.809  -0.838   0.405  0.00  0.00    -0.080 HD
ENDROOT
BRANCH   1   3
ATOM      3  C   UNL     1       1.643   0.824   0.610  0.00  0.00    +0.003 C 
BRANCH   3   4
ATOM      4  C   UNL     1       0.436   0.296   1.342  0.00  0.00    +0.138 A 
ATOM      5  N   UNL     1       0.085  -0.961   1.468  0.00  0.00    -0.115 NA
ATOM      6  N   UNL     1      -1.000  -1.003   2.162  0.00  0.00    -0.023 NA
ATOM      7  N   UNL     1      -1.350   0.194   2.482  0.00  0.00    -0.044 NA
ATOM      8  N   UNL     1      -0.486   1.023   2.000  0.00  0.00    -0.228 N 
BRANCH   8   9
ATOM      9  C   UNL     1      -0.508   2.481   2.138  0.00  0.00    +0.178 C 
BRANCH   9  10
ATOM     10  C   UNL     1      -1.296   3.092   0.978  0.00  0.00    +0.140 C 
ATOM     11  C   UNL     1      -1.409   4.627   1.153  0.00  0.00    +0.035 C 
ATOM     12  C   UNL     1      -1.613   5.078  -0.319  0.00  0.00    +0.031 C 
ATOM     13  C   UNL     1      -0.758   4.055  -1.097  0.00  0.00    +0.160 C 
ATOM     14  O   UNL     1      -0.588   2.905  -0.259  0.00  0.00    -0.375 OA
ENDBRANCH   9  10
ENDBRANCH   8   9
ENDBRANCH   3   4
BRANCH   3  16
ATOM     15  C   UNL     1       2.719   0.932  -1.642  0.00  0.00    +0.002 C 
ATOM     16  C   UNL     1       1.394   0.754  -0.898  0.00  0.00    -0.011 C 
ENDBRANCH   3  16
ENDBRANCH   1   3
BRANCH   1  17
ATOM     17  C   UNL     1       2.781  -0.327   2.380  0.00  0.00    -0.073 C 
BRANCH  17  18
ATOM     18  C   UNL     1       2.856  -1.846   2.548  0.00  0.00    +0.017 C 
BRANCH  18  19
ATOM     19  C   UNL     1       3.352  -2.175   3.932  0.00  0.00    -0.046 A 
ATOM     20  C   UNL     1       4.697  -2.411   4.146  0.00  0.00    +0.004 A 
ATOM     21  C   UNL     1       5.152  -2.712   5.416  0.00  0.00    +0.000 A 
ATOM     22  C   UNL     1       4.263  -2.777   6.472  0.00  0.00    +0.000 A 
ATOM     23  C   UNL     1       2.918  -2.540   6.258  0.00  0.00    +0.003 A 
ATOM     24  C   UNL     1       2.463  -2.235   4.989  0.00  0.00    -0.047 A 
ATOM     25  C   UNL     1       0.998  -1.971   4.756  0.00  0.00    +0.044 C 
ENDBRANCH  18  19
ENDBRANCH  17  18
ENDBRANCH   1  17
BRANCH   1  26
ATOM     26  C   UNL     1       4.040   0.769   0.657  0.00  0.00    -0.037 C 
BRANCH  26  27
ATOM     27  C   UNL     1       5.156  -0.186   0.321  0.00  0.00    +0.001 A 
ATOM     28  C   UNL     1       5.423  -0.484  -0.974  0.00  0.00    +0.017 A 
ATOM     29  C   UNL     1       6.514  -1.415  -1.267  0.00  0.00    -0.001 A 
ATOM     30  C   UNL     1       6.837  -1.761  -2.584  0.00  0.00    +0.010 A 
ATOM     31  C   UNL     1       7.861  -2.633  -2.824  0.00  0.00    +0.001 A 
ATOM     32  C   UNL     1       8.584  -3.180  -1.772  0.00  0.00    +0.005 A 
ATOM     33  C   UNL     1       8.283  -2.854  -0.467  0.00  0.00    -0.026 A 
ATOM     34  C   UNL     1       7.245  -1.968  -0.199  0.00  0.00    +0.052 A 
ATOM     35  N   UNL     1       6.923  -1.624   1.097  0.00  0.00    -0.322 N 
ATOM     36  H   UNL     1       7.428  -2.005   1.832  0.00  0.00    +0.169 HD
ATOM     37  C   UNL     1       5.923  -0.763   1.356  0.00  0.00    +0.251 A 
ATOM     38  O   UNL     1       5.670  -0.478   2.514  0.00  0.00    -0.268 OA
ATOM     39  C   UNL     1       9.076  -3.456   0.664  0.00  0.00    +0.046 C 
ENDBRANCH  26  27
ENDBRANCH   1  26
TORSDOF 10
