REMARK  Name = ZINC19146634
REMARK  8 active torsions:
REMARK  status: ('A' for Active; 'I' for Inactive)
REMARK    1  A    between atoms: C_4  and  C_7
REMARK    2  A    between atoms: C_7  and  C_8
REMARK    3  A    between atoms: C_7  and  C_27
REMARK    4  A    between atoms: C_8  and  N_65
REMARK    5  A    between atoms: C_14  and  C_16
REMARK    6  A    between atoms: C_16  and  C_17
REMARK    7  A    between atoms: N_19  and  C_20
REMARK    8  A    between atoms: C_23  and  O_26
REMARK                            x       y       z     vdW  Elec       q    Type
REMARK                         _______ _______ _______ _____ _____    ______ ____
ROOT
ATOM      1  C   UNL     1       0.886   5.069   6.509  0.00  0.00    -0.059 C 
ATOM      2  C   UNL     1      -0.301   5.502   7.371  0.00  0.00    +0.085 C 
ATOM      3  N   UNL     1      -1.446   4.632   7.119  0.00  0.00    -0.318 N 
ATOM      4  C   UNL     1      -1.547   3.861   6.031  0.00  0.00    +0.200 C 
ATOM      5  O   UNL     1      -2.548   3.192   5.884  0.00  0.00    -0.278 OA
ATOM      6  C   UNL     1      -0.473   3.789   4.983  0.00  0.00    +0.028 C 
ATOM      7  H   UNL     1      -2.166   4.613   7.769  0.00  0.00    +0.149 HD
ATOM      8  N   UNL     1       0.420   4.956   5.112  0.00  0.00    +0.389 N 
ATOM      9  H   UNL     1      -0.099   5.806   4.862  0.00  0.00    -0.081 HD
ENDROOT
BRANCH   8  10
ATOM     10  C   UNL     1       1.577   4.812   4.200  0.00  0.00    -0.065 C 
BRANCH  10  11
ATOM     11  C   UNL     1       2.209   6.189   3.983  0.00  0.00    +0.032 C 
BRANCH  11  15
ATOM     12  C   UNL     1       4.042   7.502   7.611  0.00  0.00    +0.000 A 
ATOM     13  C   UNL     1       4.419   6.300   7.042  0.00  0.00    +0.000 A 
ATOM     14  C   UNL     1       3.826   5.875   5.868  0.00  0.00    +0.004 A 
ATOM     15  C   UNL     1       2.856   6.652   5.263  0.00  0.00    -0.042 A 
ATOM     16  C   UNL     1       2.483   7.857   5.829  0.00  0.00    +0.004 A 
ATOM     17  C   UNL     1       3.073   8.280   7.005  0.00  0.00    +0.000 A 
ENDBRANCH  11  15
BRANCH  11  18
ATOM     18  C   UNL     1       3.251   6.097   2.898  0.00  0.00    -0.042 A 
ATOM     19  C   UNL     1       4.224   5.117   2.955  0.00  0.00    +0.004 A 
ATOM     20  C   UNL     1       5.177   5.030   1.957  0.00  0.00    +0.000 A 
ATOM     21  C   UNL     1       5.163   5.930   0.908  0.00  0.00    +0.000 A 
ATOM     22  C   UNL     1       4.193   6.914   0.854  0.00  0.00    +0.000 A 
ATOM     23  C   UNL     1       3.238   6.998   1.849  0.00  0.00    +0.004 A 
ENDBRANCH  11  18
ENDBRANCH  10  11
ENDBRANCH   8  10
BRANCH   6  24
ATOM     24  C   UNL     1      -1.116   3.807   3.595  0.00  0.00    +0.089 C 
BRANCH  24  25
ATOM     25  C   UNL     1      -1.832   5.117   3.389  0.00  0.00    +0.212 C 
ATOM     26  O   UNL     1      -1.905   5.918   4.298  0.00  0.00    -0.276 OA
ATOM     27  N   UNL     1      -2.391   5.400   2.196  0.00  0.00    -0.312 N 
ATOM     28  H   UNL     1      -2.333   4.760   1.469  0.00  0.00    +0.149 HD
BRANCH  27  29
ATOM     29  C   UNL     1      -3.086   6.674   1.996  0.00  0.00    +0.073 C 
ATOM     30  C   UNL     1      -2.073   7.754   1.612  0.00  0.00    +0.025 C 
ATOM     31  C   UNL     1      -2.799   9.084   1.403  0.00  0.00    +0.033 C 
ATOM     32  C   UNL     1      -3.831   8.932   0.284  0.00  0.00    +0.115 C 
ATOM     33  C   UNL     1      -4.845   7.852   0.668  0.00  0.00    +0.033 C 
ATOM     34  C   UNL     1      -4.118   6.521   0.877  0.00  0.00    +0.025 C 
BRANCH  32  35
ATOM     35  O   UNL     1      -4.509  10.174   0.089  0.00  0.00    -0.392 OA
ATOM     36  H   UNL     1      -5.180  10.151  -0.607  0.00  0.00    +0.210 HD
ENDBRANCH  32  35
ENDBRANCH  27  29
ENDBRANCH  24  25
ENDBRANCH   6  24
TORSDOF 8
