REMARK  Name = ZINC15230668
REMARK  8 active torsions:
REMARK  status: ('A' for Active; 'I' for Inactive)
REMARK    1  A    between atoms: C_1  and  C_2
REMARK    2  A    between atoms: C_5  and  S_8
REMARK    3  A    between atoms: S_8  and  N_11
REMARK    4  A    between atoms: N_11  and  N_12
REMARK    5  A    between atoms: N_19  and  C_27
REMARK    6  A    between atoms: C_20  and  C_21
REMARK    7  A    between atoms: C_34  and  C_35
REMARK    8  A    between atoms: C_34  and  C_36
REMARK                            x       y       z     vdW  Elec       q    Type
REMARK                         _______ _______ _______ _____ _____    ______ ____
ROOT
ATOM      1  N   UNL     1      -1.020  10.571   1.190  0.00  0.00    -0.166 NA
ATOM      2  C   UNL     1      -0.343   9.678   0.524  0.00  0.00    +0.114 C 
ATOM      3  C   UNL     1      -0.642   8.227   0.634  0.00  0.00    +0.213 C 
ATOM      4  O   UNL     1      -1.770   7.782   0.751  0.00  0.00    -0.285 OA
ATOM      5  C   UNL     1       0.568   7.376   0.586  0.00  0.00    +0.072 A 
ATOM      6  C   UNL     1       1.847   7.922   0.300  0.00  0.00    +0.076 A 
ATOM      7  N   UNL     1       2.708   6.949   0.321  0.00  0.00    -0.170 NA
ATOM      8  N   UNL     1       2.046   5.748   0.611  0.00  0.00    -0.231 N 
ATOM      9  C   UNL     1       0.719   6.019   0.779  0.00  0.00    +0.087 A 
ATOM     10  C   UNL     1       2.090   9.386   0.038  0.00  0.00    +0.070 C 
ATOM     11  C   UNL     1       0.790  10.063  -0.404  0.00  0.00    +0.018 C 
ATOM     12  C   UNL     1       0.974  11.582  -0.375  0.00  0.00    +0.018 C 
ATOM     13  C   UNL     1       0.449   9.624  -1.829  0.00  0.00    +0.018 C 
ENDROOT
BRANCH   9  14
ATOM     14  C   UNL     1      -0.347   5.050   1.104  0.00  0.00    +0.019 A 
ATOM     15  C   UNL     1      -0.418   3.820   0.437  0.00  0.00    +0.013 A 
ATOM     16  C   UNL     1      -1.436   2.947   0.779  0.00  0.00    +0.020 A 
ATOM     17  C   UNL     1      -2.341   3.313   1.759  0.00  0.00    +0.111 A 
ATOM     18  N   UNL     1      -2.250   4.478   2.371  0.00  0.00    -0.263 NA
ATOM     19  C   UNL     1      -1.297   5.341   2.085  0.00  0.00    +0.120 A 
ENDBRANCH   9  14
BRANCH   8  20
ATOM     20  C   UNL     1       2.645   4.487   0.717  0.00  0.00    +0.066 A 
ATOM     21  C   UNL     1       3.712   4.152  -0.106  0.00  0.00    +0.028 A 
ATOM     22  C   UNL     1       4.300   2.907   0.001  0.00  0.00    +0.002 A 
ATOM     23  C   UNL     1       3.828   1.994   0.926  0.00  0.00    +0.000 A 
ATOM     24  C   UNL     1       2.761   2.322   1.743  0.00  0.00    +0.002 A 
ATOM     25  C   UNL     1       2.172   3.568   1.645  0.00  0.00    +0.028 A 
ENDBRANCH   8  20
BRANCH   1  26
ATOM     26  N   UNL     1      -1.158  11.869   0.681  0.00  0.00    -0.136 N 
ATOM     27  H   UNL     1      -0.876  12.066  -0.226  0.00  0.00    +0.197 HD
BRANCH  26  28
ATOM     28  S   UNL     1      -1.803  13.065   1.627  0.00  0.00    +0.086 S 
ATOM     29  O   UNL     1      -1.678  14.275   0.892  0.00  0.00    -0.149 OA
ATOM     30  O   UNL     1      -3.056  12.583   2.093  0.00  0.00    -0.149 OA
BRANCH  28  35
ATOM     31  C   UNL     1       1.744  13.616   6.476  0.00  0.00    +0.044 C 
ATOM     32  C   UNL     1       0.858  13.478   5.265  0.00  0.00    -0.050 A 
ATOM     33  C   UNL     1       1.115  14.228   4.132  0.00  0.00    +0.005 A 
ATOM     34  C   UNL     1       0.302  14.102   3.021  0.00  0.00    +0.029 A 
ATOM     35  C   UNL     1      -0.767  13.226   3.043  0.00  0.00    +0.110 A 
ATOM     36  C   UNL     1      -1.026  12.480   4.177  0.00  0.00    +0.029 A 
ATOM     37  C   UNL     1      -0.210  12.602   5.286  0.00  0.00    +0.005 A 
ENDBRANCH  28  35
ENDBRANCH  26  28
ENDBRANCH   1  26
TORSDOF 5
