REMARK  Name = ZINC53994234
REMARK  7 active torsions:
REMARK  status: ('A' for Active; 'I' for Inactive)
REMARK    1  A    between atoms: C_1  and  C_2
REMARK    2  A    between atoms: C_5  and  C_8
REMARK    3  A    between atoms: N_10  and  C_11
REMARK    4  A    between atoms: C_12  and  N_32
REMARK    5  A    between atoms: N_13  and  C_24
REMARK    6  A    between atoms: C_15  and  S_16
REMARK    7  A    between atoms: S_16  and  C_17
REMARK                            x       y       z     vdW  Elec       q    Type
REMARK                         _______ _______ _______ _____ _____    ______ ____
ROOT
ATOM      1  C   UNL     1      -0.116  -6.330   1.103  0.00  0.00    +0.108 A 
ATOM      2  C   UNL     1      -0.498  -7.114   2.152  0.00  0.00    +0.137 A 
ATOM      3  N   UNL     1      -0.383  -8.411   1.758  0.00  0.00    -0.243 N 
ATOM      4  N   UNL     1       0.081  -8.422   0.437  0.00  0.00    -0.161 NA
ATOM      5  C   UNL     1       0.237  -7.180   0.040  0.00  0.00    +0.146 A 
ENDROOT
BRANCH   3   6
ATOM      6  C   UNL     1      -0.690  -9.589   2.574  0.00  0.00    +0.132 C 
ATOM      7  C   UNL     1       0.561 -10.475   2.698  0.00  0.00    +0.051 C 
ATOM      8  C   UNL     1       0.173 -11.858   3.274  0.00  0.00    +0.168 C 
ATOM      9  S   UNL     1      -1.569 -12.052   2.718  0.00  0.00    -0.029 S 
ATOM     10  O   UNL     1      -1.631 -13.082   1.742  0.00  0.00    -0.174 OA
ATOM     11  O   UNL     1      -2.413 -12.120   3.860  0.00  0.00    -0.174 OA
ATOM     12  C   UNL     1      -1.808 -10.425   1.889  0.00  0.00    +0.192 C 
ENDBRANCH   3   6
BRANCH   1  15
ATOM     13  C   UNL     1      -0.896  -4.238   0.252  0.00  0.00    +0.248 C 
ATOM     14  O   UNL     1      -1.571  -4.836  -0.564  0.00  0.00    -0.270 OA
ATOM     15  N   UNL     1      -0.086  -4.919   1.086  0.00  0.00    -0.277 N 
ATOM     16  H   UNL     1       0.518  -4.439   1.675  0.00  0.00    +0.155 HD
BRANCH  13  21
ATOM     17  C   UNL     1      -1.167   1.502   0.553  0.00  0.00    +0.044 C 
ATOM     18  C   UNL     1      -1.095  -0.001   0.474  0.00  0.00    -0.050 A 
ATOM     19  C   UNL     1      -1.864  -0.678  -0.456  0.00  0.00    +0.004 A 
ATOM     20  C   UNL     1      -1.804  -2.055  -0.533  0.00  0.00    +0.013 A 
ATOM     21  C   UNL     1      -0.965  -2.763   0.329  0.00  0.00    +0.037 A 
ATOM     22  C   UNL     1      -0.193  -2.073   1.265  0.00  0.00    +0.013 A 
ATOM     23  C   UNL     1      -0.258  -0.697   1.328  0.00  0.00    +0.004 A 
ENDBRANCH  13  21
ENDBRANCH   1  15
BRANCH   2  24
ATOM     24  N   UNL     1      -0.929  -6.666   3.402  0.00  0.00    -0.342 N 
ATOM     25  H   UNL     1      -0.977  -5.715   3.586  0.00  0.00    +0.144 HD
ATOM     26  H   UNL     1      -1.180  -7.306   4.086  0.00  0.00    +0.144 HD
ENDBRANCH   2  24
BRANCH   5  27
ATOM     27  S   UNL     1       0.795  -6.667  -1.550  0.00  0.00    -0.066 S 
BRANCH  27  28
ATOM     28  C   UNL     1       0.835  -8.157  -2.489  0.00  0.00    +0.014 A 
ATOM     29  C   UNL     1      -0.322  -8.625  -3.102  0.00  0.00    +0.016 A 
ATOM     30  C   UNL     1      -0.288  -9.793  -3.838  0.00  0.00    +0.021 A 
ATOM     31  C   UNL     1       0.897 -10.498  -3.965  0.00  0.00    +0.041 A 
ATOM     32  C   UNL     1       2.050 -10.035  -3.356  0.00  0.00    +0.021 A 
ATOM     33  C   UNL     1       2.023  -8.865  -2.623  0.00  0.00    +0.016 A 
ATOM     34 CL   UNL     1       0.935 -11.966  -4.891  0.00  0.00    -0.084 Cl
ENDBRANCH  27  28
ENDBRANCH   5  27
TORSDOF 6
