REMARK  Name = ZINC09235727
REMARK  5 active torsions:
REMARK  status: ('A' for Active; 'I' for Inactive)
REMARK    1  A    between atoms: C_1  and  C_2
REMARK    2  A    between atoms: C_2  and  O_3
REMARK    3  A    between atoms: O_3  and  C_4
REMARK    4  A    between atoms: C_9  and  C_10
REMARK    5  A    between atoms: C_10  and  C_12
REMARK                            x       y       z     vdW  Elec       q    Type
REMARK                         _______ _______ _______ _____ _____    ______ ____
ROOT
ATOM      1  C   UNL     1       1.349   6.721  -0.947  0.00  0.00    +0.066 C 
ATOM      2  C   UNL     1       1.508   6.690   0.579  0.00  0.00    -0.055 C 
ATOM      3  C   UNL     1       1.555   8.117   1.144  0.00  0.00    -0.016 C 
ATOM      4  C   UNL     1       0.485   8.127   2.262  0.00  0.00    -0.020 C 
ATOM      5  C   UNL     1      -0.529   7.066   1.757  0.00  0.00    -0.076 C 
ATOM      6  C   UNL     1      -0.362   5.306   0.068  0.00  0.00    +0.060 C 
ATOM      7  C   UNL     1       0.065   5.945  -1.250  0.00  0.00    +0.085 C 
ATOM      8  C   UNL     1      -0.977   6.899  -1.782  0.00  0.00    -0.011 A 
ATOM      9  C   UNL     1      -1.497   8.087  -1.320  0.00  0.00    +0.006 A 
ATOM     10  C   UNL     1      -2.481   8.742  -2.040  0.00  0.00    +0.000 A 
ATOM     11  C   UNL     1      -2.927   8.211  -3.237  0.00  0.00    +0.002 A 
ATOM     12  C   UNL     1      -2.382   7.041  -3.722  0.00  0.00    +0.023 A 
ATOM     13  C   UNL     1      -1.385   6.382  -3.007  0.00  0.00    +0.038 A 
ATOM     14  N   UNL     1      -0.671   5.220  -3.298  0.00  0.00    -0.285 N 
ATOM     15  C   UNL     1       0.217   4.913  -2.329  0.00  0.00    +0.228 C 
ATOM     16  O   UNL     1       0.953   3.948  -2.358  0.00  0.00    -0.275 OA
ATOM     17  C   UNL     1       0.027   3.845   0.119  0.00  0.00    -0.027 A 
ATOM     18  C   UNL     1       1.240   3.194   0.112  0.00  0.00    +0.004 A 
ATOM     19  C   UNL     1       1.284   1.811   0.163  0.00  0.00    +0.000 A 
ATOM     20  C   UNL     1       0.107   1.087   0.212  0.00  0.00    +0.002 A 
ATOM     21  C   UNL     1      -1.110   1.736   0.230  0.00  0.00    +0.023 A 
ATOM     22  C   UNL     1      -1.161   3.128   0.192  0.00  0.00    +0.036 A 
ATOM     23  N   UNL     1      -2.246   4.003   0.239  0.00  0.00    -0.286 N 
ATOM     24  C   UNL     1      -1.858   5.295   0.220  0.00  0.00    +0.212 C 
ATOM     25  O   UNL     1      -2.607   6.245   0.304  0.00  0.00    -0.277 OA
ATOM     26  H   UNL     1      -0.795   4.691  -4.102  0.00  0.00    +0.155 HD
ATOM     27  H   UNL     1      -3.173   3.720   0.281  0.00  0.00    +0.155 HD
ATOM     28  N   UNL     1       0.342   6.033   1.147  0.00  0.00    +0.395 N 
ATOM     29  H   UNL     1       0.635   5.365   1.871  0.00  0.00    -0.079 HD
ENDROOT
BRANCH   1  30
ATOM     30  C   UNL     1       2.556   6.138  -1.622  0.00  0.00    +0.169 C 
ATOM     31  O   UNL     1       3.244   5.326  -1.040  0.00  0.00    -0.292 OA
BRANCH  30  37
ATOM     32  C   UNL     1       4.032   6.006  -3.624  0.00  0.00    +0.131 A 
ATOM     33  C   UNL     1       4.350   6.403  -4.914  0.00  0.00    +0.046 A 
ATOM     34  C   UNL     1       3.561   7.327  -5.569  0.00  0.00    +0.004 A 
ATOM     35  C   UNL     1       2.446   7.866  -4.946  0.00  0.00    +0.001 A 
ATOM     36  C   UNL     1       2.110   7.481  -3.667  0.00  0.00    +0.015 A 
ATOM     37  C   UNL     1       2.904   6.549  -2.988  0.00  0.00    +0.059 A 
BRANCH  32  38
ATOM     38  O   UNL     1       4.806   5.098  -2.980  0.00  0.00    -0.492 OA
BRANCH  38  40
ATOM     39  C   UNL     1       6.684   3.585  -2.809  0.00  0.00    +0.048 C 
ATOM     40  C   UNL     1       5.938   4.589  -3.690  0.00  0.00    +0.226 C 
ENDBRANCH  38  40
ENDBRANCH  32  38
ENDBRANCH  30  37
ENDBRANCH   1  30
TORSDOF 4
