REMARK  Name = ZINC45573800
REMARK  7 active torsions:
REMARK  status: ('A' for Active; 'I' for Inactive)
REMARK    1  A    between atoms: C_1  and  C_2
REMARK    2  A    between atoms: C_4  and  C_8
REMARK    3  A    between atoms: C_5  and  C_7
REMARK    4  A    between atoms: N_10  and  N_11
REMARK    5  A    between atoms: C_12  and  C_14
REMARK    6  A    between atoms: C_21  and  C_25
REMARK    7  A    between atoms: C_22  and  C_24
REMARK                            x       y       z     vdW  Elec       q    Type
REMARK                         _______ _______ _______ _____ _____    ______ ____
ROOT
ATOM      1  N   UNL     1      -3.464  -4.540  -0.006  0.00  0.00    -0.230 N 
ATOM      2  C   UNL     1      -4.811  -4.480   0.001  0.00  0.00    +0.260 C 
ATOM      3  O   UNL     1      -5.371  -3.401   0.009  0.00  0.00    -0.269 OA
ATOM      4  H   UNL     1      -3.017  -5.400  -0.012  0.00  0.00    +0.173 HD
ENDROOT
BRANCH   2   5
ATOM      5  C   UNL     1      -5.606  -5.726  -0.002  0.00  0.00    +0.040 A 
ATOM      6  C   UNL     1      -4.953  -6.971  -0.005  0.00  0.00    +0.015 A 
ATOM      7  C   UNL     1      -5.661  -8.129  -0.008  0.00  0.00    +0.030 A 
ATOM      8  C   UNL     1      -7.068  -8.095  -0.006  0.00  0.00    +0.090 A 
ATOM      9  C   UNL     1      -7.739  -6.846  -0.002  0.00  0.00    +0.090 A 
ATOM     10  C   UNL     1      -6.989  -5.659   0.005  0.00  0.00    +0.043 A 
ATOM     11  N   UNL     1      -9.077  -6.814  -0.000  0.00  0.00    -0.249 NA
ATOM     12  C   UNL     1      -9.755  -7.939  -0.002  0.00  0.00    +0.060 A 
ATOM     13  C   UNL     1      -9.094  -9.170  -0.006  0.00  0.00    +0.060 A 
ATOM     14  N   UNL     1      -7.781  -9.226  -0.008  0.00  0.00    -0.249 NA
ATOM     15  C   UNL     1      -9.895 -10.446  -0.007  0.00  0.00    +0.067 C 
ATOM     16  C   UNL     1     -11.261  -7.901   0.001  0.00  0.00    +0.067 C 
ENDBRANCH   2   5
BRANCH   1  19
ATOM     17  C   UNL     1      -1.364  -3.418  -0.010  0.00  0.00    +0.263 C 
ATOM     18  O   UNL     1      -0.804  -4.497  -0.018  0.00  0.00    -0.269 OA
ATOM     19  N   UNL     1      -2.711  -3.358  -0.003  0.00  0.00    -0.230 N 
ATOM     20  H   UNL     1      -3.158  -2.498   0.003  0.00  0.00    +0.173 HD
BRANCH  17  24
ATOM     21  C   UNL     1      -0.018   1.503   0.010  0.00  0.00    +0.086 C 
ATOM     22  C   UNL     1       0.002  -0.004   0.002  0.00  0.00    +0.103 A 
ATOM     23  C   UNL     1      -1.081  -0.797   0.003  0.00  0.00    +0.057 A 
ATOM     24  C   UNL     1      -0.571  -2.176  -0.007  0.00  0.00    +0.079 A 
ATOM     25  C   UNL     1       0.788  -2.066  -0.013  0.00  0.00    +0.114 A 
ATOM     26  O   UNL     1       1.106  -0.767  -0.013  0.00  0.00    -0.464 OA
ATOM     27  C   UNL     1       1.766  -3.212  -0.024  0.00  0.00    +0.087 C 
ENDBRANCH  17  24
ENDBRANCH   1  19
TORSDOF 3
