REMARK  Name = ZINC15036925
REMARK  7 active torsions:
REMARK  status: ('A' for Active; 'I' for Inactive)
REMARK    1  A    between atoms: CB_1  and  CA_2
REMARK    2  A    between atoms: CA_2  and  C_4
REMARK    3  A    between atoms: CA_2  and  N_7
REMARK    4  A    between atoms: C_8  and  C_10
REMARK    5  A    between atoms: C_10  and  N_11
REMARK    6  A    between atoms: C_15  and  C_16
REMARK    7  A    between atoms: C_17  and  C_18
REMARK                            x       y       z     vdW  Elec       q    Type
REMARK                         _______ _______ _______ _____ _____    ______ ____
ROOT
ATOM      1  N   UNK A   0      -0.240  -1.150  -4.711  0.00  0.00    -0.246 N 
ATOM      2  C   UNK A   0      -0.924  -2.262  -4.921  0.00  0.00    +0.259 C 
ATOM      3  O   UNK A   0      -0.784  -3.242  -4.212  0.00  0.00    -0.269 OA
ATOM      4  C   UNK A   0      -1.865  -2.256  -6.056  0.00  0.00    +0.077 C 
ATOM      5  C   UNK A   0      -2.692  -3.243  -6.506  0.00  0.00    +0.020 C 
ATOM      6  S   UNK A   0      -1.625  -0.598  -6.681  0.00  0.00    -0.061 S 
ATOM      7  C   UNK A   0      -0.402  -0.065  -5.495  0.00  0.00    +0.121 C 
ATOM      8  S   UNK A   0       0.379   1.455  -5.382  0.00  0.00    -0.027 S 
ENDROOT
BRANCH   5   9
ATOM      9  C   UNK A   0      -3.518  -3.016  -7.625  0.00  0.00    +0.002 C 
ATOM     10  C   UNK A   0      -4.339  -3.996  -8.071  0.00  0.00    +0.008 C 
BRANCH  10  11
ATOM     11  C   UNK A   0      -5.201  -3.758  -9.238  0.00  0.00    -0.025 A 
ATOM     12  C   UNK A   0      -5.172  -2.523  -9.894  0.00  0.00    +0.008 A 
ATOM     13  C   UNK A   0      -5.983  -2.308 -10.988  0.00  0.00    +0.001 A 
ATOM     14  C   UNK A   0      -6.824  -3.311 -11.438  0.00  0.00    +0.000 A 
ATOM     15  C   UNK A   0      -6.859  -4.536 -10.794  0.00  0.00    +0.001 A 
ATOM     16  C   UNK A   0      -6.051  -4.769  -9.702  0.00  0.00    +0.008 A 
ENDBRANCH  10  11
ENDBRANCH   5   9
BRANCH   1  17
ATOM     17  C   UNK A   0       0.712  -1.094  -3.598  0.00  0.00    +0.210 C 
BRANCH  17  19
ATOM     18  N   ALA A   1       0.688  -0.476  -1.203  0.00  0.00    -0.301 N 
ATOM     19  C   UNK A   0       0.006  -0.608  -2.358  0.00  0.00    +0.231 C 
ATOM     20  O   UNK A   0      -1.175  -0.336  -2.400  0.00  0.00    -0.274 OA
ATOM     21  H   ALA A   1       1.632  -0.695  -1.170  0.00  0.00    +0.150 HD
BRANCH  18  23
ATOM     22  CB  ALA A   1      -0.019   1.526   0.010  0.00  0.00    +0.040 C 
ATOM     23  CA  ALA A   1       0.002  -0.004   0.002  0.00  0.00    +0.183 C 
BRANCH  23  24
ATOM     24  C   ALA A   1       0.731  -0.503   1.223  0.00  0.00    +0.376 C 
ATOM     25  O   ALA A   1       0.228  -0.379   2.326  0.00  0.00    -0.244 OA
ATOM     26  OXT ALA A   1       1.824  -1.032   1.107  0.00  0.00    -0.244 OA
ENDBRANCH  23  24
ENDBRANCH  18  23
ENDBRANCH  17  19
ENDBRANCH   1  17
TORSDOF 6
