REMARK  Name = ZINC20479004
REMARK  10 active torsions:
REMARK  status: ('A' for Active; 'I' for Inactive)
REMARK    1  A    between atoms: C_1  and  C_2
REMARK    2  A    between atoms: C_3  and  C_31
REMARK    3  A    between atoms: N_14  and  C_17
REMARK    4  A    between atoms: C_17  and  C_18
REMARK    5  A    between atoms: C_20  and  O_28
REMARK    6  A    between atoms: C_21  and  O_26
REMARK    7  A    between atoms: C_22  and  O_24
REMARK    8  A    between atoms: O_24  and  C_25
REMARK    9  A    between atoms: O_26  and  C_27
REMARK   10  A    between atoms: O_28  and  C_29
REMARK                            x       y       z     vdW  Elec       q    Type
REMARK                         _______ _______ _______ _____ _____    ______ ____
ROOT
ATOM      1  C   UNL     1      -0.757   2.505  -6.131  0.00  0.00    +0.045 C 
ATOM      2  C   UNL     1      -0.077   2.020  -4.877  0.00  0.00    -0.030 A 
ATOM      3  C   UNL     1       1.200   1.553  -4.904  0.00  0.00    +0.037 A 
ATOM      4  C   UNL     1       1.804   1.107  -3.713  0.00  0.00    +0.340 A 
ATOM      5  O   UNL     1       2.948   0.691  -3.760  0.00  0.00    -0.245 OA
ATOM      6  O   UNL     1       1.176   1.121  -2.533  0.00  0.00    -0.422 OA
ATOM      7  C   UNL     1      -0.090   1.573  -2.443  0.00  0.00    +0.147 A 
ATOM      8  C   UNL     1      -0.767   2.036  -3.585  0.00  0.00    +0.023 A 
ATOM      9  C   UNL     1      -2.082   2.503  -3.480  0.00  0.00    +0.035 A 
ATOM     10  C   UNL     1      -2.705   2.508  -2.266  0.00  0.00    +0.084 A 
ATOM     11  C   UNL     1      -2.040   2.050  -1.126  0.00  0.00    +0.149 A 
ATOM     12  C   UNL     1      -0.741   1.585  -1.214  0.00  0.00    +0.053 A 
ATOM     13  C   UNL     1      -0.013   1.086   0.008  0.00  0.00    +0.130 C 
ATOM     14  N   UNL     1      -0.700   1.559   1.218  0.00  0.00    -0.262 NA
ATOM     15  C   UNL     1      -2.142   1.281   1.124  0.00  0.00    +0.319 C 
ATOM     16  O   UNL     1      -2.690   2.072   0.068  0.00  0.00    -0.475 OA
ATOM     17 CL   UNL     1      -4.336   3.088  -2.137  0.00  0.00    -0.080 Cl
ATOM     18  C   UNL     1       1.963   1.512  -6.203  0.00  0.00    +0.051 C 
ENDROOT
BRANCH  14  19
ATOM     19  C   UNL     1      -0.123   0.949   2.423  0.00  0.00    +0.123 C 
BRANCH  19  20
ATOM     20  C   UNL     1      -0.677   1.633   3.647  0.00  0.00    -0.026 A 
ATOM     21  C   UNL     1      -0.025   2.730   4.178  0.00  0.00    +0.054 A 
ATOM     22  C   UNL     1      -0.535   3.365   5.300  0.00  0.00    +0.165 A 
ATOM     23  C   UNL     1      -1.696   2.891   5.898  0.00  0.00    +0.204 A 
ATOM     24  C   UNL     1      -2.345   1.784   5.364  0.00  0.00    +0.165 A 
ATOM     25  C   UNL     1      -1.833   1.158   4.238  0.00  0.00    +0.054 A 
BRANCH  24  26
ATOM     26  O   UNL     1      -3.482   1.315   5.946  0.00  0.00    -0.491 OA
ATOM     27  C   UNL     1      -4.096   0.174   5.344  0.00  0.00    +0.277 C 
ENDBRANCH  24  26
BRANCH  23  28
ATOM     28  O   UNL     1      -2.196   3.508   7.003  0.00  0.00    -0.488 OA
ATOM     29  C   UNL     1      -1.740   3.037   8.272  0.00  0.00    +0.277 C 
ENDBRANCH  23  28
BRANCH  22  30
ATOM     30  O   UNL     1       0.104   4.448   5.818  0.00  0.00    -0.491 OA
ATOM     31  C   UNL     1       1.292   4.881   5.152  0.00  0.00    +0.277 C 
ENDBRANCH  22  30
ENDBRANCH  19  20
ENDBRANCH  14  19
TORSDOF 5
