REMARK  Name = ZINC36570371
REMARK  14 active torsions:
REMARK  status: ('A' for Active; 'I' for Inactive)
REMARK    1  A    between atoms: C_1  and  C_2
REMARK    2  A    between atoms: C_2  and  C_3
REMARK    3  A    between atoms: C_3  and  N_4
REMARK    4  A    between atoms: N_4  and  C_5
REMARK    5  A    between atoms: C_5  and  C_7
REMARK    6  A    between atoms: C_5  and  C_15
REMARK    7  A    between atoms: C_11  and  O_13
REMARK    8  A    between atoms: O_13  and  C_14
REMARK    9  A    between atoms: N_17  and  C_18
REMARK   10  A    between atoms: C_18  and  S_19
REMARK   11  A    between atoms: S_19  and  C_22
REMARK   12  A    between atoms: C_25  and  C_28
REMARK   13  A    between atoms: C_29  and  C_31
REMARK   14  A    between atoms: C_32  and  C_33
REMARK                            x       y       z     vdW  Elec       q    Type
REMARK                         _______ _______ _______ _____ _____    ______ ____
ROOT
ATOM      1  C   UNL     1      -1.582  -2.717   1.153  0.00  0.00    +0.193 C 
ENDROOT
BRANCH   1   2
ATOM      2  C   UNL     1      -2.923  -2.510   1.808  0.00  0.00    -0.015 A 
ATOM      3  C   UNL     1      -3.447  -1.236   1.923  0.00  0.00    +0.006 A 
ATOM      4  C   UNL     1      -4.678  -1.043   2.523  0.00  0.00    +0.004 A 
ATOM      5  C   UNL     1      -5.387  -2.124   3.010  0.00  0.00    +0.045 A 
ATOM      6  C   UNL     1      -4.864  -3.404   2.896  0.00  0.00    +0.120 A 
ATOM      7  C   UNL     1      -3.631  -3.595   2.288  0.00  0.00    +0.051 A 
BRANCH   6   8
ATOM      8  O   UNL     1      -5.559  -4.469   3.373  0.00  0.00    -0.495 OA
ATOM      9  C   UNL     1      -6.824  -4.198   3.982  0.00  0.00    +0.277 C 
ENDBRANCH   6   8
ENDBRANCH   1   2
BRANCH   1  10
ATOM     10  C   UNL     1      -0.492  -2.255   2.086  0.00  0.00    +0.239 C 
ATOM     11  O   UNL     1       0.241  -1.345   1.758  0.00  0.00    -0.273 OA
ATOM     12  N   UNL     1      -0.331  -2.852   3.283  0.00  0.00    -0.294 N 
ATOM     13  H   UNL     1      -0.917  -3.579   3.545  0.00  0.00    +0.150 HD
BRANCH  12  14
ATOM     14  C   UNL     1       0.729  -2.403   4.189  0.00  0.00    +0.278 C 
BRANCH  14  15
ATOM     15  S   UNL     1       0.049  -1.201   5.366  0.00  0.00    +0.013 S 
ATOM     16  O   UNL     1       1.051  -0.803   6.292  0.00  0.00    -0.168 OA
ATOM     17  O   UNL     1      -0.729  -0.231   4.679  0.00  0.00    -0.168 OA
BRANCH  15  18
ATOM     18  C   UNL     1      -1.113  -2.114   6.325  0.00  0.00    +0.090 A 
ATOM     19  C   UNL     1      -2.431  -2.199   5.916  0.00  0.00    +0.027 A 
ATOM     20  C   UNL     1      -3.343  -2.915   6.669  0.00  0.00    +0.005 A 
ATOM     21  C   UNL     1      -2.937  -3.546   7.830  0.00  0.00    -0.050 A 
ATOM     22  C   UNL     1      -1.619  -3.462   8.238  0.00  0.00    +0.005 A 
ATOM     23  C   UNL     1      -0.706  -2.749   7.483  0.00  0.00    +0.027 A 
ATOM     24  C   UNL     1      -3.932  -4.326   8.650  0.00  0.00    +0.044 C 
ENDBRANCH  15  18
ENDBRANCH  14  15
ENDBRANCH  12  14
ENDBRANCH   1  10
BRANCH   1  25
ATOM     25  N   UNL     1      -1.521  -1.944  -0.090  0.00  0.00    -0.275 N 
ATOM     26  C   UNL     1      -2.036  -2.454  -1.226  0.00  0.00    +0.292 C 
ATOM     27  O   UNL     1      -2.551  -3.557  -1.219  0.00  0.00    -0.260 OA
BRANCH  26  28
ATOM     28  C   UNL     1      -1.976  -1.699  -2.441  0.00  0.00    -0.003 C 
ATOM     29  C   UNL     1      -1.928  -1.080  -3.438  0.00  0.00    -0.057 C 
BRANCH  29  30
ATOM     30  C   UNL     1      -1.869  -0.324  -4.653  0.00  0.00    +0.025 A 
ATOM     31  C   UNL     1      -1.272   0.940  -4.666  0.00  0.00    +0.017 A 
ATOM     32  C   UNL     1      -1.219   1.661  -5.840  0.00  0.00    +0.001 A 
ATOM     33  C   UNL     1      -1.753   1.136  -7.003  0.00  0.00    +0.000 A 
ATOM     34  C   UNL     1      -2.346  -0.115  -6.999  0.00  0.00    +0.001 A 
ATOM     35  C   UNL     1      -2.401  -0.850  -5.834  0.00  0.00    +0.017 A 
ENDBRANCH  29  30
ENDBRANCH  26  28
BRANCH  25  36
ATOM     36  C   UNL     1      -0.901  -0.617  -0.098  0.00  0.00    +0.109 C 
BRANCH  36  38
ATOM     37  C   UNL     1       1.245   0.616  -0.437  0.00  0.00    +0.005 C 
ATOM     38  C   UNL     1       0.536  -0.728  -0.610  0.00  0.00    +0.016 C 
ENDBRANCH  36  38
ENDBRANCH  25  36
ENDBRANCH   1  25
TORSDOF 11
