REMARK  Name = ZINC36931470
REMARK  7 active torsions:
REMARK  status: ('A' for Active; 'I' for Inactive)
REMARK    1  A    between atoms: C_1  and  C_2
REMARK    2  A    between atoms: C_2  and  C_3
REMARK    3  A    between atoms: C_2  and  C_4
REMARK    4  A    between atoms: C_7  and  C_10
REMARK    5  A    between atoms: C_10  and  C_12
REMARK    6  A    between atoms: C_10  and  C_14
REMARK    7  A    between atoms: C_14  and  C_16
REMARK                            x       y       z     vdW  Elec       q    Type
REMARK                         _______ _______ _______ _____ _____    ______ ____
ROOT
ATOM      1  C   UNL     1      -1.412  -0.526   0.013  0.00  0.00    -0.045 A 
ATOM      2  C   UNL     1      -2.259  -0.204   1.056  0.00  0.00    +0.004 A 
ATOM      3  C   UNL     1      -3.556  -0.683   1.066  0.00  0.00    +0.005 A 
ATOM      4  C   UNL     1      -4.006  -1.482   0.032  0.00  0.00    -0.023 A 
ATOM      5  C   UNL     1      -3.159  -1.803  -1.012  0.00  0.00    +0.005 A 
ATOM      6  C   UNL     1      -1.863  -1.321  -1.024  0.00  0.00    +0.004 A 
ENDROOT
BRANCH   1   8
ATOM      7  C   UNL     1      -0.019   1.526   0.010  0.00  0.00    +0.012 C 
ATOM      8  C   UNL     1       0.002  -0.004   0.002  0.00  0.00    +0.013 C 
ATOM      9  C   UNL     1       0.742  -0.511   1.242  0.00  0.00    +0.012 C 
ENDBRANCH   1   8
BRANCH   4  10
ATOM     10  C   UNL     1      -5.419  -2.005   0.043  0.00  0.00    +0.187 C 
BRANCH  10  11
ATOM     11  C   UNL     1      -5.398  -3.511   0.041  0.00  0.00    +0.151 C 
ATOM     12  O   UNL     1      -4.445  -4.101  -0.410  0.00  0.00    -0.296 OA
ATOM     13  C   UNL     1      -6.565  -4.283   0.601  0.00  0.00    +0.087 C 
ENDBRANCH  10  11
BRANCH  10  14
ATOM     14  C   UNL     1      -6.130  -1.522  -1.152  0.00  0.00    +0.078 C 
ATOM     15  N   UNL     1      -6.679  -1.150  -2.074  0.00  0.00    -0.195 NA
ENDBRANCH  10  14
ENDBRANCH   4  10
TORSDOF 4
