REMARK  Name = ZINC06438837
REMARK  4 active torsions:
REMARK  status: ('A' for Active; 'I' for Inactive)
REMARK    1  A    between atoms: C_1  and  C_2
REMARK    2  A    between atoms: C_7  and  N_8
REMARK    3  A    between atoms: N_8  and  C_9
REMARK    4  A    between atoms: C_14  and  C_16
REMARK                            x       y       z     vdW  Elec       q    Type
REMARK                         _______ _______ _______ _____ _____    ______ ____
ROOT
ATOM      1  C   UNL     1       0.046  -0.704   3.589  0.00  0.00    +0.107 C 
ATOM      2  C   UNL     1       0.049  -0.023   4.789  0.00  0.00    +0.165 C 
ATOM      3  C   UNL     1       0.075  -0.600   6.138  0.00  0.00    +0.366 C 
ATOM      4  O   UNL     1       0.100  -1.780   6.436  0.00  0.00    -0.243 OA
ATOM      5  O   UNL     1       0.067   0.457   6.978  0.00  0.00    -0.402 OA
ATOM      6  C   UNL     1       0.038   1.589   6.248  0.00  0.00    +0.232 C 
ATOM      7  N   UNL     1       0.033   1.332   4.971  0.00  0.00    -0.204 NA
ENDROOT
BRANCH   6   8
ATOM      8  C   UNL     1       0.020   2.950   6.824  0.00  0.00    +0.037 A 
ATOM      9  C   UNL     1      -0.016   4.065   5.985  0.00  0.00    +0.013 A 
ATOM     10  C   UNL     1      -0.033   5.333   6.529  0.00  0.00    +0.001 A 
ATOM     11  C   UNL     1      -0.014   5.500   7.902  0.00  0.00    +0.000 A 
ATOM     12  C   UNL     1       0.022   4.399   8.739  0.00  0.00    +0.001 A 
ATOM     13  C   UNL     1       0.034   3.125   8.209  0.00  0.00    +0.013 A 
ENDBRANCH   6   8
BRANCH   1  14
ATOM     14  N   UNL     1       0.026  -0.016   2.416  0.00  0.00    -0.318 N 
ATOM     15  H   UNL     1       0.013   0.954   2.423  0.00  0.00    +0.152 HD
BRANCH  14  22
ATOM     16  C   UNL     1      -0.018   1.503   0.010  0.00  0.00    +0.045 C 
ATOM     17  C   UNL     1       0.002  -0.004   0.002  0.00  0.00    -0.029 A 
ATOM     18  C   UNL     1       0.006  -0.689  -1.198  0.00  0.00    +0.006 A 
ATOM     19  C   UNL     1       0.024  -2.071  -1.207  0.00  0.00    +0.020 A 
ATOM     20  C   UNL     1       0.039  -2.774  -0.014  0.00  0.00    +0.043 A 
ATOM     21  C   UNL     1       0.035  -2.095   1.189  0.00  0.00    +0.043 A 
ATOM     22  C   UNL     1       0.023  -0.706   1.201  0.00  0.00    +0.035 A 
ATOM     23 CL   UNL     1       0.062  -4.510  -0.031  0.00  0.00    -0.083 Cl
ENDBRANCH  14  22
ENDBRANCH   1  14
TORSDOF 3
