REMARK  Name = ZINC32913222
REMARK  13 active torsions:
REMARK  status: ('A' for Active; 'I' for Inactive)
REMARK    1  A    between atoms: C_1  and  C_2
REMARK    2  A    between atoms: C_2  and  C_4
REMARK    3  A    between atoms: C_2  and  N_23
REMARK    4  A    between atoms: N_6  and  C_7
REMARK    5  A    between atoms: C_11  and  C_13
REMARK    6  A    between atoms: C_13  and  N_14
REMARK    7  A    between atoms: N_14  and  C_15
REMARK    8  A    between atoms: C_16  and  O_18
REMARK    9  A    between atoms: O_18  and  C_19
REMARK   10  A    between atoms: C_19  and  C_20
REMARK   11  A    between atoms: C_19  and  C_21
REMARK   12  A    between atoms: C_19  and  C_22
REMARK   13  A    between atoms: C_24  and  C_26
REMARK                            x       y       z     vdW  Elec       q    Type
REMARK                         _______ _______ _______ _____ _____    ______ ____
ROOT
ATOM      1  C   UNL     1       4.001  -4.987   0.024  0.00  0.00    +0.237 C 
ATOM      2  O   UNL     1       5.042  -4.406   0.246  0.00  0.00    -0.273 OA
ATOM      3  N   UNL     1       3.993  -6.073  -0.774  0.00  0.00    -0.284 N 
ATOM      4  H   UNL     1       3.066  -6.651  -0.907  0.00  0.00    +0.155 HD
ENDROOT
BRANCH   3   5
ATOM      5  C   UNL     1       5.162  -6.465  -1.435  0.00  0.00    +0.034 A 
ATOM      6  C   UNL     1       6.073  -5.508  -1.864  0.00  0.00    +0.023 A 
ATOM      7  C   UNL     1       7.227  -5.898  -2.515  0.00  0.00    +0.002 A 
ATOM      8  C   UNL     1       7.475  -7.240  -2.740  0.00  0.00    +0.005 A 
ATOM      9  C   UNL     1       6.571  -8.195  -2.314  0.00  0.00    -0.028 A 
ATOM     10  C   UNL     1       5.418  -7.811  -1.657  0.00  0.00    +0.028 A 
BRANCH   9  11
ATOM     11  C   UNL     1       6.846  -9.656  -2.561  0.00  0.00    +0.146 C 
BRANCH  11  12
ATOM     12  N   UNL     1       7.592 -10.210  -1.429  0.00  0.00    -0.266 N 
ATOM     13  C   UNL     1       6.873 -10.790  -0.291  0.00  0.00    +0.136 C 
ATOM     14  C   UNL     1       8.940 -10.187  -1.433  0.00  0.00    +0.403 C 
ATOM     15  O   UNL     1       9.536  -9.706  -2.377  0.00  0.00    -0.226 OA
BRANCH  14  16
ATOM     16  O   UNL     1       9.625 -10.697  -0.393  0.00  0.00    -0.445 OA
BRANCH  16  17
ATOM     17  C   UNL     1      11.074 -10.638  -0.465  0.00  0.00    +0.107 C 
ATOM     18  C   UNL     1      11.520  -9.179  -0.577  0.00  0.00    +0.055 C 
ATOM     19  C   UNL     1      11.674 -11.260   0.797  0.00  0.00    +0.055 C 
ATOM     20  C   UNL     1      11.555 -11.414  -1.694  0.00  0.00    +0.055 C 
ENDBRANCH  16  17
ENDBRANCH  14  16
ENDBRANCH  11  12
ENDBRANCH   9  11
ENDBRANCH   3   5
BRANCH   1  22
ATOM     21  C   UNL     1       2.119  -5.596   1.519  0.00  0.00    +0.038 C 
ATOM     22  C   UNL     1       2.717  -4.495   0.640  0.00  0.00    +0.156 C 
BRANCH  22  23
ATOM     23  N   UNL     1       2.990  -3.311   1.459  0.00  0.00    -0.300 N 
ATOM     24  C   UNL     1       2.012  -2.414   1.693  0.00  0.00    +0.245 C 
ATOM     25  O   UNL     1       0.904  -2.587   1.226  0.00  0.00    -0.270 OA
ATOM     26  H   UNL     1       3.993  -3.155   1.882  0.00  0.00    +0.150 HD
BRANCH  24  27
ATOM     27  C   UNL     1       2.288  -1.219   2.519  0.00  0.00    +0.037 A 
ATOM     28  C   UNL     1       1.278  -0.287   2.763  0.00  0.00    +0.014 A 
ATOM     29  C   UNL     1       1.541   0.825   3.534  0.00  0.00    +0.016 A 
ATOM     30  C   UNL     1       2.805   1.020   4.065  0.00  0.00    +0.018 A 
ATOM     31  C   UNL     1       3.812   0.099   3.826  0.00  0.00    +0.016 A 
ATOM     32  C   UNL     1       3.561  -1.018   3.057  0.00  0.00    +0.014 A 
ATOM     33 BR   UNL     1       3.158   2.549   5.120  0.00  0.00    -0.050 Br
ENDBRANCH  24  27
ENDBRANCH  22  23
ENDBRANCH   1  22
TORSDOF 8
