REMARK  Name = ZINC21115891
REMARK  6 active torsions:
REMARK  status: ('A' for Active; 'I' for Inactive)
REMARK    1  A    between atoms: C_1  and  C_2
REMARK    2  A    between atoms: C_4  and  C_27
REMARK    3  A    between atoms: C_5  and  N_9
REMARK    4  A    between atoms: C_6  and  C_8
REMARK    5  A    between atoms: C_10  and  C_12
REMARK    6  A    between atoms: C_13  and  C_26
REMARK                            x       y       z     vdW  Elec       q    Type
REMARK                         _______ _______ _______ _____ _____    ______ ____
ROOT
ATOM      1  C   UNL     1      -0.857   5.819   1.126  0.00  0.00    +0.080 A 
ATOM      2  C   UNL     1      -1.456   4.720   0.590  0.00  0.00    -0.019 A 
ATOM      3  C   UNL     1      -1.970   3.726   1.433  0.00  0.00    +0.051 A 
ATOM      4  C   UNL     1      -2.636   2.510   1.094  0.00  0.00    +0.133 A 
ATOM      5  N   UNL     1      -3.049   1.710   2.062  0.00  0.00    -0.220 NA
ATOM      6  C   UNL     1      -2.873   1.998   3.339  0.00  0.00    +0.224 A 
ATOM      7  N   UNL     1      -2.270   3.108   3.718  0.00  0.00    -0.228 NA
ATOM      8  C   UNL     1      -1.825   3.965   2.822  0.00  0.00    +0.114 A 
ATOM      9  S   UNL     1      -0.984   5.526   2.882  0.00  0.00    -0.064 S 
ATOM     10  N   UNL     1      -2.841   2.171  -0.228  0.00  0.00    -0.315 N 
ATOM     11  C   UNL     1      -1.815   1.202  -0.694  0.00  0.00    +0.106 C 
ATOM     12  C   UNL     1      -2.477   0.556  -1.937  0.00  0.00    +0.020 C 
ATOM     13  C   UNL     1      -3.963   0.450  -1.522  0.00  0.00    +0.020 C 
ATOM     14  C   UNL     1      -4.144   1.495  -0.406  0.00  0.00    +0.106 C 
ATOM     15  C   UNL     1      -1.562   4.571  -0.906  0.00  0.00    +0.046 C 
ENDROOT
BRANCH   1  17
ATOM     16  N   UNL     1       0.298   7.967   1.139  0.00  0.00    -0.281 N 
ATOM     17  C   UNL     1      -0.254   6.963   0.431  0.00  0.00    +0.255 C 
ATOM     18  O   UNL     1      -0.253   7.004  -0.785  0.00  0.00    -0.269 OA
ATOM     19  H   UNL     1       0.379   7.889   2.233  0.00  0.00    +0.155 HD
BRANCH  16  24
ATOM     20  C   UNL     1       2.202  12.602  -1.521  0.00  0.00    +0.044 C 
ATOM     21  C   UNL     1       1.696  11.370  -0.814  0.00  0.00    -0.050 A 
ATOM     22  C   UNL     1       0.755  11.490   0.192  0.00  0.00    +0.008 A 
ATOM     23  C   UNL     1       0.289  10.364   0.841  0.00  0.00    -0.029 A 
ATOM     24  C   UNL     1       0.767   9.110   0.484  0.00  0.00    +0.040 A 
ATOM     25  C   UNL     1       1.717   8.994  -0.523  0.00  0.00    -0.029 A 
ATOM     26  C   UNL     1       2.175  10.123  -1.172  0.00  0.00    +0.008 A 
ATOM     27  C   UNL     1       2.244   7.636  -0.910  0.00  0.00    +0.045 C 
ATOM     28  C   UNL     1      -0.739  10.495   1.936  0.00  0.00    +0.045 C 
ENDBRANCH  16  24
ENDBRANCH   1  17
TORSDOF 2
