REMARK  Name = ZINC04983862
REMARK  3 active torsions:
REMARK  status: ('A' for Active; 'I' for Inactive)
REMARK    1  A    between atoms: C_1  and  C_2
REMARK    2  A    between atoms: C_4  and  N_25
REMARK    3  A    between atoms: C_9  and  C_18
REMARK                            x       y       z     vdW  Elec       q    Type
REMARK                         _______ _______ _______ _____ _____    ______ ____
ROOT
ATOM      1  C   UNL     1      -1.839  -3.315  -2.605  0.00  0.00    +0.046 C 
ATOM      2  C   UNL     1      -2.645  -2.311  -1.822  0.00  0.00    -0.027 A 
ATOM      3  C   UNL     1      -3.888  -2.657  -1.335  0.00  0.00    +0.038 A 
ATOM      4  C   UNL     1      -4.626  -1.735  -0.617  0.00  0.00    +0.127 A 
ATOM      5  C   UNL     1      -4.120  -0.471  -0.390  0.00  0.00    +0.038 A 
ATOM      6  C   UNL     1      -2.870  -0.112  -0.877  0.00  0.00    -0.017 A 
ATOM      7  C   UNL     1      -2.131  -1.035  -1.593  0.00  0.00    +0.034 A 
ATOM      8  N   UNL     1      -0.866  -0.739  -2.101  0.00  0.00    -0.336 N 
ATOM      9  C   UNL     1      -0.715   0.676  -2.376  0.00  0.00    +0.105 C 
ATOM     10  C   UNL     1      -0.951   1.498  -1.119  0.00  0.00    +0.029 C 
ATOM     11  C   UNL     1      -2.385   1.285  -0.593  0.00  0.00    +0.049 C 
ATOM     12  C   UNL     1      -2.232   1.450   0.910  0.00  0.00    -0.023 C 
ATOM     13  C   UNL     1      -0.985   1.251   1.272  0.00  0.00    -0.030 C 
ATOM     14  C   UNL     1      -0.132   0.923   0.062  0.00  0.00    +0.033 C 
ATOM     15  H   UNL     1      -0.666  -1.293  -2.920  0.00  0.00    +0.147 HD
ENDROOT
BRANCH   9  16
ATOM     16  C   UNL     1      -1.724   1.066  -3.426  0.00  0.00    -0.027 A 
ATOM     17  C   UNL     1      -2.110   0.150  -4.387  0.00  0.00    +0.008 A 
ATOM     18  C   UNL     1      -3.038   0.504  -5.347  0.00  0.00    +0.038 A 
ATOM     19  C   UNL     1      -3.574   1.781  -5.353  0.00  0.00    +0.123 A 
ATOM     20  C   UNL     1      -3.182   2.700  -4.393  0.00  0.00    +0.038 A 
ATOM     21  C   UNL     1      -2.257   2.341  -3.431  0.00  0.00    +0.008 A 
ATOM     22  F   UNL     1      -4.478   2.131  -6.294  0.00  0.00    -0.205 F 
ENDBRANCH   9  16
BRANCH   4  23
ATOM     23  N   UNL     1      -5.960  -2.103  -0.091  0.00  0.00    +0.056 N 
ATOM     24  O   UNL     1      -6.610  -1.290   0.542  0.00  0.00    -0.126 OA
ATOM     25  O   UNL     1      -6.407  -3.218  -0.291  0.00  0.00    -0.126 OA
ENDBRANCH   4  23
TORSDOF 2
