REMARK  Name = ZINC09076944
REMARK  11 active torsions:
REMARK  status: ('A' for Active; 'I' for Inactive)
REMARK    1  A    between atoms: C_1  and  C_2
REMARK    2  A    between atoms: C_2  and  O_3
REMARK    3  A    between atoms: O_3  and  C_4
REMARK    4  A    between atoms: C_4  and  C_6
REMARK    5  A    between atoms: N_14  and  C_15
REMARK    6  A    between atoms: C_15  and  C_17
REMARK    7  A    between atoms: C_20  and  N_23
REMARK    8  A    between atoms: N_30  and  C_31
REMARK    9  A    between atoms: C_31  and  C_32
REMARK   10  A    between atoms: C_32  and  O_34
REMARK   11  A    between atoms: O_34  and  C_35
REMARK                            x       y       z     vdW  Elec       q    Type
REMARK                         _______ _______ _______ _____ _____    ______ ____
ROOT
ATOM      1  C   UNL     1      -8.565   5.983   1.351  0.00  0.00    +0.060 A 
ATOM      2  C   UNL     1      -9.041   4.700   1.058  0.00  0.00    +0.017 A 
ATOM      3  C   UNL     1      -8.203   3.719   0.629  0.00  0.00    +0.028 A 
ATOM      4  C   UNL     1      -6.827   3.959   0.464  0.00  0.00    +0.058 A 
ATOM      5  C   UNL     1      -6.365   5.252   0.763  0.00  0.00    +0.040 A 
ATOM      6  C   UNL     1      -7.199   6.250   1.196  0.00  0.00    +0.032 A 
ATOM      7  S   UNL     1      -4.623   5.146   0.443  0.00  0.00    -0.052 S 
ATOM      8  C   UNL     1      -4.559   3.488  -0.060  0.00  0.00    +0.167 A 
ATOM      9  N   UNL     1      -3.500   2.784  -0.445  0.00  0.00    -0.152 NA
ATOM     10  N   UNL     1      -5.853   3.079   0.042  0.00  0.00    -0.310 N 
ENDROOT
BRANCH   1  11
ATOM     11  C   UNL     1      -9.486   7.036   1.817  0.00  0.00    +0.339 C 
ATOM     12  O   UNL     1      -9.062   8.147   2.069  0.00  0.00    -0.245 OA
BRANCH  11  13
ATOM     13  O   UNL     1     -10.798   6.767   1.962  0.00  0.00    -0.461 OA
BRANCH  13  15
ATOM     14  C   UNL     1     -13.092   7.361   2.527  0.00  0.00    +0.048 C 
ATOM     15  C   UNL     1     -11.646   7.852   2.424  0.00  0.00    +0.229 C 
ENDBRANCH  13  15
ENDBRANCH  11  13
ENDBRANCH   1  11
BRANCH   9  16
ATOM     16  C   UNL     1      -2.293   3.359  -0.484  0.00  0.00    +0.269 C 
ATOM     17  O   UNL     1      -2.164   4.528  -0.165  0.00  0.00    -0.268 OA
BRANCH  16  18
ATOM     18  C   UNL     1      -1.114   2.575  -0.913  0.00  0.00    +0.039 A 
ATOM     19  C   UNL     1      -1.261   1.237  -1.284  0.00  0.00    +0.015 A 
ATOM     20  C   UNL     1      -0.160   0.508  -1.678  0.00  0.00    +0.025 A 
ATOM     21  C   UNL     1       1.094   1.107  -1.717  0.00  0.00    +0.044 A 
ATOM     22  C   UNL     1       1.243   2.440  -1.354  0.00  0.00    +0.025 A 
ATOM     23  C   UNL     1       0.147   3.173  -0.954  0.00  0.00    +0.015 A 
BRANCH  21  24
ATOM     24  N   UNL     1       2.208   0.366  -2.123  0.00  0.00    -0.210 N 
ATOM     25  C   UNL     1       2.735  -0.616  -1.381  0.00  0.00    +0.227 C 
ATOM     26  O   UNL     1       2.326  -0.975  -0.298  0.00  0.00    -0.275 OA
ATOM     27  C   UNL     1       3.921  -1.210  -2.111  0.00  0.00    +0.106 C 
ATOM     28  C   UNL     1       3.995  -0.385  -3.412  0.00  0.00    +0.106 C 
ATOM     29  C   UNL     1       2.840   0.584  -3.284  0.00  0.00    +0.227 C 
ATOM     30  O   UNL     1       2.534   1.425  -4.102  0.00  0.00    -0.275 OA
ENDBRANCH  21  24
ENDBRANCH  16  18
ENDBRANCH   9  16
BRANCH  10  31
ATOM     31  C   UNL     1      -6.213   1.700  -0.299  0.00  0.00    +0.244 C 
BRANCH  31  32
ATOM     32  C   UNL     1      -5.431   1.263  -1.511  0.00  0.00    +0.327 C 
ATOM     33  O   UNL     1      -4.759   2.063  -2.118  0.00  0.00    -0.249 OA
BRANCH  32  34
ATOM     34  O   UNL     1      -5.481  -0.016  -1.916  0.00  0.00    -0.467 OA
ATOM     35  C   UNL     1      -4.703  -0.366  -3.091  0.00  0.00    +0.280 C 
ENDBRANCH  32  34
ENDBRANCH  31  32
ENDBRANCH  10  31
TORSDOF 9
