REMARK  Name = ZINC05353894
REMARK  7 active torsions:
REMARK  status: ('A' for Active; 'I' for Inactive)
REMARK    1  A    between atoms: C_1  and  C_2
REMARK    2  A    between atoms: C_2  and  N_12
REMARK    3  A    between atoms: C_8  and  O_10
REMARK    4  A    between atoms: O_10  and  C_11
REMARK    5  A    between atoms: N_12  and  N_13
REMARK    6  A    between atoms: C_14  and  C_16
REMARK    7  A    between atoms: C_18  and  C_22
REMARK                            x       y       z     vdW  Elec       q    Type
REMARK                         _______ _______ _______ _____ _____    ______ ____
ROOT
ATOM      1  C   UNL     1      -0.172  -3.863  -2.916  0.00  0.00    +0.122 A 
ATOM      2  C   UNL     1      -0.012  -4.564  -4.096  0.00  0.00    +0.062 A 
ATOM      3  C   UNL     1      -0.305  -5.903  -3.774  0.00  0.00    +0.094 A 
ATOM      4  N   UNL     1      -0.610  -5.946  -2.493  0.00  0.00    -0.173 NA
ATOM      5  N   UNL     1      -0.535  -4.777  -1.967  0.00  0.00    -0.272 N 
ATOM      6  H   UNL     1      -0.713  -4.572  -1.036  0.00  0.00    +0.189 HD
ENDROOT
BRANCH   3   7
ATOM      7  C   UNL     1      -0.276  -7.055  -4.706  0.00  0.00    +0.010 A 
ATOM      8  C   UNL     1       0.068  -6.880  -6.039  0.00  0.00    +0.011 A 
ATOM      9  C   UNL     1       0.103  -7.944  -6.938  0.00  0.00    +0.005 A 
ATOM     10  C   UNL     1      -0.204  -9.207  -6.528  0.00  0.00    -0.039 A 
ATOM     11  C   UNL     1      -0.551  -9.403  -5.195  0.00  0.00    -0.011 A 
ATOM     12  C   UNL     1      -0.593  -8.358  -4.257  0.00  0.00    -0.008 A 
ATOM     13  C   UNL     1      -0.950  -8.672  -2.938  0.00  0.00    +0.009 A 
ATOM     14  C   UNL     1      -1.235  -9.970  -2.624  0.00  0.00    +0.001 A 
ATOM     15  C   UNL     1      -1.182 -10.995  -3.571  0.00  0.00    +0.004 A 
ATOM     16  C   UNL     1      -0.848 -10.721  -4.863  0.00  0.00    -0.039 A 
ATOM     17  C   UNL     1      -0.691 -11.550  -6.114  0.00  0.00    +0.040 C 
ATOM     18  C   UNL     1      -0.266 -10.552  -7.213  0.00  0.00    +0.040 C 
ENDBRANCH   3   7
BRANCH   1  20
ATOM     19  N   UNL     1      -0.070  -1.888  -1.482  0.00  0.00    -0.231 N 
ATOM     20  C   UNL     1       0.018  -2.417  -2.719  0.00  0.00    +0.278 C 
ATOM     21  O   UNL     1       0.255  -1.699  -3.672  0.00  0.00    -0.267 OA
ATOM     22  H   UNL     1      -0.185  -2.468  -0.714  0.00  0.00    +0.173 HD
BRANCH  19  23
ATOM     23  N   UNL     1       0.005  -0.500  -1.307  0.00  0.00    -0.268 N 
ATOM     24  H   UNL     1       0.044   0.085  -2.080  0.00  0.00    +0.170 HD
BRANCH  23  26
ATOM     25  C   UNL     1       0.086  -0.890   1.129  0.00  0.00    +0.062 C 
ATOM     26  C   UNL     1       0.022   0.020  -0.070  0.00  0.00    +0.026 C 
ATOM     27  C   UNL     1      -0.018   1.408   0.106  0.00  0.00    -0.003 C 
ATOM     28  C   UNL     1      -0.115   1.953   1.404  0.00  0.00    +0.013 C 
ATOM     29  C   UNL     1      -0.155   3.299   1.575  0.00  0.00    +0.055 C 
ATOM     30  C   UNL     1      -0.101   4.154   0.459  0.00  0.00    +0.220 C 
ATOM     31  O   UNL     1      -0.137   5.367   0.616  0.00  0.00    -0.284 OA
ATOM     32  C   UNL     1      -0.003   3.613  -0.842  0.00  0.00    +0.167 C 
ATOM     33  C   UNL     1       0.043   2.266  -1.016  0.00  0.00    +0.059 C 
BRANCH  32  34
ATOM     34  O   UNL     1       0.050   4.441  -1.920  0.00  0.00    -0.491 OA
ATOM     35  C   UNL     1       0.038   3.828  -3.211  0.00  0.00    +0.277 C 
ENDBRANCH  32  34
ENDBRANCH  23  26
ENDBRANCH  19  23
ENDBRANCH   1  20
TORSDOF 5
