REMARK  Name = ZINC66490597
REMARK  4 active torsions:
REMARK  status: ('A' for Active; 'I' for Inactive)
REMARK    1  A    between atoms: C_4  and  O_7
REMARK    2  A    between atoms: O_7  and  C_8
REMARK    3  A    between atoms: N_10  and  C_11
REMARK    4  A    between atoms: C_17  and  C_19
REMARK                            x       y       z     vdW  Elec       q    Type
REMARK                         _______ _______ _______ _____ _____    ______ ____
ROOT
ATOM      1  C   UNL     1       4.707  -4.109   0.225  0.00  0.00    +0.079 C 
ATOM      2  C   UNL     1       4.603  -4.739  -1.166  0.00  0.00    +0.041 C 
ATOM      3  C   UNL     1       4.539  -6.264  -1.028  0.00  0.00    +0.110 C 
ATOM      4  N   UNL     1       5.698  -6.716  -0.245  0.00  0.00    -0.297 N 
ATOM      5  C   UNL     1       5.943  -6.109   1.070  0.00  0.00    +0.110 C 
ATOM      6  C   UNL     1       5.991  -4.586   0.908  0.00  0.00    +0.041 C 
ATOM      7  C   UNL     1       6.519  -7.671  -0.725  0.00  0.00    +0.247 C 
ATOM      8  O   UNL     1       6.367  -8.093  -1.853  0.00  0.00    -0.270 OA
ENDROOT
BRANCH   7   9
ATOM      9  C   UNL     1       7.610  -8.207   0.126  0.00  0.00    +0.051 A 
ATOM     10  C   UNL     1       7.339  -9.083   1.138  0.00  0.00    +0.083 A 
ATOM     11  C   UNL     1       8.435  -9.593   1.959  0.00  0.00    +0.250 A 
ATOM     12  N   UNL     1       9.705  -9.213   1.733  0.00  0.00    -0.322 N 
ATOM     13  C   UNL     1      10.019  -8.331   0.722  0.00  0.00    +0.050 A 
ATOM     14  C   UNL     1       9.007  -7.811  -0.105  0.00  0.00    +0.011 A 
ATOM     15  C   UNL     1       9.336  -6.920  -1.131  0.00  0.00    +0.011 A 
ATOM     16  C   UNL     1      10.640  -6.564  -1.330  0.00  0.00    +0.001 A 
ATOM     17  C   UNL     1      11.643  -7.079  -0.521  0.00  0.00    +0.002 A 
ATOM     18  C   UNL     1      11.341  -7.950   0.504  0.00  0.00    +0.026 A 
ATOM     19  O   UNL     1       8.194 -10.375   2.862  0.00  0.00    -0.268 OA
ATOM     20  H   UNL     1      10.413  -9.567   2.293  0.00  0.00    +0.169 HD
ENDBRANCH   7   9
BRANCH   1  23
ATOM     21  C   UNL     1       3.580  -1.959   0.012  0.00  0.00    +0.406 C 
ATOM     22  O   UNL     1       2.517  -2.547   0.039  0.00  0.00    -0.226 OA
ATOM     23  N   UNL     1       4.734  -2.650   0.099  0.00  0.00    -0.278 N 
ATOM     24  H   UNL     1       5.583  -2.181   0.077  0.00  0.00    +0.152 HD
BRANCH  21  25
ATOM     25  O   UNL     1       3.606  -0.618  -0.104  0.00  0.00    -0.412 OA
BRANCH  25  29
ATOM     26  C   UNL     1       0.010   1.403  -0.019  0.00  0.00    +0.000 A 
ATOM     27  C   UNL     1       0.464   0.755   1.115  0.00  0.00    +0.004 A 
ATOM     28  C   UNL     1       1.668   0.078   1.089  0.00  0.00    +0.046 A 
ATOM     29  C   UNL     1       2.421   0.048  -0.076  0.00  0.00    +0.133 A 
ATOM     30  C   UNL     1       1.962   0.699  -1.212  0.00  0.00    +0.046 A 
ATOM     31  C   UNL     1       0.758   1.375  -1.181  0.00  0.00    +0.004 A 
ENDBRANCH  25  29
ENDBRANCH  21  25
ENDBRANCH   1  23
TORSDOF 4
