REMARK  Name = ZINC02629336
REMARK  7 active torsions:
REMARK  status: ('A' for Active; 'I' for Inactive)
REMARK    1  A    between atoms: C_3  and  S_26
REMARK    2  A    between atoms: C_6  and  N_7
REMARK    3  A    between atoms: C_8  and  C_10
REMARK    4  A    between atoms: C_10  and  S_11
REMARK    5  A    between atoms: S_11  and  C_12
REMARK    6  A    between atoms: C_15  and  C_18
REMARK    7  A    between atoms: S_26  and  N_29
REMARK                            x       y       z     vdW  Elec       q    Type
REMARK                         _______ _______ _______ _____ _____    ______ ____
ROOT
ATOM      1  N   UNL     1      -1.199  -0.722   0.010  0.00  0.00    -0.285 N 
ATOM      2  C   UNL     1      -2.325  -0.156  -0.469  0.00  0.00    +0.227 C 
ATOM      3  O   UNL     1      -2.280   0.938  -0.990  0.00  0.00    -0.275 OA
ATOM      4  H   UNL     1      -1.221  -1.627   0.357  0.00  0.00    +0.155 HD
ENDROOT
BRANCH   1  10
ATOM      5  C   UNL     1      -0.013   1.374   0.193  0.00  0.00    +0.025 A 
ATOM      6  C   UNL     1       1.174   2.082   0.190  0.00  0.00    +0.030 A 
ATOM      7  C   UNL     1       2.374   1.421   0.002  0.00  0.00    +0.106 A 
ATOM      8  C   UNL     1       2.391   0.051  -0.183  0.00  0.00    +0.030 A 
ATOM      9  C   UNL     1       1.208  -0.663  -0.180  0.00  0.00    +0.025 A 
ATOM     10  C   UNL     1       0.001  -0.002   0.007  0.00  0.00    +0.034 A 
BRANCH   7  11
ATOM     11  S   UNL     1       3.885   2.327  -0.002  0.00  0.00    +0.061 S 
ATOM     12  O   UNL     1       4.821   1.553  -0.740  0.00  0.00    -0.153 OA
ATOM     13  O   UNL     1       3.556   3.664  -0.354  0.00  0.00    -0.153 OA
BRANCH  11  14
ATOM     14  N   UNL     1       4.434   2.370   1.560  0.00  0.00    -0.177 NA
ATOM     15  C   UNL     1       4.107   3.401   2.555  0.00  0.00    +0.109 C 
ATOM     16  C   UNL     1       4.862   3.043   3.852  0.00  0.00    +0.018 C 
ATOM     17  C   UNL     1       6.019   2.143   3.343  0.00  0.00    +0.018 C 
ATOM     18  C   UNL     1       5.328   1.377   2.184  0.00  0.00    +0.109 C 
ENDBRANCH  11  14
ENDBRANCH   7  11
ENDBRANCH   1  10
BRANCH   2  19
ATOM     19  C   UNL     1      -3.640  -0.884  -0.358  0.00  0.00    +0.173 C 
BRANCH  19  20
ATOM     20  S   UNL     1      -4.955   0.129  -1.088  0.00  0.00    -0.077 S 
BRANCH  20  21
ATOM     21  C   UNL     1      -6.408  -0.847  -0.882  0.00  0.00    +0.185 A 
ATOM     22  N   UNL     1      -6.469  -2.034  -0.320  0.00  0.00    -0.201 NA
ATOM     23  H   UNL     1      -7.922   0.319  -1.712  0.00  0.00    +0.191 HD
ATOM     24  C   UNL     1      -7.734  -2.477  -0.337  0.00  0.00    +0.184 A 
ATOM     25  N   UNL     1      -8.494  -1.573  -0.913  0.00  0.00    -0.152 NA
ATOM     26  N   UNL     1      -7.657  -0.503  -1.271  0.00  0.00    -0.253 N 
BRANCH  24  27
ATOM     27  C   UNL     1      -8.201  -3.777   0.205  0.00  0.00    +0.041 A 
ATOM     28  C   UNL     1      -7.294  -4.652   0.800  0.00  0.00    +0.033 A 
ATOM     29  C   UNL     1      -7.734  -5.860   1.304  0.00  0.00    +0.042 A 
ATOM     30  C   UNL     1      -9.073  -6.203   1.218  0.00  0.00    +0.021 A 
ATOM     31  C   UNL     1      -9.977  -5.339   0.628  0.00  0.00    +0.022 A 
ATOM     32  C   UNL     1      -9.549  -4.124   0.127  0.00  0.00    +0.052 A 
ATOM     33 CL   UNL     1     -10.686  -3.037  -0.607  0.00  0.00    -0.083 Cl
ATOM     34 CL   UNL     1      -6.606  -6.952   2.046  0.00  0.00    -0.084 Cl
ENDBRANCH  24  27
ENDBRANCH  20  21
ENDBRANCH  19  20
ENDBRANCH   2  19
TORSDOF 7
