REMARK  Name = ZINC31645667
REMARK  7 active torsions:
REMARK  status: ('A' for Active; 'I' for Inactive)
REMARK    1  A    between atoms: C_1  and  C_2
REMARK    2  A    between atoms: C_2  and  N_3
REMARK    3  A    between atoms: C_7  and  S_26
REMARK    4  A    between atoms: C_11  and  C_12
REMARK    5  A    between atoms: C_12  and  N_13
REMARK    6  A    between atoms: N_18  and  C_21
REMARK    7  A    between atoms: S_26  and  N_29
REMARK                            x       y       z     vdW  Elec       q    Type
REMARK                         _______ _______ _______ _____ _____    ______ ____
ROOT
ATOM      1  N   UNL     1      -0.704   1.998   1.216  0.00  0.00    -0.326 N 
ATOM      2  C   UNL     1      -2.055   2.258   1.340  0.00  0.00    +0.069 A 
ATOM      3  C   UNL     1      -3.138   2.179   0.476  0.00  0.00    +0.030 A 
ATOM      4  C   UNL     1      -4.396   2.520   0.925  0.00  0.00    +0.030 A 
ATOM      5  C   UNL     1      -4.585   2.942   2.234  0.00  0.00    +0.108 A 
ATOM      6  C   UNL     1      -3.532   3.018   3.100  0.00  0.00    +0.058 A 
ATOM      7  C   UNL     1      -2.247   2.681   2.666  0.00  0.00    +0.091 A 
ATOM      8  N   UNL     1      -1.030   2.668   3.267  0.00  0.00    -0.231 NA
ATOM      9  C   UNL     1      -0.128   2.268   2.418  0.00  0.00    +0.129 A 
ENDROOT
BRANCH   5  10
ATOM     10  S   UNL     1      -6.202   3.373   2.786  0.00  0.00    +0.061 S 
ATOM     11  O   UNL     1      -6.033   4.255   3.887  0.00  0.00    -0.153 OA
ATOM     12  O   UNL     1      -6.944   3.732   1.628  0.00  0.00    -0.153 OA
BRANCH  10  13
ATOM     13  N   UNL     1      -6.898   1.995   3.386  0.00  0.00    -0.177 NA
ATOM     14  C   UNL     1      -7.680   1.110   2.512  0.00  0.00    +0.109 C 
ATOM     15  C   UNL     1      -7.119  -0.315   2.631  0.00  0.00    +0.017 C 
ATOM     16  C   UNL     1      -7.110  -0.733   4.103  0.00  0.00    +0.003 C 
ATOM     17  C   UNL     1      -6.204   0.210   4.898  0.00  0.00    +0.017 C 
ATOM     18  C   UNL     1      -6.751   1.638   4.803  0.00  0.00    +0.109 C 
ENDBRANCH  10  13
ENDBRANCH   5  10
BRANCH   1  20
ATOM     19  C   UNL     1       0.002  -0.004   0.002  0.00  0.00    +0.027 C 
ATOM     20  C   UNL     1      -0.019   1.526   0.010  0.00  0.00    +0.120 C 
ENDBRANCH   1  20
BRANCH   9  21
ATOM     21  C   UNL     1       1.341   2.126   2.722  0.00  0.00    +0.192 C 
BRANCH  21  22
ATOM     22  N   UNL     1       2.026   3.387   2.427  0.00  0.00    -0.210 N 
ATOM     23  C   UNL     1       2.578   3.723   1.241  0.00  0.00    +0.310 C 
ATOM     24  O   UNL     1       2.607   3.055   0.229  0.00  0.00    -0.264 OA
ATOM     25  C   UNL     1       3.147   5.096   1.440  0.00  0.00    +0.310 C 
ATOM     26  O   UNL     1       3.733   5.774   0.623  0.00  0.00    -0.264 OA
ATOM     27  N   UNL     1       2.874   5.416   2.724  0.00  0.00    -0.215 N 
ATOM     28  C   UNL     1       2.211   4.396   3.294  0.00  0.00    +0.319 C 
ATOM     29  O   UNL     1       1.827   4.388   4.446  0.00  0.00    -0.252 OA
BRANCH  27  30
ATOM     30  C   UNL     1       3.240   6.670   3.386  0.00  0.00    +0.086 C 
ATOM     31  C   UNL     1       2.635   7.867   2.623  0.00  0.00    +0.023 C 
ATOM     32  C   UNL     1       3.724   8.965   2.716  0.00  0.00    +0.002 C 
ATOM     33  C   UNL     1       5.038   8.158   2.576  0.00  0.00    +0.002 C 
ATOM     34  C   UNL     1       4.767   6.855   3.357  0.00  0.00    +0.023 C 
ENDBRANCH  27  30
ENDBRANCH  21  22
ENDBRANCH   9  21
TORSDOF 6
