REMARK  Name = ZINC27100121
REMARK  10 active torsions:
REMARK  status: ('A' for Active; 'I' for Inactive)
REMARK    1  A    between atoms: C_1  and  C_2
REMARK    2  A    between atoms: C_2  and  O_3
REMARK    3  A    between atoms: O_3  and  C_4
REMARK    4  A    between atoms: C_4  and  C_6
REMARK    5  A    between atoms: C_9  and  O_12
REMARK    6  A    between atoms: O_12  and  C_13
REMARK    7  A    between atoms: C_22  and  O_38
REMARK    8  A    between atoms: C_23  and  C_24
REMARK    9  A    between atoms: C_24  and  N_25
REMARK   10  A    between atoms: C_30  and  C_32
REMARK                            x       y       z     vdW  Elec       q    Type
REMARK                         _______ _______ _______ _____ _____    ______ ____
ROOT
ATOM      1  C   UNL     1       2.342   4.101   0.106  0.00  0.00    +0.210 A 
ATOM      2  C   UNL     1       3.501   3.414   0.096  0.00  0.00    +0.245 A 
ATOM      3  O   UNL     1       4.697   4.010   0.183  0.00  0.00    -0.459 OA
ATOM      4  C   UNL     1       4.832   5.346   0.298  0.00  0.00    +0.143 A 
ATOM      5  C   UNL     1       3.688   6.164   0.326  0.00  0.00    +0.068 A 
ATOM      6  C   UNL     1       2.367   5.519   0.226  0.00  0.00    +0.235 A 
ATOM      7  O   UNL     1       1.338   6.174   0.244  0.00  0.00    -0.283 OA
ATOM      8  C   UNL     1       3.814   7.548   0.447  0.00  0.00    +0.019 A 
ATOM      9  C   UNL     1       5.056   8.109   0.537  0.00  0.00    +0.046 A 
ATOM     10  C   UNL     1       6.195   7.308   0.510  0.00  0.00    +0.122 A 
ATOM     11  C   UNL     1       6.087   5.932   0.392  0.00  0.00    +0.020 A 
ENDROOT
BRANCH  10  12
ATOM     12  O   UNL     1       7.423   7.880   0.601  0.00  0.00    -0.506 OA
ATOM     13  H   UNL     1       8.326   7.252   0.581  0.00  0.00    +0.292 HD
ENDBRANCH  10  12
BRANCH   1  14
ATOM     14  O   UNL     1       1.154   3.442   0.010  0.00  0.00    -0.449 OA
BRANCH  14  18
ATOM     15  C   UNL     1       1.228  -0.684  -0.073  0.00  0.00    +0.059 A 
ATOM     16  C   UNL     1       1.380  -0.004   1.139  0.00  0.00    +0.018 A 
ATOM     17  C   UNL     1       1.355   1.372   1.162  0.00  0.00    +0.047 A 
ATOM     18  C   UNL     1       1.178   2.086  -0.018  0.00  0.00    +0.129 A 
ATOM     19  C   UNL     1       1.027   1.414  -1.226  0.00  0.00    +0.047 A 
ATOM     20  C   UNL     1       1.051   0.038  -1.258  0.00  0.00    +0.018 A 
BRANCH  15  21
ATOM     21  C   UNL     1       1.254  -2.158  -0.103  0.00  0.00    +0.339 C 
ATOM     22  O   UNL     1       1.409  -2.784   0.927  0.00  0.00    -0.245 OA
BRANCH  21  23
ATOM     23  O   UNL     1       1.108  -2.811  -1.273  0.00  0.00    -0.461 OA
BRANCH  23  25
ATOM     24  C   UNL     1       0.962  -4.822  -2.639  0.00  0.00    +0.048 C 
ATOM     25  C   UNL     1       1.144  -4.262  -1.227  0.00  0.00    +0.229 C 
ENDBRANCH  23  25
ENDBRANCH  21  23
ENDBRANCH  15  21
ENDBRANCH  14  18
ENDBRANCH   1  14
BRANCH  11  26
ATOM     26  C   UNL     1       7.326   5.075   0.364  0.00  0.00    -0.035 C 
BRANCH  26  27
ATOM     27  N   UNL     1       7.777   4.911  -1.024  0.00  0.00    +0.387 N 
ATOM     28  C   UNL     1       6.799   4.146  -1.808  0.00  0.00    -0.078 C 
ATOM     29  C   UNL     1       7.230   4.120  -3.277  0.00  0.00    -0.019 C 
ATOM     30  C   UNL     1       8.615   3.476  -3.386  0.00  0.00    -0.003 C 
ATOM     31  C   UNL     1       9.604   4.263  -2.521  0.00  0.00    -0.011 C 
ATOM     32  C   UNL     1       9.105   4.285  -1.075  0.00  0.00    -0.037 C 
ATOM     33  H   UNL     1       7.860   5.911  -1.474  0.00  0.00    -0.080 HD
BRANCH  32  34
ATOM     34  C   UNL     1      10.065   5.076  -0.224  0.00  0.00    -0.058 A 
ATOM     35  C   UNL     1      10.032   6.462  -0.217  0.00  0.00    +0.022 A 
ATOM     36  C   UNL     1      10.926   7.153   0.579  0.00  0.00    +0.111 A 
ATOM     37  N   UNL     1      11.808   6.509   1.318  0.00  0.00    -0.263 NA
ATOM     38  C   UNL     1      11.871   5.192   1.333  0.00  0.00    +0.111 A 
ATOM     39  C   UNL     1      11.007   4.434   0.566  0.00  0.00    +0.022 A 
ENDBRANCH  32  34
ENDBRANCH  26  27
ENDBRANCH  11  26
TORSDOF 9
