REMARK  Name = ZINC22909921
REMARK  13 active torsions:
REMARK  status: ('A' for Active; 'I' for Inactive)
REMARK    1  A    between atoms: C_1  and  C_2
REMARK    2  A    between atoms: C_2  and  N_3
REMARK    3  A    between atoms: C_4  and  C_22
REMARK    4  A    between atoms: C_5  and  C_17
REMARK    5  A    between atoms: C_6  and  C_11
REMARK    6  A    between atoms: C_17  and  O_19
REMARK    7  A    between atoms: O_19  and  C_20
REMARK    8  A    between atoms: C_20  and  C_21
REMARK    9  A    between atoms: C_22  and  N_23
REMARK   10  A    between atoms: N_26  and  C_29
REMARK   11  A    between atoms: C_29  and  C_30
REMARK   12  A    between atoms: C_34  and  O_36
REMARK   13  A    between atoms: O_36  and  C_37
REMARK                            x       y       z     vdW  Elec       q    Type
REMARK                         _______ _______ _______ _____ _____    ______ ____
ROOT
ATOM      1  N   UNL     1      -1.722  -0.955   0.091  0.00  0.00    -0.258 N 
ATOM      2  C   UNL     1      -2.190  -0.647   1.337  0.00  0.00    +0.041 C 
ATOM      3  C   UNL     1      -3.502  -0.757   1.635  0.00  0.00    +0.080 C 
ATOM      4  C   UNL     1      -4.437  -1.234   0.541  0.00  0.00    +0.144 C 
ATOM      5  N   UNL     1      -3.832  -1.539  -0.767  0.00  0.00    -0.288 N 
ATOM      6  C   UNL     1      -2.502  -1.375  -0.912  0.00  0.00    +0.307 C 
ATOM      7  O   UNL     1      -1.994  -1.620  -1.989  0.00  0.00    -0.252 OA
ATOM      8  H   UNL     1      -4.378  -1.848  -1.506  0.00  0.00    +0.151 HD
ENDROOT
BRANCH   4   9
ATOM      9  C   UNL     1      -5.131  -2.477   1.032  0.00  0.00    -0.022 A 
ATOM     10  C   UNL     1      -4.479  -3.695   0.992  0.00  0.00    +0.006 A 
ATOM     11  C   UNL     1      -5.117  -4.836   1.443  0.00  0.00    +0.000 A 
ATOM     12  C   UNL     1      -6.406  -4.759   1.935  0.00  0.00    +0.000 A 
ATOM     13  C   UNL     1      -7.058  -3.541   1.976  0.00  0.00    +0.000 A 
ATOM     14  C   UNL     1      -6.419  -2.399   1.529  0.00  0.00    +0.006 A 
ENDBRANCH   4   9
BRANCH   1  16
ATOM     15  C   UNL     1       0.016   0.628  -0.584  0.00  0.00    +0.025 C 
ATOM     16  C   UNL     1      -0.286  -0.812  -0.163  0.00  0.00    +0.111 C 
ENDBRANCH   1  16
BRANCH   3  17
ATOM     17  C   UNL     1      -3.989  -0.440   2.925  0.00  0.00    +0.339 C 
ATOM     18  O   UNL     1      -3.209  -0.174   3.820  0.00  0.00    -0.245 OA
BRANCH  17  19
ATOM     19  O   UNL     1      -5.317  -0.431   3.162  0.00  0.00    -0.462 OA
BRANCH  19  20
ATOM     20  C   UNL     1      -5.737  -0.102   4.487  0.00  0.00    +0.229 C 
ATOM     21  C   UNL     1      -7.265  -0.144   4.563  0.00  0.00    +0.048 C 
ENDBRANCH  19  20
ENDBRANCH  17  19
ENDBRANCH   3  17
BRANCH   2  22
ATOM     22  C   UNL     1      -1.226  -0.176   2.395  0.00  0.00    +0.136 C 
BRANCH  22  23
ATOM     23  N   UNL     1      -0.821  -1.316   3.229  0.00  0.00    -0.300 NA
ATOM     24  C   UNL     1       0.075  -2.217   2.491  0.00  0.00    +0.066 C 
ATOM     25  C   UNL     1       0.425  -3.418   3.372  0.00  0.00    -0.063 C 
ATOM     26  N   UNL     1       1.079  -2.950   4.601  0.00  0.00    +0.384 N 
ATOM     27  C   UNL     1       0.163  -2.071   5.340  0.00  0.00    -0.063 C 
ATOM     28  C   UNL     1      -0.190  -0.858   4.476  0.00  0.00    +0.066 C 
ATOM     29  H   UNL     1       1.916  -2.439   4.364  0.00  0.00    -0.081 HD
BRANCH  26  30
ATOM     30  C   UNL     1       1.431  -4.104   5.439  0.00  0.00    -0.043 C 
BRANCH  30  31
ATOM     31  C   UNL     1       2.209  -3.634   6.641  0.00  0.00    -0.060 A 
ATOM     32  C   UNL     1       3.588  -3.544   6.579  0.00  0.00    +0.002 A 
ATOM     33  C   UNL     1       4.304  -3.113   7.680  0.00  0.00    +0.004 A 
ATOM     34  C   UNL     1       3.645  -2.772   8.845  0.00  0.00    +0.045 A 
ATOM     35  C   UNL     1       2.262  -2.861   8.909  0.00  0.00    +0.120 A 
ATOM     36  C   UNL     1       1.544  -3.288   7.801  0.00  0.00    +0.047 A 
BRANCH  35  37
ATOM     37  O   UNL     1       1.611  -2.526  10.054  0.00  0.00    -0.495 OA
ATOM     38  C   UNL     1       2.413  -2.089  11.153  0.00  0.00    +0.277 C 
ENDBRANCH  35  37
ENDBRANCH  30  31
ENDBRANCH  26  30
ENDBRANCH  22  23
ENDBRANCH   2  22
TORSDOF 10
