REMARK  Name = ZINC08966334
REMARK  4 active torsions:
REMARK  status: ('A' for Active; 'I' for Inactive)
REMARK    1  A    between atoms: C_3  and  C_6
REMARK    2  A    between atoms: C_13  and  C_14
REMARK    3  A    between atoms: C_13  and  N_61
REMARK    4  A    between atoms: C_20  and  C_22
REMARK                            x       y       z     vdW  Elec       q    Type
REMARK                         _______ _______ _______ _____ _____    ______ ____
ROOT
ATOM      1  C   UNL     1      -0.021   1.803   2.236  0.00  0.00    +0.199 C 
ATOM      2  O   UNL     1      -0.756   2.240   3.095  0.00  0.00    -0.278 OA
ATOM      3  N   UNL     1      -0.485   1.611   0.985  0.00  0.00    -0.296 N 
ATOM      4  C   UNL     1       0.296   1.087  -0.150  0.00  0.00    +0.108 C 
ATOM      5  C   UNL     1      -0.424   1.625  -1.412  0.00  0.00    +0.021 C 
ATOM      6  C   UNL     1      -1.912   1.543  -0.980  0.00  0.00    +0.029 C 
ATOM      7  C   UNL     1      -1.855   1.889   0.522  0.00  0.00    +0.106 C 
ENDROOT
BRANCH   7   8
ATOM      8  C   UNL     1      -2.836   1.034   1.283  0.00  0.00    -0.023 A 
ATOM      9  C   UNL     1      -2.518  -0.277   1.584  0.00  0.00    +0.009 A 
ATOM     10  C   UNL     1      -3.413  -1.068   2.281  0.00  0.00    +0.050 A 
ATOM     11  C   UNL     1      -4.630  -0.541   2.678  0.00  0.00    +0.162 A 
ATOM     12  C   UNL     1      -4.949   0.775   2.376  0.00  0.00    +0.162 A 
ATOM     13  C   UNL     1      -4.049   1.565   1.682  0.00  0.00    +0.055 A 
ATOM     14  O   UNL     1      -6.152   1.285   2.771  0.00  0.00    -0.488 OA
ATOM     15  C   UNL     1      -6.326   1.456   4.179  0.00  0.00    +0.232 C 
ATOM     16  C   UNL     1      -6.790   0.160   4.825  0.00  0.00    +0.082 C 
ATOM     17  C   UNL     1      -5.746  -0.942   4.728  0.00  0.00    +0.232 C 
ATOM     18  O   UNL     1      -5.523  -1.311   3.366  0.00  0.00    -0.488 OA
ENDBRANCH   7   8
BRANCH   1  19
ATOM     19  C   UNL     1       1.412   1.472   2.567  0.00  0.00    +0.019 C 
BRANCH  19  27
ATOM     20  C   UNL     1       3.761   3.507   7.015  0.00  0.00    +0.282 C 
ATOM     21  O   UNL     1       4.737   2.947   7.478  0.00  0.00    -0.267 OA
ATOM     22  N   UNL     1       2.883   2.818   6.260  0.00  0.00    -0.299 N 
ATOM     23  C   UNL     1       3.124   1.408   5.918  0.00  0.00    +0.089 C 
ATOM     24  C   UNL     1       2.974   1.242   4.403  0.00  0.00    -0.059 C 
ATOM     25  C   UNL     1       1.564   3.209   4.247  0.00  0.00    -0.059 C 
ATOM     26  C   UNL     1       1.656   3.456   5.757  0.00  0.00    +0.089 C 
ATOM     27  N   UNL     1       1.646   1.753   3.998  0.00  0.00    +0.387 N 
ATOM     28  H   UNL     1       0.924   1.279   4.553  0.00  0.00    -0.081 HD
BRANCH  20  31
ATOM     29  C   UNL     1       3.798   7.039   7.940  0.00  0.00    +0.042 A 
ATOM     30  C   UNL     1       4.411   5.777   7.907  0.00  0.00    +0.054 A 
ATOM     31  C   UNL     1       3.541   4.933   7.278  0.00  0.00    +0.189 A 
ATOM     32  O   UNL     1       2.441   5.640   6.946  0.00  0.00    -0.458 OA
ATOM     33  C   UNL     1       2.592   6.910   7.343  0.00  0.00    +0.196 A 
ENDBRANCH  20  31
ENDBRANCH  19  27
ENDBRANCH   1  19
TORSDOF 4
