REMARK  Name = ZINC17246331
REMARK  8 active torsions:
REMARK  status: ('A' for Active; 'I' for Inactive)
REMARK    1  A    between atoms: C_1  and  C_2
REMARK    2  A    between atoms: C_2  and  C_3
REMARK    3  A    between atoms: C_3  and  C_5
REMARK    4  A    between atoms: C_3  and  N_6
REMARK    5  A    between atoms: C_8  and  C_14
REMARK    6  A    between atoms: C_21  and  O_22
REMARK    7  A    between atoms: O_22  and  C_23
REMARK    8  A    between atoms: N_29  and  C_30
REMARK                            x       y       z     vdW  Elec       q    Type
REMARK                         _______ _______ _______ _____ _____    ______ ____
ROOT
ATOM      1  C   UNL     1       0.530   4.039  -0.647  0.00  0.00    +0.008 C 
ATOM      2  C   UNL     1       0.932   4.233  -2.086  0.00  0.00    -0.008 A 
ATOM      3  C   UNL     1       1.813   5.222  -2.468  0.00  0.00    -0.040 A 
ATOM      4  C   UNL     1       2.152   5.370  -3.804  0.00  0.00    +0.053 A 
ATOM      5  C   UNL     1       1.612   4.530  -4.764  0.00  0.00    +0.170 A 
ATOM      6  C   UNL     1       0.725   3.529  -4.383  0.00  0.00    +0.208 A 
ATOM      7  C   UNL     1       0.388   3.384  -3.044  0.00  0.00    +0.167 A 
ATOM      8  O   UNL     1       0.337   2.841  -5.497  0.00  0.00    -0.449 OA
ATOM      9  C   UNL     1       0.677   3.690  -6.610  0.00  0.00    +0.467 C 
ATOM     10  O   UNL     1       1.782   4.471  -6.117  0.00  0.00    -0.452 OA
ATOM     11  C   UNL     1       2.431   6.162  -1.464  0.00  0.00    +0.017 C 
ATOM     12  C   UNL     1       1.640   6.121  -0.156  0.00  0.00    -0.073 C 
ATOM     13  N   UNL     1       1.476   4.715   0.246  0.00  0.00    +0.386 N 
ATOM     14  C   UNL     1       1.042   4.615   1.646  0.00  0.00    -0.095 C 
ATOM     15  H   UNL     1       2.450   4.211   0.163  0.00  0.00    -0.081 HD
ENDROOT
BRANCH   1  18
ATOM     16  N   UNL     1      -0.643   0.580   0.181  0.00  0.00    -0.285 N 
ATOM     17  C   UNL     1      -0.662   1.919  -0.103  0.00  0.00    +0.260 A 
ATOM     18  C   UNL     1       0.514   2.565  -0.330  0.00  0.00    +0.072 A 
ATOM     19  C   UNL     1       1.719   1.833  -0.264  0.00  0.00    +0.258 A 
ATOM     20  O   UNL     1       2.788   2.390  -0.464  0.00  0.00    -0.267 OA
ATOM     21  N   UNL     1       1.684   0.522   0.019  0.00  0.00    -0.302 N 
ATOM     22  C   UNL     1       0.540  -0.093   0.237  0.00  0.00    +0.164 A 
ATOM     23  S   UNL     1       0.539  -1.815   0.606  0.00  0.00    -0.013 S 
ATOM     24  O   UNL     1      -1.835   2.589  -0.164  0.00  0.00    -0.267 OA
ATOM     25  H   UNL     1       2.620  -0.054   0.072  0.00  0.00    +0.171 HD
BRANCH  16  26
ATOM     26  C   UNL     1      -1.900  -0.131   0.428  0.00  0.00    +0.089 C 
ATOM     27  C   UNL     1      -2.760  -0.101  -0.837  0.00  0.00    +0.031 C 
BRANCH  26  29
ATOM     28  C   UNL     1      -3.938  -0.230   1.870  0.00  0.00    +0.006 C 
ATOM     29  C   UNL     1      -2.654   0.547   1.574  0.00  0.00    +0.021 C 
ENDBRANCH  26  29
ENDBRANCH  16  26
ENDBRANCH   1  18
BRANCH   7  30
ATOM     30  O   UNL     1      -0.479   2.406  -2.668  0.00  0.00    -0.491 OA
ATOM     31  C   UNL     1      -1.874   2.698  -2.777  0.00  0.00    +0.277 C 
ENDBRANCH   7  30
TORSDOF 4
