REMARK  Name = ZINC22786789
REMARK  5 active torsions:
REMARK  status: ('A' for Active; 'I' for Inactive)
REMARK    1  A    between atoms: C_1  and  C_2
REMARK    2  A    between atoms: N_11  and  C_15
REMARK    3  A    between atoms: C_15  and  N_16
REMARK    4  A    between atoms: N_19  and  C_22
REMARK    5  A    between atoms: C_22  and  C_23
REMARK                            x       y       z     vdW  Elec       q    Type
REMARK                         _______ _______ _______ _____ _____    ______ ____
ROOT
ATOM      1  C   UNL     1      -1.520   7.251   8.552  0.00  0.00    +0.010 C 
ATOM      2  C   UNL     1      -2.749   6.662   7.856  0.00  0.00    +0.018 C 
ATOM      3  C   UNL     1      -3.967   7.547   8.135  0.00  0.00    +0.006 C 
ATOM      4  C   UNL     1      -5.190   6.969   7.422  0.00  0.00    +0.000 C 
ATOM      5  C   UNL     1      -4.933   6.933   5.914  0.00  0.00    +0.003 C 
ATOM      6  C   UNL     1      -3.720   6.046   5.625  0.00  0.00    +0.035 C 
ATOM      7  C   UNL     1      -2.499   6.598   6.353  0.00  0.00    +0.115 C 
ATOM      8  C   UNL     1      -1.282   5.750   6.058  0.00  0.00    +0.248 C 
ATOM      9  O   UNL     1      -1.126   4.576   6.315  0.00  0.00    -0.273 OA
ATOM     10  N   UNL     1      -0.407   6.577   5.449  0.00  0.00    -0.211 N 
ATOM     11  C   UNL     1      -0.900   7.815   5.328  0.00  0.00    +0.310 C 
ATOM     12  O   UNL     1      -0.294   8.737   4.817  0.00  0.00    -0.252 OA
ATOM     13  N   UNL     1      -2.144   7.924   5.832  0.00  0.00    -0.285 N 
ATOM     14  H   UNL     1      -2.861   8.755   5.910  0.00  0.00    +0.151 HD
ENDROOT
BRANCH  10  15
ATOM     15  C   UNL     1       0.922   6.170   4.983  0.00  0.00    +0.205 C 
BRANCH  15  16
ATOM     16  N   UNL     1       0.830   5.694   3.596  0.00  0.00    -0.284 NA
ATOM     17  C   UNL     1       2.118   5.839   2.904  0.00  0.00    +0.101 C 
ATOM     18  C   UNL     1       1.960   5.408   1.444  0.00  0.00    +0.100 C 
ATOM     19  N   UNL     1       1.492   4.015   1.394  0.00  0.00    -0.295 NA
ATOM     20  C   UNL     1       0.204   3.871   2.087  0.00  0.00    +0.100 C 
ATOM     21  C   UNL     1       0.362   4.302   3.547  0.00  0.00    +0.101 C 
BRANCH  19  22
ATOM     22  C   UNL     1       1.401   3.539   0.008  0.00  0.00    +0.127 C 
BRANCH  22  23
ATOM     23  C   UNL     1       1.159   2.052   0.002  0.00  0.00    +0.005 A 
ATOM     24  C   UNL     1      -0.017   1.379   0.010  0.00  0.00    +0.014 A 
ATOM     25  C   UNL     1       0.002  -0.004   0.002  0.00  0.00    +0.028 A 
ATOM     26  C   UNL     1       1.198  -0.645  -0.013  0.00  0.00    +0.078 A 
ATOM     27  S   UNL     1       2.348   0.720  -0.017  0.00  0.00    -0.080 S 
ATOM     28 CL   UNL     1       1.524  -2.350  -0.026  0.00  0.00    -0.076 Cl
ENDBRANCH  22  23
ENDBRANCH  19  22
ENDBRANCH  15  16
ENDBRANCH  10  15
TORSDOF 4
