REMARK  Name = ZINC35694847
REMARK  10 active torsions:
REMARK  status: ('A' for Active; 'I' for Inactive)
REMARK    1  A    between atoms: C_1  and  C_2
REMARK    2  A    between atoms: C_5  and  C_8
REMARK    3  A    between atoms: N_10  and  C_32
REMARK    4  A    between atoms: N_13  and  C_14
REMARK    5  A    between atoms: C_14  and  C_16
REMARK    6  A    between atoms: C_16  and  N_17
REMARK    7  A    between atoms: N_17  and  C_18
REMARK    8  A    between atoms: C_18  and  C_19
REMARK    9  A    between atoms: C_25  and  C_27
REMARK   10  A    between atoms: C_35  and  C_38
REMARK                            x       y       z     vdW  Elec       q    Type
REMARK                         _______ _______ _______ _____ _____    ______ ____
ROOT
ATOM      1  C   UNL     1      -0.756  -4.449   0.033  0.00  0.00    +0.066 A 
ATOM      2  C   UNL     1      -0.673  -5.262   1.101  0.00  0.00    +0.120 A 
ATOM      3  N   UNL     1      -0.436  -6.544   0.646  0.00  0.00    -0.287 N 
ATOM      4  C   UNL     1      -0.376  -6.507  -0.713  0.00  0.00    +0.205 A 
ATOM      5  N   UNL     1      -0.577  -5.223  -1.108  0.00  0.00    -0.326 N 
ATOM      6  N   UNL     1      -0.162  -7.549  -1.516  0.00  0.00    -0.145 NA
ATOM      7  H   UNL     1      -0.591  -4.903  -2.023  0.00  0.00    +0.169 HD
ENDROOT
BRANCH   1  12
ATOM      8  C   UNL     1      -1.714   1.225   0.162  0.00  0.00    +0.044 C 
ATOM      9  C   UNL     1      -1.462  -0.261   0.128  0.00  0.00    -0.050 A 
ATOM     10  C   UNL     1      -1.301  -0.905  -1.086  0.00  0.00    +0.004 A 
ATOM     11  C   UNL     1      -1.071  -2.265  -1.123  0.00  0.00    +0.010 A 
ATOM     12  C   UNL     1      -1.002  -2.991   0.066  0.00  0.00    -0.000 A 
ATOM     13  C   UNL     1      -1.165  -2.335   1.287  0.00  0.00    +0.010 A 
ATOM     14  C   UNL     1      -1.389  -0.974   1.311  0.00  0.00    +0.004 A 
ENDBRANCH   1  12
BRANCH   3  15
ATOM     15  C   UNL     1      -0.284  -7.684   1.444  0.00  0.00    +0.049 A 
ATOM     16  C   UNL     1      -0.043  -8.918   0.856  0.00  0.00    +0.026 A 
ATOM     17  C   UNL     1       0.107 -10.041   1.646  0.00  0.00    +0.005 A 
ATOM     18  C   UNL     1       0.017  -9.937   3.022  0.00  0.00    -0.050 A 
ATOM     19  C   UNL     1      -0.223  -8.709   3.611  0.00  0.00    +0.005 A 
ATOM     20  C   UNL     1      -0.369  -7.582   2.826  0.00  0.00    +0.026 A 
ATOM     21  C   UNL     1       0.181 -11.164   3.881  0.00  0.00    +0.044 C 
ENDBRANCH   3  15
BRANCH   6  22
ATOM     22  C   UNL     1      -0.127  -7.376  -2.832  0.00  0.00    +0.256 C 
ATOM     23  O   UNL     1      -0.289  -6.268  -3.305  0.00  0.00    -0.272 OA
BRANCH  22  24
ATOM     24  C   UNL     1       0.115  -8.555  -3.740  0.00  0.00    +0.206 C 
BRANCH  24  25
ATOM     25  N   UNL     1       0.108  -8.106  -5.135  0.00  0.00    -0.286 N 
ATOM     26  C   UNL     1      -1.057  -8.008  -5.805  0.00  0.00    +0.254 C 
ATOM     27  O   UNL     1      -1.055  -7.731  -6.990  0.00  0.00    -0.269 OA
BRANCH  26  28
ATOM     28  C   UNL     1      -2.326  -8.233  -5.107  0.00  0.00    +0.074 A 
ATOM     29  C   UNL     1      -3.610  -8.295  -5.626  0.00  0.00    +0.021 A 
ATOM     30  C   UNL     1      -4.612  -8.522  -4.713  0.00  0.00    +0.008 A 
ATOM     31  C   UNL     1      -4.292  -8.666  -3.404  0.00  0.00    +0.046 A 
ATOM     32  S   UNL     1      -2.619  -8.507  -3.370  0.00  0.00    -0.092 S 
ENDBRANCH  26  28
BRANCH  25  33
ATOM     33  C   UNL     1       1.367  -7.764  -5.800  0.00  0.00    +0.140 C 
BRANCH  33  34
ATOM     34  C   UNL     1       1.944  -9.012  -6.472  0.00  0.00    +0.136 C 
ATOM     35  C   UNL     1       3.295  -8.680  -7.154  0.00  0.00    +0.035 C 
ATOM     36  C   UNL     1       3.969 -10.080  -7.170  0.00  0.00    +0.031 C 
ATOM     37  C   UNL     1       3.450 -10.709  -5.859  0.00  0.00    +0.160 C 
ATOM     38  O   UNL     1       2.253 -10.011  -5.487  0.00  0.00    -0.375 OA
ENDBRANCH  33  34
ENDBRANCH  25  33
ENDBRANCH  24  25
ENDBRANCH  22  24
ENDBRANCH   6  22
TORSDOF 8
