REMARK  Name = ZINC12204254
REMARK  10 active torsions:
REMARK  status: ('A' for Active; 'I' for Inactive)
REMARK    1  A    between atoms: C_1  and  C_2
REMARK    2  A    between atoms: C_2  and  C_3
REMARK    3  A    between atoms: C_2  and  C_4
REMARK    4  A    between atoms: C_4  and  C_5
REMARK    5  A    between atoms: C_5  and  C_6
REMARK    6  A    between atoms: C_6  and  C_13
REMARK    7  A    between atoms: C_18  and  C_19
REMARK    8  A    between atoms: C_18  and  N_61
REMARK    9  A    between atoms: C_23  and  O_25
REMARK   10  A    between atoms: O_25  and  C_26
REMARK                            x       y       z     vdW  Elec       q    Type
REMARK                         _______ _______ _______ _____ _____    ______ ____
ROOT
ATOM      1  C   UNL     1      -2.511  -3.636   4.761  0.00  0.00    +0.018 C 
ATOM      2  C   UNL     1      -2.659  -4.871   3.867  0.00  0.00    -0.013 C 
ATOM      3  C   UNL     1      -2.845  -4.423   2.415  0.00  0.00    -0.078 C 
ATOM      4  C   UNL     1      -1.548  -2.414   2.808  0.00  0.00    -0.078 C 
ATOM      5  C   UNL     1      -1.324  -2.801   4.272  0.00  0.00    -0.013 C 
ATOM      6  N   UNL     1      -1.659  -3.646   1.998  0.00  0.00    +0.382 N 
ATOM      7  H   UNL     1      -0.818  -4.217   2.143  0.00  0.00    -0.081 HD
ENDROOT
BRANCH   1   8
ATOM      8  C   UNL     1      -2.266  -4.078   6.205  0.00  0.00    +0.115 C 
ATOM      9  C   UNL     1      -1.153  -5.105   6.268  0.00  0.00    +0.244 C 
ATOM     10  O   UNL     1       0.002  -4.955   5.933  0.00  0.00    -0.273 OA
ATOM     11  N   UNL     1      -1.715  -6.221   6.772  0.00  0.00    -0.238 N 
ATOM     12  C   UNL     1      -3.015  -6.044   7.035  0.00  0.00    +0.307 C 
ATOM     13  O   UNL     1      -3.736  -6.907   7.495  0.00  0.00    -0.252 OA
ATOM     14  N   UNL     1      -3.436  -4.802   6.731  0.00  0.00    -0.285 N 
ATOM     15  H   UNL     1      -1.237  -7.051   6.926  0.00  0.00    +0.159 HD
ATOM     16  H   UNL     1      -4.334  -4.453   6.838  0.00  0.00    +0.151 HD
BRANCH   8  17
ATOM     17  C   UNL     1      -1.939  -2.871   7.087  0.00  0.00    +0.036 C 
BRANCH  17  18
ATOM     18  C   UNL     1      -1.699  -3.340   8.524  0.00  0.00    +0.005 C 
BRANCH  18  20
ATOM     19  C   UNL     1      -1.255  -2.583  10.864  0.00  0.00    +0.007 C 
ATOM     20  C   UNL     1      -1.372  -2.133   9.406  0.00  0.00    -0.017 C 
ATOM     21  C   UNL     1      -0.047  -1.516   8.955  0.00  0.00    +0.007 C 
ENDBRANCH  18  20
ENDBRANCH  17  18
ENDBRANCH   8  17
ENDBRANCH   1   8
BRANCH   6  22
ATOM     22  C   UNL     1      -1.762  -3.299   0.565  0.00  0.00    -0.043 C 
BRANCH  22  23
ATOM     23  C   UNL     1      -0.697  -2.289   0.224  0.00  0.00    -0.057 A 
ATOM     24  C   UNL     1      -0.974  -0.938   0.315  0.00  0.00    +0.051 A 
ATOM     25  C   UNL     1       0.002  -0.004   0.002  0.00  0.00    +0.170 A 
ATOM     26  C   UNL     1       1.263  -0.430  -0.404  0.00  0.00    +0.208 A 
ATOM     27  C   UNL     1       1.537  -1.789  -0.494  0.00  0.00    +0.166 A 
ATOM     28  C   UNL     1       0.555  -2.716  -0.179  0.00  0.00    +0.051 A 
ATOM     29  O   UNL     1       2.036   0.668  -0.651  0.00  0.00    -0.449 OA
ATOM     30  C   UNL     1       1.366   1.765  -0.002  0.00  0.00    +0.467 C 
ATOM     31  O   UNL     1      -0.016   1.361   0.009  0.00  0.00    -0.452 OA
BRANCH  27  32
ATOM     32  O   UNL     1       2.768  -2.210  -0.890  0.00  0.00    -0.491 OA
ATOM     33  C   UNL     1       2.979  -3.621  -0.960  0.00  0.00    +0.277 C 
ENDBRANCH  27  32
ENDBRANCH  22  23
ENDBRANCH   6  22
TORSDOF 7
