REMARK  Name = ZINC14981946
REMARK  7 active torsions:
REMARK  status: ('A' for Active; 'I' for Inactive)
REMARK    1  A    between atoms: C_1  and  C_2
REMARK    2  A    between atoms: C_2  and  C_3
REMARK    3  A    between atoms: C_6  and  C_10
REMARK    4  A    between atoms: C_7  and  C_9
REMARK    5  A    between atoms: C_10  and  N_11
REMARK    6  A    between atoms: C_15  and  C_28
REMARK    7  A    between atoms: C_20  and  C_23
REMARK                            x       y       z     vdW  Elec       q    Type
REMARK                         _______ _______ _______ _____ _____    ______ ____
ROOT
ATOM      1  N   UNL     1      -0.629   1.714  -0.597  0.00  0.00    -0.289 NA
ATOM      2  C   UNL     1       0.221   1.215   0.489  0.00  0.00    +0.123 C 
ATOM      3  C   UNL     1      -0.247   1.823   1.798  0.00  0.00    +0.009 A 
ATOM      4  C   UNL     1       0.552   2.724   2.471  0.00  0.00    +0.012 A 
ATOM      5  C   UNL     1       0.123   3.252   3.676  0.00  0.00    -0.050 A 
ATOM      6  C   UNL     1      -1.099   2.875   4.202  0.00  0.00    +0.007 A 
ATOM      7  C   UNL     1      -1.911   1.980   3.517  0.00  0.00    +0.046 A 
ATOM      8  C   UNL     1      -1.483   1.458   2.304  0.00  0.00    +0.126 A 
ATOM      9  O   UNL     1      -2.278   0.597   1.614  0.00  0.00    -0.483 OA
ATOM     10  C   UNL     1      -2.831   1.114   0.397  0.00  0.00    +0.218 C 
ATOM     11  C   UNL     1      -1.858   0.939  -0.749  0.00  0.00    +0.134 C 
ATOM     12  C   UNL     1       0.989   4.239   4.416  0.00  0.00    +0.044 C 
ENDROOT
BRANCH  10  13
ATOM     13  C   UNL     1      -4.109   0.380   0.080  0.00  0.00    +0.001 A 
ATOM     14  C   UNL     1      -5.178   1.046  -0.488  0.00  0.00    +0.015 A 
ATOM     15  C   UNL     1      -6.310   0.354  -0.766  0.00  0.00    +0.045 A 
ATOM     16  S   UNL     1      -5.888  -1.287  -0.205  0.00  0.00    -0.105 S 
ATOM     17  C   UNL     1      -4.228  -0.942   0.354  0.00  0.00    +0.052 A 
ENDBRANCH  10  13
BRANCH   1  18
ATOM     18  C   UNL     1       0.114   1.775  -1.862  0.00  0.00    +0.139 C 
BRANCH  18  22
ATOM     19  C   UNL     1       2.831   4.215  -1.708  0.00  0.00    +0.084 A 
ATOM     20  N   UNL     1       2.395   2.938  -1.647  0.00  0.00    -0.346 N 
ATOM     21  H   UNL     1       3.110   2.122  -1.466  0.00  0.00    +0.167 HD
ATOM     22  C   UNL     1       1.041   2.963  -1.843  0.00  0.00    +0.051 A 
ATOM     23  C   UNL     1       0.696   4.252  -2.022  0.00  0.00    +0.035 A 
ATOM     24  N   UNL     1       1.809   4.996  -1.929  0.00  0.00    -0.347 N 
ATOM     25  C   UNL     1      -0.696   4.770  -2.278  0.00  0.00    +0.065 C 
ATOM     26  H   UNL     1       1.954   6.083  -2.008  0.00  0.00    +0.167 HD
BRANCH  19  28
ATOM     27  C   UNL     1       4.676   5.490  -2.766  0.00  0.00    +0.012 C 
ATOM     28  C   UNL     1       4.261   4.664  -1.547  0.00  0.00    +0.069 C 
ENDBRANCH  19  28
ENDBRANCH  18  22
ENDBRANCH   1  18
TORSDOF 4
