REMARK  Name = ZINC02960378
REMARK  6 active torsions:
REMARK  status: ('A' for Active; 'I' for Inactive)
REMARK    1  A    between atoms: C_3  and  C_6
REMARK    2  A    between atoms: C_6  and  N_7
REMARK    3  A    between atoms: C_14  and  N_19
REMARK    4  A    between atoms: C_23  and  S_24
REMARK    5  A    between atoms: S_24  and  C_25
REMARK    6  A    between atoms: C_25  and  C_26
REMARK                            x       y       z     vdW  Elec       q    Type
REMARK                         _______ _______ _______ _____ _____    ______ ____
ROOT
ATOM      1  N   UNL     1       0.197   4.226   0.022  0.00  0.00    -0.279 N 
ATOM      2  C   UNL     1       1.336   3.494   0.008  0.00  0.00    +0.269 A 
ATOM      3  O   UNL     1       2.429   4.036  -0.000  0.00  0.00    -0.266 OA
ATOM      4  C   UNL     1       1.226   2.100   0.002  0.00  0.00    +0.103 A 
ATOM      5  C   UNL     1      -0.018   1.470   0.010  0.00  0.00    +0.094 A 
ATOM      6  C   UNL     1       0.002  -0.004   0.002  0.00  0.00    +0.018 A 
ATOM      7  C   UNL     1      -1.109  -0.878   0.007  0.00  0.00    +0.044 A 
ATOM      8  C   UNL     1      -0.932  -2.227  -0.002  0.00  0.00    +0.127 A 
ATOM      9  C   UNL     1       0.336  -2.791  -0.018  0.00  0.00    +0.034 A 
ATOM     10  C   UNL     1       1.446  -1.969  -0.023  0.00  0.00    +0.018 A 
ATOM     11  C   UNL     1       1.276  -0.598  -0.013  0.00  0.00    +0.022 A 
ATOM     12  S   UNL     1       2.402   0.774  -0.017  0.00  0.00    -0.081 S 
ATOM     13  N   UNL     1      -1.112   2.281   0.019  0.00  0.00    -0.222 NA
ATOM     14  C   UNL     1      -1.007   3.585   0.030  0.00  0.00    +0.174 A 
ENDROOT
BRANCH   8  15
ATOM     15  N   UNL     1      -2.118  -3.113   0.003  0.00  0.00    +0.056 N 
ATOM     16  O   UNL     1      -3.237  -2.632   0.016  0.00  0.00    -0.126 OA
ATOM     17  O   UNL     1      -1.975  -4.322  -0.006  0.00  0.00    -0.126 OA
ENDBRANCH   8  15
BRANCH   1  18
ATOM     18  C   UNL     1       0.258   5.690   0.029  0.00  0.00    +0.201 C 
BRANCH  18  21
ATOM     19  C   UNL     1      -0.357   6.941  -3.383  0.00  0.00    +0.041 A 
ATOM     20  C   UNL     1      -0.822   6.504  -2.122  0.00  0.00    +0.046 A 
ATOM     21  C   UNL     1       0.265   6.199  -1.390  0.00  0.00    +0.125 A 
ATOM     22  O   UNL     1       1.357   6.419  -2.140  0.00  0.00    -0.466 OA
ATOM     23  C   UNL     1       0.986   6.869  -3.350  0.00  0.00    +0.195 A 
ENDBRANCH  18  21
ENDBRANCH   1  18
BRANCH  14  24
ATOM     24  S   UNL     1      -2.480   4.551   0.049  0.00  0.00    -0.073 S 
BRANCH  24  25
ATOM     25  C   UNL     1      -3.721   3.234   0.054  0.00  0.00    +0.195 C 
BRANCH  25  26
ATOM     26  C   UNL     1      -5.067   3.828   0.070  0.00  0.00    +0.074 C 
ATOM     27  N   UNL     1      -6.107   4.286   0.082  0.00  0.00    -0.196 NA
ENDBRANCH  25  26
ENDBRANCH  24  25
ENDBRANCH  14  24
TORSDOF 6
