REMARK  Name = ZINC56937582
REMARK  7 active torsions:
REMARK  status: ('A' for Active; 'I' for Inactive)
REMARK    1  A    between atoms: C_1  and  C_2
REMARK    2  A    between atoms: C_3  and  N_16
REMARK    3  A    between atoms: C_4  and  C_15
REMARK    4  A    between atoms: N_5  and  C_7
REMARK    5  A    between atoms: N_19  and  S_22
REMARK    6  A    between atoms: S_22  and  C_25
REMARK    7  A    between atoms: C_29  and  N_31
REMARK                            x       y       z     vdW  Elec       q    Type
REMARK                         _______ _______ _______ _____ _____    ______ ____
ROOT
ATOM      1  N   UNL     1      -0.005  -0.373  -2.475  0.00  0.00    -0.325 N 
ATOM      2  C   UNL     1      -1.276  -0.148  -3.177  0.00  0.00    +0.122 C 
ATOM      3  C   UNL     1      -1.293   1.289  -3.712  0.00  0.00    +0.128 C 
ATOM      4  N   UNL     1      -0.034   1.537  -4.430  0.00  0.00    -0.174 NA
ATOM      5  C   UNL     1       1.237   1.312  -3.728  0.00  0.00    +0.128 C 
ATOM      6  C   UNL     1       1.254  -0.120  -3.191  0.00  0.00    +0.122 C 
ENDROOT
BRANCH   1   9
ATOM      7  C   UNL     1      -0.018   1.503   0.010  0.00  0.00    +0.069 C 
ATOM      8  C   UNL     1       0.002  -0.004   0.002  0.00  0.00    +0.081 A 
ATOM      9  C   UNL     1       0.008  -0.818  -1.139  0.00  0.00    +0.074 A 
ATOM     10  C   UNL     1       0.027  -2.111  -0.728  0.00  0.00    +0.058 A 
ATOM     11  N   UNL     1       0.034  -2.109   0.631  0.00  0.00    -0.262 N 
ATOM     12  N   UNL     1       0.023  -0.775   1.059  0.00  0.00    -0.174 NA
ATOM     13  C   UNL     1       0.040  -3.329  -1.617  0.00  0.00    +0.067 C 
BRANCH  11  14
ATOM     14  C   UNL     1       0.053  -3.292   1.496  0.00  0.00    +0.130 C 
ATOM     15  C   UNL     1      -1.179  -3.284   2.416  0.00  0.00    +0.051 C 
ATOM     16  C   UNL     1      -1.007  -4.337   3.537  0.00  0.00    +0.168 C 
ATOM     17  S   UNL     1       0.820  -4.430   3.728  0.00  0.00    -0.029 S 
ATOM     18  O   UNL     1       1.183  -3.874   4.984  0.00  0.00    -0.174 OA
ATOM     19  O   UNL     1       1.254  -5.740   3.391  0.00  0.00    -0.174 OA
ATOM     20  C   UNL     1       1.326  -3.268   2.390  0.00  0.00    +0.192 C 
ENDBRANCH  11  14
ENDBRANCH   1   9
BRANCH   4  21
ATOM     21  S   UNL     1      -0.049   2.060  -6.001  0.00  0.00    +0.061 S 
ATOM     22  O   UNL     1       1.196   1.678  -6.568  0.00  0.00    -0.153 OA
ATOM     23  O   UNL     1      -1.294   1.655  -6.553  0.00  0.00    -0.153 OA
BRANCH  21  24
ATOM     24  C   UNL     1      -0.065   3.822  -5.963  0.00  0.00    +0.108 A 
ATOM     25  C   UNL     1      -1.268   4.502  -5.935  0.00  0.00    +0.028 A 
ATOM     26  C   UNL     1      -1.281   5.884  -5.905  0.00  0.00    +0.004 A 
ATOM     27  C   UNL     1      -0.090   6.586  -5.903  0.00  0.00    +0.033 A 
ATOM     28  C   UNL     1       1.113   5.906  -5.930  0.00  0.00    +0.128 A 
ATOM     29  C   UNL     1       1.126   4.524  -5.956  0.00  0.00    +0.061 A 
BRANCH  28  30
ATOM     30  N   UNL     1       2.388   6.658  -5.929  0.00  0.00    +0.056 N 
ATOM     31  O   UNL     1       2.377   7.867  -5.904  0.00  0.00    -0.126 OA
ATOM     32  O   UNL     1       3.441   6.063  -5.952  0.00  0.00    -0.126 OA
ENDBRANCH  28  30
ENDBRANCH  21  24
ENDBRANCH   4  21
TORSDOF 5
