REMARK  Name = ZINC08867348
REMARK  8 active torsions:
REMARK  status: ('A' for Active; 'I' for Inactive)
REMARK    1  A    between atoms: C_1  and  C_2
REMARK    2  A    between atoms: C_2  and  S_3
REMARK    3  A    between atoms: S_3  and  C_6
REMARK    4  A    between atoms: C_10  and  C_12
REMARK    5  A    between atoms: N_14  and  C_15
REMARK    6  A    between atoms: C_16  and  C_23
REMARK    7  A    between atoms: N_25  and  C_26
REMARK    8  A    between atoms: C_26  and  C_27
REMARK                            x       y       z     vdW  Elec       q    Type
REMARK                         _______ _______ _______ _____ _____    ______ ____
ROOT
ATOM      1  C   UNL     1       4.966  -4.951   1.180  0.00  0.00    +0.085 A 
ATOM      2  C   UNL     1       6.095  -4.406   1.768  0.00  0.00    +0.069 A 
ATOM      3  C   UNL     1       7.048  -5.327   2.385  0.00  0.00    -0.023 A 
ATOM      4  C   UNL     1       6.720  -6.629   2.303  0.00  0.00    -0.004 A 
ATOM      5  S   UNL     1       5.174  -6.651   1.430  0.00  0.00    -0.077 S 
ATOM      6  C   UNL     1       7.749  -7.512   2.956  0.00  0.00    +0.043 C 
ATOM      7  C   UNL     1       8.570  -6.557   3.850  0.00  0.00    +0.010 C 
ATOM      8  C   UNL     1       8.381  -5.209   3.127  0.00  0.00    +0.037 C 
ENDROOT
BRANCH   1  11
ATOM      9  C   UNL     1       2.904  -5.002   0.018  0.00  0.00    +0.269 C 
ATOM     10  O   UNL     1       2.895  -6.214   0.108  0.00  0.00    -0.268 OA
ATOM     11  N   UNL     1       3.926  -4.296   0.541  0.00  0.00    -0.274 N 
ATOM     12  H   UNL     1       3.934  -3.328   0.469  0.00  0.00    +0.156 HD
BRANCH   9  17
ATOM     13  C   UNL     1       0.806  -2.347  -1.378  0.00  0.00    +0.271 A 
ATOM     14  N   UNL     1      -0.215  -2.996  -1.904  0.00  0.00    -0.219 NA
ATOM     15  C   UNL     1      -0.290  -4.314  -1.843  0.00  0.00    +0.136 A 
ATOM     16  C   UNL     1       0.726  -5.021  -1.212  0.00  0.00    +0.090 A 
ATOM     17  C   UNL     1       1.792  -4.300  -0.666  0.00  0.00    +0.149 A 
ATOM     18  N   UNL     1       1.793  -2.973  -0.776  0.00  0.00    -0.206 NA
ATOM     19 CL   UNL     1       0.674  -6.752  -1.104  0.00  0.00    -0.080 Cl
BRANCH  13  20
ATOM     20  S   UNL     1       0.851  -0.589  -1.490  0.00  0.00    +0.032 S 
ATOM     21  O   UNL     1       0.082  -0.280  -2.644  0.00  0.00    -0.166 OA
ATOM     22  O   UNL     1       2.232  -0.257  -1.430  0.00  0.00    -0.166 OA
BRANCH  20  24
ATOM     23  C   UNL     1      -0.019   1.526   0.010  0.00  0.00    +0.028 C 
ATOM     24  C   UNL     1       0.002  -0.004   0.002  0.00  0.00    +0.172 C 
ENDBRANCH  20  24
ENDBRANCH  13  20
ENDBRANCH   9  17
ENDBRANCH   1  11
BRANCH   2  25
ATOM     25  C   UNL     1       6.323  -2.958   1.776  0.00  0.00    +0.247 C 
ATOM     26  O   UNL     1       5.903  -2.280   2.696  0.00  0.00    -0.270 OA
ATOM     27  N   UNL     1       6.998  -2.376   0.765  0.00  0.00    -0.304 N 
ATOM     28  H   UNL     1       7.332  -2.916   0.032  0.00  0.00    +0.149 HD
BRANCH  27  29
ATOM     29  C   UNL     1       7.226  -0.929   0.773  0.00  0.00    +0.179 C 
BRANCH  29  30
ATOM     30  C   UNL     1       7.998  -0.535  -0.460  0.00  0.00    +0.122 A 
ATOM     31  C   UNL     1       7.464  -0.179  -1.642  0.00  0.00    +0.046 A 
ATOM     32  C   UNL     1       8.543   0.106  -2.510  0.00  0.00    +0.041 A 
ATOM     33  C   UNL     1       9.672  -0.092  -1.806  0.00  0.00    +0.195 A 
ATOM     34  O   UNL     1       9.335  -0.475  -0.564  0.00  0.00    -0.466 OA
ENDBRANCH  29  30
ENDBRANCH  27  29
ENDBRANCH   2  25
TORSDOF 7
