REMARK  Name = ZINC09453005
REMARK  14 active torsions:
REMARK  status: ('A' for Active; 'I' for Inactive)
REMARK    1  A    between atoms: C_1  and  C_2
REMARK    2  A    between atoms: C_5  and  S_8
REMARK    3  A    between atoms: S_8  and  N_11
REMARK    4  A    between atoms: C_14  and  C_17
REMARK    5  A    between atoms: N_19  and  C_20
REMARK    6  A    between atoms: C_20  and  C_22
REMARK    7  A    between atoms: C_20  and  C_26
REMARK    8  A    between atoms: C_22  and  C_24
REMARK    9  A    between atoms: C_22  and  C_25
REMARK   10  A    between atoms: N_28  and  C_29
REMARK   11  A    between atoms: C_29  and  C_31
REMARK   12  A    between atoms: C_29  and  C_32
REMARK   13  A    between atoms: C_32  and  C_33
REMARK   14  A    between atoms: C_33  and  C_34
REMARK                            x       y       z     vdW  Elec       q    Type
REMARK                         _______ _______ _______ _____ _____    ______ ____
ROOT
ATOM      1  C   UNL     1      10.444  -0.853   1.651  0.00  0.00    +0.217 C 
ATOM      2  O   UNL     1      10.485   0.314   1.982  0.00  0.00    -0.275 OA
ATOM      3  N   UNL     1       9.523  -1.268   0.759  0.00  0.00    -0.304 N 
ATOM      4  H   UNL     1       9.491  -2.201   0.494  0.00  0.00    +0.149 HD
ENDROOT
BRANCH   1   8
ATOM      5  N   UNL     1      12.639  -3.242   4.370  0.00  0.00    -0.177 NA
ATOM      6  C   UNL     1      13.366  -2.108   3.783  0.00  0.00    +0.110 C 
ATOM      7  C   UNL     1      12.351  -1.112   3.215  0.00  0.00    +0.030 C 
ATOM      8  C   UNL     1      11.423  -1.837   2.238  0.00  0.00    +0.077 C 
ATOM      9  C   UNL     1      10.658  -2.936   2.978  0.00  0.00    +0.030 C 
ATOM     10  C   UNL     1      11.654  -3.954   3.544  0.00  0.00    +0.110 C 
BRANCH   5  11
ATOM     11  S   UNL     1      12.924  -3.709   5.933  0.00  0.00    +0.061 S 
ATOM     12  O   UNL     1      12.544  -5.076   6.024  0.00  0.00    -0.153 OA
ATOM     13  O   UNL     1      14.231  -3.259   6.260  0.00  0.00    -0.153 OA
BRANCH  11  18
ATOM     14  C   UNL     1       9.108  -0.623   9.443  0.00  0.00    +0.044 C 
ATOM     15  C   UNL     1      10.061  -1.394   8.566  0.00  0.00    -0.050 A 
ATOM     16  C   UNL     1       9.687  -2.621   8.050  0.00  0.00    +0.005 A 
ATOM     17  C   UNL     1      10.562  -3.328   7.246  0.00  0.00    +0.029 A 
ATOM     18  C   UNL     1      11.809  -2.808   6.958  0.00  0.00    +0.105 A 
ATOM     19  C   UNL     1      12.185  -1.583   7.478  0.00  0.00    +0.029 A 
ATOM     20  C   UNL     1      11.309  -0.874   8.278  0.00  0.00    +0.005 A 
ENDBRANCH  11  18
ENDBRANCH   5  11
ENDBRANCH   1   8
BRANCH   3  21
ATOM     21  C   UNL     1       8.572  -0.311   0.189  0.00  0.00    +0.161 C 
BRANCH  21  22
ATOM     22  C   UNL     1       7.329  -1.041  -0.254  0.00  0.00    +0.234 C 
ATOM     23  O   UNL     1       7.362  -2.240  -0.432  0.00  0.00    -0.274 OA
ATOM     24  N   UNL     1       6.183  -0.361  -0.451  0.00  0.00    -0.311 N 
ATOM     25  H   UNL     1       6.137   0.585  -0.240  0.00  0.00    +0.149 HD
BRANCH  24  26
ATOM     26  C   UNL     1       5.005  -1.050  -0.984  0.00  0.00    +0.070 C 
ATOM     27  C   UNL     1       5.079  -1.079  -2.512  0.00  0.00    +0.028 C 
BRANCH  26  28
ATOM     28  C   UNL     1       3.740  -0.308  -0.549  0.00  0.00    +0.026 C 
BRANCH  28  29
ATOM     29  C   UNL     1       3.600  -0.386   0.973  0.00  0.00    +0.037 C 
BRANCH  29  30
ATOM     30  C   UNL     1       2.354   0.345   1.402  0.00  0.00    -0.047 A 
ATOM     31  C   UNL     1       1.152  -0.331   1.489  0.00  0.00    +0.003 A 
ATOM     32  C   UNL     1       0.009   0.339   1.882  0.00  0.00    +0.000 A 
ATOM     33  C   UNL     1       0.068   1.686   2.188  0.00  0.00    +0.000 A 
ATOM     34  C   UNL     1       1.270   2.362   2.101  0.00  0.00    +0.000 A 
ATOM     35  C   UNL     1       2.414   1.692   1.708  0.00  0.00    +0.003 A 
ENDBRANCH  29  30
ENDBRANCH  28  29
ENDBRANCH  26  28
ENDBRANCH  24  26
ENDBRANCH  21  22
BRANCH  21  36
ATOM     36  C   UNL     1       9.209   0.387  -1.015  0.00  0.00    +0.012 C 
ATOM     37  C   UNL     1      10.430   1.185  -0.553  0.00  0.00    +0.009 C 
ATOM     38  C   UNL     1       9.643  -0.662  -2.041  0.00  0.00    +0.009 C 
ENDBRANCH  21  36
ENDBRANCH   3  21
TORSDOF 10
