REMARK  Name = ZINC17122466
REMARK  5 active torsions:
REMARK  status: ('A' for Active; 'I' for Inactive)
REMARK    1  A    between atoms: C_1  and  O_2
REMARK    2  A    between atoms: O_2  and  C_3
REMARK    3  A    between atoms: C_7  and  C_10
REMARK    4  A    between atoms: C_8  and  O_9
REMARK    5  A    between atoms: C_16  and  N_22
REMARK                            x       y       z     vdW  Elec       q    Type
REMARK                         _______ _______ _______ _____ _____    ______ ____
ROOT
ATOM      1  C   UNL     1       1.615  -0.345  -0.767  0.00  0.00    +0.172 C 
ATOM      2  N   UNL     1       2.646   0.541  -0.254  0.00  0.00    -0.295 N 
ATOM      3  C   UNL     1       2.540   1.851  -0.005  0.00  0.00    +0.251 C 
ATOM      4  O   UNL     1       3.547   2.496   0.220  0.00  0.00    -0.270 OA
ATOM      5  C   UNL     1       1.245   2.524   0.004  0.00  0.00    +0.109 A 
ATOM      6  C   UNL     1       0.888   3.854   0.010  0.00  0.00    +0.125 A 
ATOM      7  N   UNL     1      -0.463   3.909   0.023  0.00  0.00    -0.263 N 
ATOM      8  H   UNL     1      -0.974   4.883   0.034  0.00  0.00    +0.190 HD
ATOM      9  N   UNL     1      -0.991   2.608   0.020  0.00  0.00    -0.165 NA
ATOM     10  C   UNL     1      -0.022   1.761   0.012  0.00  0.00    +0.135 A 
ATOM     11  S   UNL     1       0.002  -0.004   0.002  0.00  0.00    -0.076 S 
ATOM     12  H   UNL     1       3.647   0.146  -0.025  0.00  0.00    +0.150 HD
ENDROOT
BRANCH   1  17
ATOM     13  C   UNL     1       1.750  -4.126  -0.894  0.00  0.00    +0.162 A 
ATOM     14  C   UNL     1       2.728  -4.395   0.049  0.00  0.00    +0.049 A 
ATOM     15  C   UNL     1       3.341  -3.356   0.724  0.00  0.00    +0.004 A 
ATOM     16  C   UNL     1       2.985  -2.047   0.455  0.00  0.00    +0.010 A 
ATOM     17  C   UNL     1       2.006  -1.773  -0.481  0.00  0.00    +0.028 A 
ATOM     18  C   UNL     1       1.387  -2.810  -1.161  0.00  0.00    +0.164 A 
BRANCH  13  20
ATOM     19  C   UNL     1       1.568  -6.473  -1.234  0.00  0.00    +0.277 C 
ATOM     20  O   UNL     1       1.145  -5.147  -1.558  0.00  0.00    -0.491 OA
ENDBRANCH  13  20
BRANCH  18  21
ATOM     21  O   UNL     1       0.428  -2.541  -2.087  0.00  0.00    -0.503 OA
ATOM     22  H   UNL     1       0.142  -1.500  -2.296  0.00  0.00    +0.292 HD
ENDBRANCH  18  21
ENDBRANCH   1  17
BRANCH   6  23
ATOM     23  N   UNL     1       1.749   4.933   0.003  0.00  0.00    -0.343 N 
ATOM     24  H   UNL     1       1.349   5.957   0.009  0.00  0.00    +0.144 HD
ATOM     25  H   UNL     1       2.837   4.768  -0.008  0.00  0.00    +0.144 HD
ENDBRANCH   6  23
TORSDOF 4
