REMARK  Name = ZINC12702012
REMARK  10 active torsions:
REMARK  status: ('A' for Active; 'I' for Inactive)
REMARK    1  A    between atoms: C_1  and  C_2
REMARK    2  A    between atoms: C_5  and  C_8
REMARK    3  A    between atoms: C_8  and  C_10
REMARK    4  A    between atoms: C_8  and  N_18
REMARK    5  A    between atoms: N_12  and  C_13
REMARK    6  A    between atoms: N_18  and  C_19
REMARK    7  A    between atoms: C_19  and  C_20
REMARK    8  A    between atoms: C_26  and  C_28
REMARK    9  A    between atoms: C_29  and  N_36
REMARK   10  A    between atoms: C_30  and  C_33
REMARK                            x       y       z     vdW  Elec       q    Type
REMARK                         _______ _______ _______ _____ _____    ______ ____
ROOT
ATOM      1  N   UNL     1       4.196  -0.102  -2.340  0.00  0.00    -0.277 N 
ATOM      2  C   UNL     1       4.779  -0.301  -1.142  0.00  0.00    +0.258 C 
ATOM      3  O   UNL     1       5.106  -1.424  -0.803  0.00  0.00    -0.269 OA
ENDROOT
BRANCH   2   4
ATOM      4  C   UNL     1       5.020   0.833  -0.247  0.00  0.00    +0.115 A 
ATOM      5  C   UNL     1       6.195   1.554  -0.028  0.00  0.00    +0.076 A 
ATOM      6  C   UNL     1       6.029   2.574   0.909  0.00  0.00    +0.155 A 
ATOM      7  N   UNL     1       4.851   2.751   1.465  0.00  0.00    -0.203 NA
ATOM      8  S   UNL     1       3.889   1.666   0.848  0.00  0.00    +0.019 S 
BRANCH   6   9
ATOM      9  C   UNL     1       7.163   3.444   1.271  0.00  0.00    +0.262 C 
ATOM     10  O   UNL     1       8.250   3.274   0.753  0.00  0.00    -0.269 OA
ATOM     11  N   UNL     1       6.995   4.428   2.177  0.00  0.00    -0.324 N 
ATOM     12  H   UNL     1       6.128   4.563   2.590  0.00  0.00    +0.145 HD
ATOM     13  H   UNL     1       7.741   5.000   2.415  0.00  0.00    +0.145 HD
ENDBRANCH   6   9
BRANCH   5  14
ATOM     14  N   UNL     1       7.396   1.284  -0.671  0.00  0.00    -0.355 N 
ATOM     15  H   UNL     1       7.450   0.560  -1.313  0.00  0.00    +0.142 HD
ATOM     16  H   UNL     1       8.181   1.821  -0.477  0.00  0.00    +0.142 HD
ENDBRANCH   5  14
ENDBRANCH   2   4
BRANCH   1  17
ATOM     17  C   UNL     1       3.713  -1.244  -3.119  0.00  0.00    +0.193 C 
BRANCH  17  22
ATOM     18  C   UNL     1      -0.683  -3.756  -0.334  0.00  0.00    +0.044 C 
ATOM     19  C   UNL     1       0.463  -3.101  -1.060  0.00  0.00    -0.050 A 
ATOM     20  C   UNL     1       1.359  -3.873  -1.777  0.00  0.00    +0.004 A 
ATOM     21  C   UNL     1       2.410  -3.272  -2.444  0.00  0.00    +0.006 A 
ATOM     22  C   UNL     1       2.567  -1.899  -2.393  0.00  0.00    -0.018 A 
ATOM     23  C   UNL     1       1.674  -1.128  -1.672  0.00  0.00    +0.006 A 
ATOM     24  C   UNL     1       0.620  -1.728  -1.010  0.00  0.00    +0.004 A 
ENDBRANCH  17  22
BRANCH  17  25
ATOM     25  C   UNL     1       3.246  -0.769  -4.471  0.00  0.00    +0.238 C 
ATOM     26  O   UNL     1       3.616   0.304  -4.898  0.00  0.00    -0.273 OA
ATOM     27  N   UNL     1       2.417  -1.537  -5.206  0.00  0.00    -0.311 N 
ATOM     28  H   UNL     1       2.121  -2.396  -4.864  0.00  0.00    +0.149 HD
BRANCH  27  29
ATOM     29  C   UNL     1       1.963  -1.076  -6.520  0.00  0.00    +0.073 C 
ATOM     30  C   UNL     1       0.687  -0.223  -6.369  0.00  0.00    +0.022 C 
ATOM     31  C   UNL     1      -0.169  -0.598  -7.604  0.00  0.00    +0.002 C 
ATOM     32  C   UNL     1       0.092  -2.117  -7.753  0.00  0.00    +0.002 C 
ATOM     33  C   UNL     1       1.585  -2.280  -7.400  0.00  0.00    +0.022 C 
ENDBRANCH  27  29
ENDBRANCH  17  25
ENDBRANCH   1  17
BRANCH   1  34
ATOM     34  C   UNL     1       4.044   1.258  -2.864  0.00  0.00    +0.144 C 
BRANCH  34  35
ATOM     35  C   UNL     1       5.370   1.745  -3.390  0.00  0.00    -0.030 A 
ATOM     36  C   UNL     1       5.907   1.186  -4.534  0.00  0.00    +0.005 A 
ATOM     37  C   UNL     1       7.123   1.632  -5.016  0.00  0.00    +0.000 A 
ATOM     38  C   UNL     1       7.803   2.638  -4.354  0.00  0.00    +0.000 A 
ATOM     39  C   UNL     1       7.266   3.197  -3.209  0.00  0.00    +0.000 A 
ATOM     40  C   UNL     1       6.049   2.750  -2.727  0.00  0.00    +0.005 A 
ENDBRANCH  34  35
ENDBRANCH   1  34
TORSDOF 9
