REMARK  Name = ZINC09382674
REMARK  11 active torsions:
REMARK  status: ('A' for Active; 'I' for Inactive)
REMARK    1  A    between atoms: C_1  and  C_2
REMARK    2  A    between atoms: C_5  and  S_8
REMARK    3  A    between atoms: S_8  and  N_11
REMARK    4  A    between atoms: N_11  and  C_12
REMARK    5  A    between atoms: C_12  and  C_14
REMARK    6  A    between atoms: C_12  and  C_15
REMARK    7  A    between atoms: C_15  and  C_17
REMARK    8  A    between atoms: C_15  and  N_64
REMARK    9  A    between atoms: N_24  and  C_27
REMARK   10  A    between atoms: C_30  and  O_33
REMARK   11  A    between atoms: O_33  and  C_34
REMARK                            x       y       z     vdW  Elec       q    Type
REMARK                         _______ _______ _______ _____ _____    ______ ____
ROOT
ATOM      1  C   UNL     1       2.288   0.952   0.825  0.00  0.00    -0.012 C 
ENDROOT
BRANCH   1   7
ATOM      2  C   UNL     1       4.475  -0.052   0.547  0.00  0.00    -0.059 C 
ATOM      3  C   UNL     1       5.910   0.222   0.093  0.00  0.00    +0.086 C 
ATOM      4  N   UNL     1       6.499   1.266   0.943  0.00  0.00    -0.333 N 
ATOM      5  C   UNL     1       5.718   2.509   0.864  0.00  0.00    +0.086 C 
ATOM      6  C   UNL     1       4.282   2.234   1.318  0.00  0.00    -0.059 C 
ATOM      7  N   UNL     1       3.695   1.199   0.442  0.00  0.00    +0.388 N 
ATOM      8  H   UNL     1       3.723   1.530  -0.530  0.00  0.00    -0.081 HD
BRANCH   4   9
ATOM      9  C   UNL     1       7.838   1.494   0.603  0.00  0.00    +0.030 A 
ATOM     10  C   UNL     1       8.257   2.769   0.248  0.00  0.00    +0.027 A 
ATOM     11  C   UNL     1       9.580   2.994  -0.081  0.00  0.00    +0.047 A 
ATOM     12  C   UNL     1      10.486   1.944  -0.069  0.00  0.00    +0.120 A 
ATOM     13  C   UNL     1      10.066   0.668   0.280  0.00  0.00    +0.047 A 
ATOM     14  C   UNL     1       8.745   0.443   0.615  0.00  0.00    +0.027 A 
BRANCH  12  15
ATOM     15  O   UNL     1      11.786   2.164  -0.399  0.00  0.00    -0.495 OA
ATOM     16  C   UNL     1      12.149   3.502  -0.749  0.00  0.00    +0.277 C 
ENDBRANCH  12  15
ENDBRANCH   4   9
ENDBRANCH   1   7
BRANCH   1  17
ATOM     17  C   UNL     1       2.205   0.479   2.253  0.00  0.00    -0.022 A 
ATOM     18  C   UNL     1       1.685  -0.672   2.743  0.00  0.00    +0.009 A 
ATOM     19  C   UNL     1       1.722  -0.899   4.106  0.00  0.00    +0.008 A 
ATOM     20  C   UNL     1       2.268   0.043   4.914  0.00  0.00    +0.045 A 
ATOM     21  S   UNL     1       2.761   1.295   3.741  0.00  0.00    -0.103 S 
ENDBRANCH   1  17
BRANCH   1  22
ATOM     22  C   UNL     1       1.495   2.251   0.670  0.00  0.00    +0.065 C 
ATOM     23  C   UNL     1       1.672   2.790  -0.751  0.00  0.00    +0.024 C 
BRANCH  22  24
ATOM     24  N   UNL     1       0.075   1.989   0.920  0.00  0.00    -0.188 NA
ATOM     25  H   UNL     1      -0.317   1.144   0.650  0.00  0.00    +0.148 HD
BRANCH  24  26
ATOM     26  S   UNL     1      -0.861   3.138   1.657  0.00  0.00    +0.059 S 
ATOM     27  O   UNL     1      -2.177   2.607   1.726  0.00  0.00    -0.153 OA
ATOM     28  O   UNL     1      -0.150   3.563   2.812  0.00  0.00    -0.153 OA
BRANCH  26  33
ATOM     29  C   UNL     1      -1.113   7.887  -2.057  0.00  0.00    +0.044 C 
ATOM     30  C   UNL     1      -1.050   6.701  -1.129  0.00  0.00    -0.050 A 
ATOM     31  C   UNL     1      -1.995   5.697  -1.226  0.00  0.00    +0.005 A 
ATOM     32  C   UNL     1      -1.938   4.609  -0.374  0.00  0.00    +0.029 A 
ATOM     33  C   UNL     1      -0.934   4.525   0.573  0.00  0.00    +0.105 A 
ATOM     34  C   UNL     1       0.008   5.531   0.672  0.00  0.00    +0.029 A 
ATOM     35  C   UNL     1      -0.047   6.617  -0.181  0.00  0.00    +0.005 A 
ENDBRANCH  26  33
ENDBRANCH  24  26
ENDBRANCH  22  24
ENDBRANCH   1  22
TORSDOF 8
