REMARK  Name = ZINC01056560
REMARK  5 active torsions:
REMARK  status: ('A' for Active; 'I' for Inactive)
REMARK    1  A    between atoms: C_3  and  N_29
REMARK    2  A    between atoms: C_6  and  C_7
REMARK    3  A    between atoms: C_9  and  C_27
REMARK    4  A    between atoms: C_10  and  N_26
REMARK    5  A    between atoms: N_11  and  C_19
REMARK                            x       y       z     vdW  Elec       q    Type
REMARK                         _______ _______ _______ _____ _____    ______ ____
ROOT
ATOM      1  C   UNL     1      -2.615   3.912   0.348  0.00  0.00    +0.097 C 
ATOM      2  C   UNL     1      -2.974   3.309  -0.978  0.00  0.00    +0.077 C 
ATOM      3  C   UNL     1      -3.983   2.406  -1.089  0.00  0.00    +0.107 C 
ATOM      4  N   UNL     1      -4.701   2.033   0.025  0.00  0.00    -0.260 N 
ATOM      5  C   UNL     1      -4.701   2.818   1.148  0.00  0.00    +0.024 C 
ATOM      6  C   UNL     1      -3.732   3.737   1.346  0.00  0.00    +0.025 C 
ATOM      7  C   UNL     1      -3.735   4.558   2.487  0.00  0.00    +0.162 C 
ATOM      8  O   UNL     1      -2.842   5.368   2.640  0.00  0.00    -0.292 OA
ATOM      9  C   UNL     1      -4.821   4.454   3.522  0.00  0.00    +0.080 C 
ATOM     10  C   UNL     1      -6.106   3.963   2.847  0.00  0.00    +0.014 C 
ATOM     11  C   UNL     1      -5.812   2.631   2.153  0.00  0.00    +0.052 C 
ENDROOT
BRANCH   4  12
ATOM     12  C   UNL     1      -5.437   0.843   0.010  0.00  0.00    +0.040 A 
ATOM     13  C   UNL     1      -6.738   0.835  -0.477  0.00  0.00    +0.025 A 
ATOM     14  C   UNL     1      -7.460  -0.342  -0.495  0.00  0.00    +0.017 A 
ATOM     15  C   UNL     1      -6.892  -1.511  -0.020  0.00  0.00    +0.018 A 
ATOM     16  C   UNL     1      -5.598  -1.505   0.471  0.00  0.00    +0.017 A 
ATOM     17  C   UNL     1      -4.870  -0.332   0.486  0.00  0.00    +0.025 A 
ATOM     18 BR   UNL     1      -7.887  -3.119  -0.040  0.00  0.00    -0.050 Br
ENDBRANCH   4  12
BRANCH   1  24
ATOM     19  C   UNL     1      -1.377   1.885   1.138  0.00  0.00    +0.007 A 
ATOM     20  C   UNL     1      -0.238   1.272   1.625  0.00  0.00    +0.033 A 
ATOM     21  C   UNL     1       0.909   2.014   1.840  0.00  0.00    +0.126 A 
ATOM     22  C   UNL     1       0.914   3.370   1.573  0.00  0.00    +0.033 A 
ATOM     23  C   UNL     1      -0.226   3.985   1.091  0.00  0.00    +0.007 A 
ATOM     24  C   UNL     1      -1.372   3.243   0.875  0.00  0.00    -0.035 A 
BRANCH  21  25
ATOM     25  N   UNL     1       2.130   1.356   2.357  0.00  0.00    +0.056 N 
ATOM     26  O   UNL     1       2.125   0.161   2.592  0.00  0.00    -0.126 OA
ATOM     27  O   UNL     1       3.140   2.010   2.546  0.00  0.00    -0.126 OA
ENDBRANCH  21  25
ENDBRANCH   1  24
BRANCH   3  28
ATOM     28  N   UNL     1      -4.288   1.865  -2.314  0.00  0.00    -0.345 N 
ATOM     29  H   UNL     1      -5.062   1.288  -2.411  0.00  0.00    +0.144 HD
ATOM     30  H   UNL     1      -3.728   2.058  -3.083  0.00  0.00    +0.144 HD
ENDBRANCH   3  28
BRANCH   2  31
ATOM     31  C   UNL     1      -2.242   3.693  -2.147  0.00  0.00    +0.099 C 
ATOM     32  N   UNL     1      -1.661   3.998  -3.075  0.00  0.00    -0.191 NA
ENDBRANCH   2  31
TORSDOF 5
