REMARK  Name = ZINC10153535
REMARK  11 active torsions:
REMARK  status: ('A' for Active; 'I' for Inactive)
REMARK    1  A    between atoms: C_1  and  C_2
REMARK    2  A    between atoms: C_5  and  O_9
REMARK    3  A    between atoms: C_7  and  C_8
REMARK    4  A    between atoms: O_9  and  C_10
REMARK    5  A    between atoms: C_10  and  C_12
REMARK    6  A    between atoms: C_10  and  C_13
REMARK    7  A    between atoms: N_15  and  N_16
REMARK    8  A    between atoms: C_17  and  C_19
REMARK    9  A    between atoms: C_22  and  O_26
REMARK   10  A    between atoms: O_26  and  C_27
REMARK   11  A    between atoms: C_27  and  C_28
REMARK                            x       y       z     vdW  Elec       q    Type
REMARK                         _______ _______ _______ _____ _____    ______ ____
ROOT
ATOM      1  N   UNL     1       2.611  -1.068   5.862  0.00  0.00    -0.230 N 
ATOM      2  C   UNL     1       1.417  -0.458   5.720  0.00  0.00    +0.260 C 
ATOM      3  O   UNL     1       0.735  -0.222   6.698  0.00  0.00    -0.269 OA
ATOM      4  H   UNL     1       3.155  -1.257   5.081  0.00  0.00    +0.173 HD
ENDROOT
BRANCH   2   5
ATOM      5  C   UNL     1       0.939  -0.077   4.377  0.00  0.00    +0.039 A 
ATOM      6  C   UNL     1       1.721  -0.347   3.251  0.00  0.00    +0.017 A 
ATOM      7  C   UNL     1       1.269   0.006   1.999  0.00  0.00    +0.047 A 
ATOM      8  C   UNL     1       0.041   0.640   1.855  0.00  0.00    +0.135 A 
ATOM      9  C   UNL     1      -0.741   0.911   2.972  0.00  0.00    +0.060 A 
ATOM     10  C   UNL     1      -0.298   0.556   4.228  0.00  0.00    +0.032 A 
ATOM     11 BR   UNL     1      -2.415   1.766   2.768  0.00  0.00    -0.046 Br
BRANCH   8  12
ATOM     12  O   UNL     1      -0.399   0.990   0.619  0.00  0.00    -0.488 OA
BRANCH  12  13
ATOM     13  C   UNL     1       0.455   0.682  -0.485  0.00  0.00    +0.260 C 
BRANCH  13  14
ATOM     14  C   UNL     1      -0.204   1.149  -1.784  0.00  0.00    +0.156 C 
ATOM     15  C   UNL     1       0.758   0.928  -2.968  0.00  0.00    +0.037 C 
ATOM     16  C   UNL     1      -0.025  -0.004  -3.925  0.00  0.00    +0.031 C 
ATOM     17  C   UNL     1      -1.490   0.226  -3.474  0.00  0.00    +0.160 C 
ATOM     18  O   UNL     1      -1.386   0.371  -2.040  0.00  0.00    -0.373 OA
ENDBRANCH  13  14
ENDBRANCH  12  13
ENDBRANCH   8  12
ENDBRANCH   2   5
BRANCH   1  21
ATOM     19  C   UNL     1       4.258  -2.041   7.279  0.00  0.00    +0.270 C 
ATOM     20  O   UNL     1       4.939  -2.276   6.303  0.00  0.00    -0.270 OA
ATOM     21  N   UNL     1       3.065  -1.430   7.137  0.00  0.00    -0.231 N 
ATOM     22  H   UNL     1       2.521  -1.242   7.917  0.00  0.00    +0.173 HD
BRANCH  19  23
ATOM     23  C   UNL     1       4.747  -2.430   8.650  0.00  0.00    +0.257 C 
ATOM     24  C   UNL     1       4.984  -1.169   9.484  0.00  0.00    +0.062 C 
BRANCH  23  25
ATOM     25  O   UNL     1       5.970  -3.159   8.530  0.00  0.00    -0.480 OA
BRANCH  25  30
ATOM     26  C   UNL     1       7.258  -6.698  12.719  0.00  0.00    +0.044 C 
ATOM     27  C   UNL     1       6.913  -5.751  11.598  0.00  0.00    -0.047 A 
ATOM     28  C   UNL     1       5.804  -4.931  11.703  0.00  0.00    +0.007 A 
ATOM     29  C   UNL     1       5.486  -4.063  10.677  0.00  0.00    +0.046 A 
ATOM     30  C   UNL     1       6.281  -4.013   9.541  0.00  0.00    +0.122 A 
ATOM     31  C   UNL     1       7.390  -4.839   9.436  0.00  0.00    +0.049 A 
ATOM     32  C   UNL     1       7.707  -5.703  10.467  0.00  0.00    -0.044 A 
ATOM     33  C   UNL     1       8.914  -6.598  10.356  0.00  0.00    +0.044 C 
ENDBRANCH  25  30
ENDBRANCH  23  25
ENDBRANCH  19  23
ENDBRANCH   1  21
TORSDOF 8
