REMARK  Name = ZINC16511267
REMARK  6 active torsions:
REMARK  status: ('A' for Active; 'I' for Inactive)
REMARK    1  A    between atoms: C_6  and  C_7
REMARK    2  A    between atoms: C_7  and  C_8
REMARK    3  A    between atoms: C_16  and  C_19
REMARK    4  A    between atoms: C_19  and  N_20
REMARK    5  A    between atoms: C_21  and  C_23
REMARK    6  A    between atoms: C_26  and  N_29
REMARK                            x       y       z     vdW  Elec       q    Type
REMARK                         _______ _______ _______ _____ _____    ______ ____
ROOT
ATOM      1  C   UNL     1      -0.016   1.308   0.009  0.00  0.00    +0.145 A 
ATOM      2  N   UNL     1       0.002  -0.004   0.002  0.00  0.00    -0.208 NA
ATOM      3  C   UNL     1       1.174  -0.624  -0.013  0.00  0.00    +0.181 A 
ATOM      4  S   UNL     1       2.275   0.718  -0.016  0.00  0.00    +0.049 S 
ATOM      5  N   UNL     1       1.113   1.975   0.002  0.00  0.00    -0.192 NA
ATOM      6  N   UNL     1       1.447  -1.980  -0.022  0.00  0.00    -0.308 N 
ATOM      7  C   UNL     1       0.807  -2.654   1.115  0.00  0.00    +0.107 C 
ATOM      8  C   UNL     1       1.008  -4.166   0.992  0.00  0.00    +0.024 C 
ATOM      9  C   UNL     1       2.507  -4.476   0.970  0.00  0.00    +0.009 C 
ATOM     10  C   UNL     1       3.158  -3.724  -0.194  0.00  0.00    +0.024 C 
ATOM     11  C   UNL     1       2.895  -2.225  -0.037  0.00  0.00    +0.107 C 
ENDROOT
BRANCH   1  12
ATOM     12  C   UNL     1      -1.330   2.046   0.019  0.00  0.00    +0.112 C 
BRANCH  12  18
ATOM     13  C   UNL     1      -2.550   1.352   2.092  0.00  0.00    +0.005 A 
ATOM     14  C   UNL     1      -2.941   1.568   3.400  0.00  0.00    +0.020 A 
ATOM     15  C   UNL     1      -2.552   2.722   4.057  0.00  0.00    +0.041 A 
ATOM     16  C   UNL     1      -1.767   3.657   3.406  0.00  0.00    +0.020 A 
ATOM     17  C   UNL     1      -1.372   3.438   2.099  0.00  0.00    +0.005 A 
ATOM     18  C   UNL     1      -1.761   2.284   1.444  0.00  0.00    -0.040 A 
ATOM     19 CL   UNL     1      -3.048   2.996   5.698  0.00  0.00    -0.084 Cl
ENDBRANCH  12  18
ENDBRANCH   1  12
BRANCH   9  20
ATOM     20  C   UNL     1       2.714  -5.981   0.786  0.00  0.00    +0.108 C 
BRANCH  20  21
ATOM     21  N   UNL     1       2.196  -6.692   1.958  0.00  0.00    -0.311 N 
ATOM     22  C   UNL     1       2.272  -8.036   2.018  0.00  0.00    +0.244 C 
ATOM     23  O   UNL     1       2.770  -8.659   1.100  0.00  0.00    -0.270 OA
ATOM     24  H   UNL     1       1.799  -6.195   2.690  0.00  0.00    +0.149 HD
BRANCH  22  25
ATOM     25  C   UNL     1       1.749  -8.754   3.200  0.00  0.00    +0.037 A 
ATOM     26  C   UNL     1       1.181  -8.041   4.258  0.00  0.00    +0.015 A 
ATOM     27  C   UNL     1       0.690  -8.717   5.356  0.00  0.00    +0.033 A 
ATOM     28  C   UNL     1       0.769 -10.098   5.414  0.00  0.00    +0.126 A 
ATOM     29  C   UNL     1       1.336 -10.809   4.372  0.00  0.00    +0.033 A 
ATOM     30  C   UNL     1       1.826 -10.146   3.266  0.00  0.00    +0.015 A 
BRANCH  28  31
ATOM     31  N   UNL     1       0.245 -10.816   6.598  0.00  0.00    +0.056 N 
ATOM     32  O   UNL     1       0.313 -12.031   6.652  0.00  0.00    -0.126 OA
ATOM     33  O   UNL     1      -0.254 -10.192   7.517  0.00  0.00    -0.126 OA
ENDBRANCH  28  31
ENDBRANCH  22  25
ENDBRANCH  20  21
ENDBRANCH   9  20
TORSDOF 6
