REMARK  Name = ZINC35642317
REMARK  12 active torsions:
REMARK  status: ('A' for Active; 'I' for Inactive)
REMARK    1  A    between atoms: C_1  and  C_2
REMARK    2  A    between atoms: C_2  and  N_3
REMARK    3  A    between atoms: C_4  and  C_24
REMARK    4  A    between atoms: C_5  and  C_19
REMARK    5  A    between atoms: C_6  and  C_11
REMARK    6  A    between atoms: C_16  and  O_17
REMARK    7  A    between atoms: O_17  and  C_18
REMARK    8  A    between atoms: C_19  and  O_21
REMARK    9  A    between atoms: O_21  and  C_22
REMARK   10  A    between atoms: C_22  and  C_23
REMARK   11  A    between atoms: C_24  and  N_25
REMARK   12  A    between atoms: C_32  and  C_34
REMARK                            x       y       z     vdW  Elec       q    Type
REMARK                         _______ _______ _______ _____ _____    ______ ____
ROOT
ATOM      1  N   UNL     1      -1.396  -0.177   0.042  0.00  0.00    -0.261 N 
ATOM      2  C   UNL     1      -2.055  -0.675   1.129  0.00  0.00    +0.010 C 
ATOM      3  C   UNL     1      -3.192  -1.390   0.987  0.00  0.00    +0.077 C 
ATOM      4  C   UNL     1      -3.709  -1.621  -0.419  0.00  0.00    +0.147 C 
ATOM      5  N   UNL     1      -2.924  -1.042  -1.522  0.00  0.00    -0.288 N 
ATOM      6  C   UNL     1      -1.810  -0.346  -1.220  0.00  0.00    +0.307 C 
ATOM      7  O   UNL     1      -1.158   0.140  -2.123  0.00  0.00    -0.252 OA
ATOM      8  H   UNL     1      -3.204  -1.155  -2.443  0.00  0.00    +0.151 HD
ENDROOT
BRANCH   4   9
ATOM      9  C   UNL     1      -5.105  -1.060  -0.498  0.00  0.00    +0.019 A 
ATOM     10  C   UNL     1      -5.304   0.242  -0.916  0.00  0.00    +0.009 A 
ATOM     11  C   UNL     1      -6.585   0.758  -0.988  0.00  0.00    +0.001 A 
ATOM     12  C   UNL     1      -7.670  -0.027  -0.643  0.00  0.00    +0.004 A 
ATOM     13  C   UNL     1      -7.476  -1.329  -0.224  0.00  0.00    +0.046 A 
ATOM     14  C   UNL     1      -6.192  -1.851  -0.156  0.00  0.00    +0.125 A 
BRANCH  14  15
ATOM     15  O   UNL     1      -5.999  -3.133   0.250  0.00  0.00    -0.495 OA
ATOM     16  C   UNL     1      -7.168  -3.922   0.485  0.00  0.00    +0.277 C 
ENDBRANCH  14  15
ENDBRANCH   4   9
BRANCH   1  18
ATOM     17  C   UNL     1      -0.503   2.083   0.325  0.00  0.00    +0.025 C 
ATOM     18  C   UNL     1      -0.169   0.591   0.270  0.00  0.00    +0.111 C 
ENDBRANCH   1  18
BRANCH   3  19
ATOM     19  C   UNL     1      -3.876  -1.907   2.112  0.00  0.00    +0.339 C 
ATOM     20  O   UNL     1      -3.718  -3.069   2.439  0.00  0.00    -0.245 OA
BRANCH  19  21
ATOM     21  O   UNL     1      -4.703  -1.113   2.822  0.00  0.00    -0.462 OA
BRANCH  21  22
ATOM     22  C   UNL     1      -5.273  -1.667   4.010  0.00  0.00    +0.229 C 
ATOM     23  C   UNL     1      -6.269  -0.672   4.610  0.00  0.00    +0.048 C 
ENDBRANCH  21  22
ENDBRANCH  19  21
ENDBRANCH   3  19
BRANCH   2  24
ATOM     24  C   UNL     1      -1.506  -0.422   2.509  0.00  0.00    -0.026 C 
BRANCH  24  25
ATOM     25  N   UNL     1      -0.721  -1.585   2.945  0.00  0.00    +0.384 N 
ATOM     26  C   UNL     1      -0.430  -1.437   4.369  0.00  0.00    -0.077 C 
ATOM     27  C   UNL     1      -0.302  -2.808   4.997  0.00  0.00    +0.000 C 
ATOM     28  C   UNL     1       1.177  -3.235   4.997  0.00  0.00    +0.106 C 
ATOM     29  N   UNL     1       1.843  -2.843   3.739  0.00  0.00    -0.303 N 
ATOM     30  C   UNL     1       1.203  -2.980   2.447  0.00  0.00    +0.089 C 
ATOM     31  C   UNL     1       0.415  -1.692   2.112  0.00  0.00    -0.059 C 
ATOM     32  C   UNL     1       3.092  -2.339   3.795  0.00  0.00    +0.219 C 
ATOM     33  O   UNL     1       3.659  -2.010   2.775  0.00  0.00    -0.275 OA
ATOM     34  H   UNL     1      -1.286  -2.412   2.821  0.00  0.00    -0.081 HD
BRANCH  32  35
ATOM     35  C   UNL     1       3.783  -2.184   5.125  0.00  0.00    +0.075 C 
ATOM     36  C   UNL     1       3.392  -0.901   5.877  0.00  0.00    +0.013 C 
ATOM     37  C   UNL     1       4.871  -0.780   6.280  0.00  0.00    +0.001 C 
ATOM     38  C   UNL     1       5.200  -1.596   5.019  0.00  0.00    +0.013 C 
ENDBRANCH  32  35
ENDBRANCH  24  25
ENDBRANCH   2  24
TORSDOF 9
