REMARK  Name = ZINC21535863
REMARK  8 active torsions:
REMARK  status: ('A' for Active; 'I' for Inactive)
REMARK    1  A    between atoms: C_1  and  C_2
REMARK    2  A    between atoms: C_2  and  C_3
REMARK    3  A    between atoms: N_9  and  C_10
REMARK    4  A    between atoms: C_10  and  C_11
REMARK    5  A    between atoms: C_14  and  C_16
REMARK    6  A    between atoms: C_16  and  N_17
REMARK    7  A    between atoms: N_17  and  S_18
REMARK    8  A    between atoms: S_18  and  C_21
REMARK                            x       y       z     vdW  Elec       q    Type
REMARK                         _______ _______ _______ _____ _____    ______ ____
ROOT
ATOM      1  N   UNL     1       4.503  -0.800  -1.248  0.00  0.00    -0.183 NA
ATOM      2  H   UNL     1       4.352  -1.836  -1.585  0.00  0.00    +0.148 HD
ENDROOT
BRANCH   1   3
ATOM      3  S   UNL     1       4.212  -0.415   0.336  0.00  0.00    +0.059 S 
ATOM      4  O   UNL     1       5.225   0.504   0.723  0.00  0.00    -0.153 OA
ATOM      5  O   UNL     1       3.996  -1.642   1.019  0.00  0.00    -0.153 OA
BRANCH   3   6
ATOM      6  C   UNL     1       2.687   0.465   0.387  0.00  0.00    +0.106 A 
ATOM      7  C   UNL     1       2.672   1.843   0.265  0.00  0.00    +0.030 A 
ATOM      8  C   UNL     1       1.476   2.515   0.311  0.00  0.00    +0.025 A 
ATOM      9  C   UNL     1       0.258   1.833   0.481  0.00  0.00    +0.037 A 
ATOM     10  C   UNL     1       0.277   0.460   0.593  0.00  0.00    -0.024 A 
ATOM     11  C   UNL     1       1.500  -0.211   0.548  0.00  0.00    +0.034 A 
ATOM     12  C   UNL     1      -0.928  -0.407   0.752  0.00  0.00    +0.037 C 
ATOM     13  C   UNL     1      -2.154   0.039   0.017  0.00  0.00    +0.014 C 
ATOM     14  C   UNL     1      -2.877   1.180   0.691  0.00  0.00    +0.096 C 
ATOM     15  C   UNL     1      -2.146   2.466   0.540  0.00  0.00    +0.217 C 
ATOM     16  O   UNL     1      -2.826   3.461   0.410  0.00  0.00    -0.275 OA
ATOM     17  N   UNL     1      -0.855   2.641   0.533  0.00  0.00    -0.285 N 
ATOM     18  H   UNL     1      -0.739   3.734   0.585  0.00  0.00    +0.155 HD
ENDBRANCH   3   6
ENDBRANCH   1   3
BRANCH   1  19
ATOM     19  C   UNL     1       4.742   0.262  -2.228  0.00  0.00    +0.180 C 
BRANCH  19  23
ATOM     20  C   UNL     1       6.802  -1.057  -4.939  0.00  0.00    +0.089 A 
ATOM     21  C   UNL     1       5.585  -1.257  -5.478  0.00  0.00    +0.043 A 
ATOM     22  C   UNL     1       4.639  -0.795  -4.535  0.00  0.00    +0.046 A 
ATOM     23  C   UNL     1       5.333  -0.333  -3.480  0.00  0.00    +0.121 A 
ATOM     24  O   UNL     1       6.643  -0.497  -3.729  0.00  0.00    -0.465 OA
BRANCH  20  25
ATOM     25  C   UNL     1       8.119  -1.403  -5.584  0.00  0.00    -0.003 C 
BRANCH  25  31
ATOM     26  C   UNL     1       7.729   0.301  -7.258  0.00  0.00    -0.068 C 
ATOM     27  C   UNL     1       8.387   1.446  -8.031  0.00  0.00    -0.015 C 
ATOM     28  C   UNL     1       8.776   2.558  -7.053  0.00  0.00    -0.003 C 
ATOM     29  C   UNL     1       9.713   1.985  -5.986  0.00  0.00    -0.019 C 
ATOM     30  C   UNL     1       9.016   0.824  -5.273  0.00  0.00    -0.078 C 
ATOM     31  N   UNL     1       8.665  -0.214  -6.251  0.00  0.00    +0.386 N 
ATOM     32  H   UNL     1       9.588  -0.510  -6.771  0.00  0.00    -0.081 HD
BRANCH  26  34
ATOM     33  C   UNL     1       6.294  -0.318  -9.208  0.00  0.00    +0.002 C 
ATOM     34  C   UNL     1       7.357  -0.821  -8.229  0.00  0.00    -0.019 C 
ENDBRANCH  26  34
ENDBRANCH  25  31
ENDBRANCH  20  25
ENDBRANCH  19  23
ENDBRANCH   1  19
TORSDOF 7
