REMARK  Name = ZINC36698920
REMARK  17 active torsions:
REMARK  status: ('A' for Active; 'I' for Inactive)
REMARK    1  A    between atoms: C_1  and  C_2
REMARK    2  A    between atoms: C_2  and  C_3
REMARK    3  A    between atoms: C_3  and  C_4
REMARK    4  A    between atoms: C_4  and  N_5
REMARK    5  A    between atoms: N_5  and  C_6
REMARK    6  A    between atoms: N_5  and  S_7
REMARK    7  A    between atoms: S_7  and  C_10
REMARK    8  A    between atoms: C_13  and  C_16
REMARK    9  A    between atoms: N_18  and  C_19
REMARK   10  A    between atoms: C_19  and  C_20
REMARK   11  A    between atoms: C_20  and  N_21
REMARK   12  A    between atoms: N_21  and  C_22
REMARK   13  A    between atoms: N_21  and  C_24
REMARK   14  A    between atoms: C_22  and  C_23
REMARK   15  A    between atoms: C_24  and  C_25
REMARK   16  A    between atoms: C_30  and  C_36
REMARK   17  A    between atoms: C_31  and  C_35
REMARK                            x       y       z     vdW  Elec       q    Type
REMARK                         _______ _______ _______ _____ _____    ______ ____
ROOT
ATOM      1  C   UNL     1      -6.224   1.954   3.384  0.00  0.00    +0.252 C 
ATOM      2  O   UNL     1      -5.647   2.673   4.176  0.00  0.00    -0.270 OA
ATOM      3  N   UNL     1      -7.484   2.243   3.004  0.00  0.00    -0.248 N 
ATOM      4  C   UNL     1      -8.073   3.429   3.406  0.00  0.00    +0.168 A 
ATOM      5  N   UNL     1      -9.278   3.880   3.146  0.00  0.00    -0.224 NA
ATOM      6  C   UNL     1      -9.725   5.067   3.610  0.00  0.00    +0.081 A 
ATOM      7  C   UNL     1     -10.990   5.665   3.404  0.00  0.00    +0.032 A 
ATOM      8  C   UNL     1     -11.285   6.886   3.950  0.00  0.00    -0.045 A 
ATOM      9  C   UNL     1     -10.361   7.578   4.720  0.00  0.00    -0.046 A 
ATOM     10  C   UNL     1      -9.114   7.024   4.942  0.00  0.00    +0.021 A 
ATOM     11  C   UNL     1      -8.810   5.800   4.399  0.00  0.00    +0.041 A 
ATOM     12  S   UNL     1      -7.389   4.733   4.420  0.00  0.00    -0.052 S 
ATOM     13  C   UNL     1     -10.713   8.920   5.308  0.00  0.00    +0.044 C 
ATOM     14  C   UNL     1     -12.643   7.493   3.709  0.00  0.00    +0.044 C 
ENDROOT
BRANCH   1  18
ATOM     15  C   UNL     1      -4.267  -1.474   1.816  0.00  0.00    +0.106 A 
ATOM     16  C   UNL     1      -3.597  -0.265   1.873  0.00  0.00    +0.029 A 
ATOM     17  C   UNL     1      -4.227   0.853   2.381  0.00  0.00    +0.015 A 
ATOM     18  C   UNL     1      -5.543   0.761   2.838  0.00  0.00    +0.037 A 
ATOM     19  C   UNL     1      -6.213  -0.463   2.778  0.00  0.00    +0.015 A 
ATOM     20  C   UNL     1      -5.573  -1.571   2.263  0.00  0.00    +0.029 A 
BRANCH  15  21
ATOM     21  S   UNL     1      -3.454  -2.896   1.166  0.00  0.00    +0.061 S 
ATOM     22  O   UNL     1      -4.112  -4.028   1.720  0.00  0.00    -0.153 OA
ATOM     23  O   UNL     1      -2.060  -2.674   1.321  0.00  0.00    -0.153 OA
BRANCH  21  24
ATOM     24  N   UNL     1      -3.751  -2.927  -0.463  0.00  0.00    -0.180 NA
ATOM     25  C   UNL     1      -4.927  -3.631  -0.981  0.00  0.00    +0.131 C 
BRANCH  24  26
ATOM     26  C   UNL     1      -2.836  -2.251  -1.387  0.00  0.00    +0.109 C 
BRANCH  26  27
ATOM     27  C   UNL     1      -3.362  -0.846  -1.688  0.00  0.00    +0.017 C 
BRANCH  27  29
ATOM     28  C   UNL     1      -2.933   1.265  -2.953  0.00  0.00    +0.004 C 
ATOM     29  C   UNL     1      -2.407  -0.140  -2.652  0.00  0.00    -0.002 C 
ENDBRANCH  27  29
ENDBRANCH  26  27
ENDBRANCH  24  26
ENDBRANCH  21  24
ENDBRANCH  15  21
ENDBRANCH   1  18
BRANCH   3  30
ATOM     30  C   UNL     1      -8.230   1.303   2.164  0.00  0.00    +0.097 C 
BRANCH  30  31
ATOM     31  C   UNL     1      -9.186   0.487   3.038  0.00  0.00    -0.059 C 
BRANCH  31  32
ATOM     32  N   UNL     1      -9.954  -0.437   2.192  0.00  0.00    +0.380 N 
ATOM     33  H   UNL     1     -10.412   0.081   1.458  0.00  0.00    -0.082 HD
BRANCH  32  34
ATOM     34  C   UNL     1      -9.046  -1.428   1.599  0.00  0.00    -0.082 C 
ATOM     35  C   UNL     1      -9.823  -2.312   0.623  0.00  0.00    -0.017 C 
ENDBRANCH  32  34
BRANCH  32  36
ATOM     36  C   UNL     1     -10.963  -1.124   3.009  0.00  0.00    -0.082 C 
ATOM     37  C   UNL     1     -12.002  -0.112   3.494  0.00  0.00    -0.017 C 
ENDBRANCH  32  36
ENDBRANCH  31  32
ENDBRANCH  30  31
ENDBRANCH   3  30
TORSDOF 11
