REMARK  Name = ZINC16569839
REMARK  8 active torsions:
REMARK  status: ('A' for Active; 'I' for Inactive)
REMARK    1  A    between atoms: C_1  and  C_2
REMARK    2  A    between atoms: C_5  and  C_8
REMARK    3  A    between atoms: C_22  and  C_24
REMARK    4  A    between atoms: C_24  and  N_25
REMARK    5  A    between atoms: N_25  and  C_26
REMARK    6  A    between atoms: C_26  and  C_27
REMARK    7  A    between atoms: C_26  and  C_28
REMARK    8  A    between atoms: N_31  and  C_32
REMARK                            x       y       z     vdW  Elec       q    Type
REMARK                         _______ _______ _______ _____ _____    ______ ____
ROOT
ATOM      1  C   UNL     1      -4.239   1.978   0.400  0.00  0.00    +0.159 C 
ATOM      2  C   UNL     1      -3.289   1.193  -0.473  0.00  0.00    +0.049 A 
ATOM      3  C   UNL     1      -3.303  -0.105  -0.793  0.00  0.00    +0.025 A 
ATOM      4  C   UNL     1      -2.199  -0.341  -1.643  0.00  0.00    +0.020 A 
ATOM      5  C   UNL     1      -1.551   0.834  -1.805  0.00  0.00    +0.092 A 
ATOM      6  N   UNL     1      -2.207   1.780  -1.091  0.00  0.00    -0.316 N 
ATOM      7  C   UNL     1      -1.927   3.144  -0.927  0.00  0.00    +0.068 A 
ATOM      8  C   UNL     1      -1.015   3.803  -1.728  0.00  0.00    +0.028 A 
ATOM      9  C   UNL     1      -0.780   5.153  -1.534  0.00  0.00    +0.002 A 
ATOM     10  C   UNL     1      -1.457   5.840  -0.543  0.00  0.00    +0.002 A 
ATOM     11  C   UNL     1      -2.369   5.186   0.264  0.00  0.00    +0.025 A 
ATOM     12  C   UNL     1      -2.608   3.833   0.082  0.00  0.00    +0.061 A 
ATOM     13  N   UNL     1      -3.512   3.152   0.910  0.00  0.00    -0.255 N 
ATOM     14  C   UNL     1      -3.717   3.574   2.173  0.00  0.00    +0.238 C 
ATOM     15  O   UNL     1      -3.047   4.478   2.627  0.00  0.00    -0.273 OA
ENDROOT
BRANCH   1  20
ATOM     16  C   UNL     1      -8.795   3.692  -2.714  0.00  0.00    +0.044 C 
ATOM     17  C   UNL     1      -7.607   3.245  -1.901  0.00  0.00    -0.050 A 
ATOM     18  C   UNL     1      -6.416   3.943  -1.977  0.00  0.00    +0.004 A 
ATOM     19  C   UNL     1      -5.325   3.530  -1.236  0.00  0.00    +0.006 A 
ATOM     20  C   UNL     1      -5.427   2.425  -0.412  0.00  0.00    -0.021 A 
ATOM     21  C   UNL     1      -6.618   1.727  -0.336  0.00  0.00    +0.006 A 
ATOM     22  C   UNL     1      -7.708   2.137  -1.081  0.00  0.00    +0.004 A 
ENDBRANCH   1  20
BRANCH  14  23
ATOM     23  C   UNL     1      -4.777   2.922   3.023  0.00  0.00    +0.205 C 
BRANCH  23  24
ATOM     24  N   UNL     1      -4.880   3.628   4.302  0.00  0.00    -0.274 N 
ATOM     25  C   UNL     1      -5.732   4.664   4.433  0.00  0.00    +0.303 C 
ATOM     26  O   UNL     1      -5.753   5.307   5.465  0.00  0.00    -0.253 OA
ATOM     27  N   UNL     1      -6.560   4.988   3.421  0.00  0.00    -0.294 N 
ATOM     28  H   UNL     1      -6.595   4.433   2.626  0.00  0.00    +0.151 HD
BRANCH  27  29
ATOM     29  C   UNL     1      -7.408   6.178   3.520  0.00  0.00    +0.037 C 
ATOM     30  C   UNL     1      -8.337   6.044   4.728  0.00  0.00    +0.029 C 
ATOM     31  C   UNL     1      -9.222   7.287   4.832  0.00  0.00    -0.008 C 
ATOM     32  C   UNL     1     -10.059   7.425   3.558  0.00  0.00    +0.007 C 
ATOM     33  C   UNL     1      -9.130   7.559   2.350  0.00  0.00    -0.008 C 
ATOM     34  C   UNL     1      -8.245   6.316   2.246  0.00  0.00    +0.029 C 
ATOM     35  C   UNL     1      -8.250   8.800   2.519  0.00  0.00    +0.007 C 
ATOM     36  C   UNL     1      -7.414   8.662   3.792  0.00  0.00    -0.008 C 
ATOM     37  C   UNL     1      -8.342   8.527   5.000  0.00  0.00    +0.007 C 
ATOM     38  C   UNL     1      -6.528   7.419   3.688  0.00  0.00    +0.029 C 
ENDBRANCH  27  29
BRANCH  24  39
ATOM     39  C   UNL     1      -4.058   3.207   5.439  0.00  0.00    +0.072 C 
ATOM     40  C   UNL     1      -4.467   1.798   5.872  0.00  0.00    +0.028 C 
ATOM     41  C   UNL     1      -2.583   3.207   5.030  0.00  0.00    +0.028 C 
ENDBRANCH  24  39
ENDBRANCH  23  24
ENDBRANCH  14  23
TORSDOF 5
