REMARK  Name = ZINC06300368
REMARK  11 active torsions:
REMARK  status: ('A' for Active; 'I' for Inactive)
REMARK    1  A    between atoms: C_1  and  C_2
REMARK    2  A    between atoms: C_4  and  C_36
REMARK    3  A    between atoms: C_9  and  C_14
REMARK    4  A    between atoms: C_14  and  N_67
REMARK    5  A    between atoms: C_15  and  C_16
REMARK    6  A    between atoms: C_15  and  N_67
REMARK    7  A    between atoms: C_16  and  C_17
REMARK    8  A    between atoms: C_23  and  C_24
REMARK    9  A    between atoms: C_23  and  N_67
REMARK   10  A    between atoms: N_28  and  C_29
REMARK   11  A    between atoms: C_29  and  C_30
REMARK                            x       y       z     vdW  Elec       q    Type
REMARK                         _______ _______ _______ _____ _____    ______ ____
ROOT
ATOM      1  N   UNL     1       5.503   3.014  -1.541  0.00  0.00    +0.387 N 
ATOM      2  H   UNL     1       6.169   2.422  -1.032  0.00  0.00    -0.081 HD
ENDROOT
BRANCH   1   3
ATOM      3  C   UNL     1       5.412   4.325  -0.863  0.00  0.00    -0.037 C 
BRANCH   3  12
ATOM      4  C   UNL     1      11.483   8.372  -2.404  0.00  0.00    +0.044 C 
ATOM      5  C   UNL     1      10.736   7.409  -1.518  0.00  0.00    -0.050 A 
ATOM      6  C   UNL     1      11.335   6.933  -0.360  0.00  0.00    +0.008 A 
ATOM      7  C   UNL     1      10.671   6.051   0.464  0.00  0.00    -0.026 A 
ATOM      8  C   UNL     1       9.386   5.632   0.134  0.00  0.00    +0.052 A 
ATOM      9  C   UNL     1       8.781   6.117  -1.041  0.00  0.00    -0.001 A 
ATOM     10  C   UNL     1       9.475   7.011  -1.863  0.00  0.00    +0.013 A 
ATOM     11  C   UNL     1       7.431   5.666  -1.383  0.00  0.00    +0.017 A 
ATOM     12  C   UNL     1       6.805   4.803  -0.545  0.00  0.00    +0.001 A 
ATOM     13  C   UNL     1       7.455   4.348   0.622  0.00  0.00    +0.251 A 
ATOM     14  O   UNL     1       6.876   3.568   1.359  0.00  0.00    -0.268 OA
ATOM     15  N   UNL     1       8.697   4.751   0.941  0.00  0.00    -0.322 N 
ATOM     16  H   UNL     1       9.115   4.418   1.750  0.00  0.00    +0.169 HD
ATOM     17  C   UNL     1      11.333   5.542   1.719  0.00  0.00    +0.046 C 
ENDBRANCH   3  12
ENDBRANCH   1   3
BRANCH   1  18
ATOM     18  C   UNL     1       4.181   2.355  -1.546  0.00  0.00    -0.073 C 
BRANCH  18  19
ATOM     19  C   UNL     1       3.789   2.020  -0.106  0.00  0.00    +0.016 C 
BRANCH  19  20
ATOM     20  C   UNL     1       2.504   1.232  -0.104  0.00  0.00    -0.049 A 
ATOM     21  C   UNL     1       1.296   1.882   0.066  0.00  0.00    +0.003 A 
ATOM     22  C   UNL     1       0.117   1.160   0.066  0.00  0.00    +0.000 A 
ATOM     23  C   UNL     1       0.147  -0.212  -0.102  0.00  0.00    +0.000 A 
ATOM     24  C   UNL     1       1.356  -0.862  -0.270  0.00  0.00    +0.000 A 
ATOM     25  C   UNL     1       2.534  -0.139  -0.272  0.00  0.00    +0.003 A 
ENDBRANCH  19  20
ENDBRANCH  18  19
ENDBRANCH   1  18
BRANCH   1  26
ATOM     26  C   UNL     1       5.984   3.195  -2.927  0.00  0.00    +0.001 C 
BRANCH  26  27
ATOM     27  C   UNL     1       6.278   1.841  -3.519  0.00  0.00    +0.135 A 
ATOM     28  N   UNL     1       7.417   1.194  -3.467  0.00  0.00    -0.115 NA
ATOM     29  N   UNL     1       7.267   0.074  -4.087  0.00  0.00    -0.023 NA
ATOM     30  N   UNL     1       6.065  -0.007  -4.539  0.00  0.00    -0.044 NA
ATOM     31  N   UNL     1       5.423   1.063  -4.210  0.00  0.00    -0.229 N 
BRANCH  31  32
ATOM     32  C   UNL     1       4.027   1.373  -4.528  0.00  0.00    +0.178 C 
BRANCH  32  33
ATOM     33  C   UNL     1       3.962   2.111  -5.867  0.00  0.00    +0.140 C 
ATOM     34  C   UNL     1       2.508   2.543  -6.156  0.00  0.00    +0.035 C 
ATOM     35  C   UNL     1       2.385   2.289  -7.683  0.00  0.00    +0.031 C 
ATOM     36  C   UNL     1       3.287   1.039  -7.846  0.00  0.00    +0.160 C 
ATOM     37  O   UNL     1       4.371   1.235  -6.925  0.00  0.00    -0.375 OA
ENDBRANCH  32  33
ENDBRANCH  31  32
ENDBRANCH  26  27
ENDBRANCH   1  26
TORSDOF 9
