REMARK  Name = ZINC63351171
REMARK  7 active torsions:
REMARK  status: ('A' for Active; 'I' for Inactive)
REMARK    1  A    between atoms: C_1  and  C_2
REMARK    2  A    between atoms: C_2  and  C_35
REMARK    3  A    between atoms: N_20  and  N_23
REMARK    4  A    between atoms: C_24  and  C_25
REMARK    5  A    between atoms: C_28  and  C_31
REMARK    6  A    between atoms: C_31  and  O_33
REMARK    7  A    between atoms: O_33  and  C_34
REMARK                            x       y       z     vdW  Elec       q    Type
REMARK                         _______ _______ _______ _____ _____    ______ ____
ROOT
ATOM      1  C   UNL     1       0.029   1.651  -0.349  0.00  0.00    +0.034 C 
ATOM      2  C   UNL     1      -0.010   0.129  -0.196  0.00  0.00    +0.057 C 
ATOM      3  C   UNL     1       0.643  -0.511  -1.420  0.00  0.00    +0.129 C 
ATOM      4  C   UNL     1       2.147  -0.319  -1.238  0.00  0.00    -0.034 C 
ATOM      5  C   UNL     1       2.567   0.409  -2.264  0.00  0.00    -0.001 A 
ATOM      6  C   UNL     1       3.907   0.886  -2.643  0.00  0.00    +0.010 A 
ATOM      7  C   UNL     1       3.980   1.629  -3.779  0.00  0.00    +0.001 A 
ATOM      8  C   UNL     1       2.867   1.940  -4.567  0.00  0.00    +0.002 A 
ATOM      9  C   UNL     1       1.599   1.543  -4.294  0.00  0.00    +0.026 A 
ATOM     10  C   UNL     1       1.395   0.753  -3.125  0.00  0.00    +0.043 A 
ATOM     11  N   UNL     1       0.288   0.229  -2.639  0.00  0.00    -0.375 N 
ATOM     12  C   UNL     1       2.867  -0.888  -0.046  0.00  0.00    +0.065 C 
ATOM     13  C   UNL     1       2.031  -0.698   1.194  0.00  0.00    +0.168 C 
ATOM     14  N   UNL     1       0.667  -0.240   1.038  0.00  0.00    -0.281 N 
ATOM     15  C   UNL     1      -0.043  -0.099   2.206  0.00  0.00    +0.236 C 
ATOM     16  O   UNL     1      -1.215   0.214   2.202  0.00  0.00    -0.274 OA
ATOM     17  C   UNL     1       0.706  -0.350   3.497  0.00  0.00    +0.230 C 
ATOM     18  N   UNL     1       2.023   0.308   3.409  0.00  0.00    -0.183 N 
ATOM     19  C   UNL     1       2.724   0.124   2.251  0.00  0.00    +0.256 C 
ATOM     20  O   UNL     1       3.830   0.592   2.085  0.00  0.00    -0.272 OA
ATOM     21  C   UNL     1      -1.469  -0.325  -0.118  0.00  0.00    +0.034 C 
ATOM     22  H   UNL     1      -0.605   0.313  -3.009  0.00  0.00    +0.160 HD
ENDROOT
BRANCH  18  23
ATOM     23  N   UNL     1       2.530   1.082   4.461  0.00  0.00    -0.184 NA
ATOM     24  C   UNL     1       1.886   1.149   5.587  0.00  0.00    +0.138 C 
BRANCH  24  25
ATOM     25  C   UNL     1       2.351   2.059   6.648  0.00  0.00    -0.005 A 
ATOM     26  C   UNL     1       3.483   2.854   6.441  0.00  0.00    +0.010 A 
ATOM     27  C   UNL     1       3.914   3.697   7.425  0.00  0.00    +0.015 A 
ATOM     28  C   UNL     1       3.224   3.766   8.639  0.00  0.00    +0.059 A 
ATOM     29  C   UNL     1       2.093   2.971   8.847  0.00  0.00    +0.015 A 
ATOM     30  C   UNL     1       1.658   2.132   7.861  0.00  0.00    +0.010 A 
BRANCH  28  31
ATOM     31  C   UNL     1       3.690   4.677   9.702  0.00  0.00    +0.339 C 
ATOM     32  O   UNL     1       4.673   5.368   9.523  0.00  0.00    -0.245 OA
BRANCH  31  33
ATOM     33  O   UNL     1       3.025   4.744  10.872  0.00  0.00    -0.464 OA
ATOM     34  C   UNL     1       3.531   5.647  11.856  0.00  0.00    +0.280 C 
ENDBRANCH  31  33
ENDBRANCH  28  31
ENDBRANCH  24  25
ENDBRANCH  18  23
TORSDOF 4
