REMARK  Name = ZINC06462171
REMARK  13 active torsions:
REMARK  status: ('A' for Active; 'I' for Inactive)
REMARK    1  A    between atoms: C_1  and  C_2
REMARK    2  A    between atoms: C_2  and  C_3
REMARK    3  A    between atoms: C_3  and  C_4
REMARK    4  A    between atoms: C_3  and  C_5
REMARK    5  A    between atoms: C_3  and  N_6
REMARK    6  A    between atoms: C_7  and  C_9
REMARK    7  A    between atoms: C_9  and  C_11
REMARK    8  A    between atoms: C_9  and  N_18
REMARK    9  A    between atoms: N_18  and  C_19
REMARK   10  A    between atoms: C_19  and  C_20
REMARK   11  A    between atoms: C_25  and  C_27
REMARK   12  A    between atoms: C_28  and  N_35
REMARK   13  A    between atoms: C_29  and  C_32
REMARK                            x       y       z     vdW  Elec       q    Type
REMARK                         _______ _______ _______ _____ _____    ______ ____
ROOT
ATOM      1  N   UNL     1       4.447   1.084  -0.316  0.00  0.00    -0.277 N 
ATOM      2  C   UNL     1       3.588   0.768  -1.306  0.00  0.00    +0.258 C 
ATOM      3  O   UNL     1       3.851  -0.140  -2.072  0.00  0.00    -0.269 OA
ENDROOT
BRANCH   2   4
ATOM      4  C   UNL     1       2.340   1.518  -1.460  0.00  0.00    +0.115 A 
ATOM      5  C   UNL     1       1.369   1.425  -2.458  0.00  0.00    +0.076 A 
ATOM      6  C   UNL     1       0.312   2.313  -2.260  0.00  0.00    +0.155 A 
ATOM      7  N   UNL     1       0.327   3.107  -1.212  0.00  0.00    -0.203 NA
ATOM      8  S   UNL     1       1.654   2.792  -0.422  0.00  0.00    +0.019 S 
BRANCH   6   9
ATOM      9  C   UNL     1      -0.811   2.360  -3.214  0.00  0.00    +0.262 C 
ATOM     10  O   UNL     1      -0.818   1.622  -4.181  0.00  0.00    -0.269 OA
ATOM     11  N   UNL     1      -1.829   3.220  -3.015  0.00  0.00    -0.324 N 
ATOM     12  H   UNL     1      -1.823   3.808  -2.244  0.00  0.00    +0.145 HD
ATOM     13  H   UNL     1      -2.568   3.251  -3.643  0.00  0.00    +0.145 HD
ENDBRANCH   6   9
BRANCH   5  14
ATOM     14  N   UNL     1       1.448   0.547  -3.531  0.00  0.00    -0.355 N 
ATOM     15  H   UNL     1       0.741   0.527  -4.195  0.00  0.00    +0.142 HD
ATOM     16  H   UNL     1       2.209  -0.048  -3.616  0.00  0.00    +0.142 HD
ENDBRANCH   5  14
ENDBRANCH   2   4
BRANCH   1  17
ATOM     17  C   UNL     1       5.761   0.440  -0.253  0.00  0.00    +0.193 C 
BRANCH  17  18
ATOM     18  C   UNL     1       6.666   1.041  -1.297  0.00  0.00    -0.018 A 
ATOM     19  C   UNL     1       6.712   2.413  -1.465  0.00  0.00    +0.009 A 
ATOM     20  C   UNL     1       7.546   2.965  -2.418  0.00  0.00    +0.038 A 
ATOM     21  C   UNL     1       8.326   2.144  -3.214  0.00  0.00    +0.123 A 
ATOM     22  C   UNL     1       8.275   0.770  -3.049  0.00  0.00    +0.038 A 
ATOM     23  C   UNL     1       7.445   0.220  -2.091  0.00  0.00    +0.009 A 
ATOM     24  F   UNL     1       9.137   2.683  -4.151  0.00  0.00    -0.205 F 
ENDBRANCH  17  18
BRANCH  17  26
ATOM     25  N   UNL     1       7.649   0.333   1.342  0.00  0.00    -0.308 N 
ATOM     26  C   UNL     1       6.360   0.653   1.114  0.00  0.00    +0.239 C 
ATOM     27  O   UNL     1       5.682   1.113   2.008  0.00  0.00    -0.273 OA
ATOM     28  H   UNL     1       8.210   0.028   0.612  0.00  0.00    +0.149 HD
BRANCH  25  29
ATOM     29  C   UNL     1       8.202   0.443   2.694  0.00  0.00    +0.029 C 
ATOM     30  C   UNL     1       8.012   1.872   3.208  0.00  0.00    +0.031 C 
ATOM     31  C   UNL     1       7.479  -0.533   3.623  0.00  0.00    +0.031 C 
BRANCH  29  33
ATOM     32  C   UNL     1      10.273   0.223   4.075  0.00  0.00    +0.006 C 
ATOM     33  C   UNL     1       9.695   0.107   2.663  0.00  0.00    +0.022 C 
ENDBRANCH  29  33
ENDBRANCH  25  29
ENDBRANCH  17  26
ENDBRANCH   1  17
BRANCH   1  34
ATOM     34  C   UNL     1       4.066   2.072   0.697  0.00  0.00    +0.151 C 
BRANCH  34  35
ATOM     35  C   UNL     1       3.183   1.418   1.728  0.00  0.00    +0.007 A 
ATOM     36  C   UNL     1       3.505   0.971   2.967  0.00  0.00    +0.013 A 
ATOM     37  C   UNL     1       2.519   0.398   3.750  0.00  0.00    +0.008 A 
ATOM     38  C   UNL     1       1.261   0.301   3.256  0.00  0.00    +0.045 A 
ATOM     39  S   UNL     1       1.440   1.039   1.640  0.00  0.00    -0.100 S 
ENDBRANCH  34  35
ENDBRANCH   1  34
TORSDOF 10
