REMARK  Name = ZINC04930512
REMARK  11 active torsions:
REMARK  status: ('A' for Active; 'I' for Inactive)
REMARK    1  A    between atoms: C_1  and  C_2
REMARK    2  A    between atoms: C_5  and  C_28
REMARK    3  A    between atoms: C_9  and  C_10
REMARK    4  A    between atoms: C_9  and  N_60
REMARK    5  A    between atoms: N_14  and  C_15
REMARK    6  A    between atoms: C_15  and  C_16
REMARK    7  A    between atoms: C_16  and  C_17
REMARK    8  A    between atoms: C_17  and  C_18
REMARK    9  A    between atoms: C_17  and  C_19
REMARK   10  A    between atoms: N_22  and  C_27
REMARK   11  A    between atoms: N_25  and  C_26
REMARK                            x       y       z     vdW  Elec       q    Type
REMARK                         _______ _______ _______ _____ _____    ______ ____
ROOT
ATOM      1  C   UNL     1      -0.723   1.951   1.250  0.00  0.00    +0.096 A 
ATOM      2  N   UNL     1      -0.144   2.204   2.396  0.00  0.00    -0.216 NA
ATOM      3  C   UNL     1      -1.054   2.617   3.282  0.00  0.00    +0.168 A 
ATOM      4  C   UNL     1      -2.285   2.619   2.637  0.00  0.00    +0.152 A 
ATOM      5  N   UNL     1      -2.045   2.196   1.345  0.00  0.00    -0.324 N 
ATOM      6  C   UNL     1      -3.435   3.018   3.351  0.00  0.00    +0.282 A 
ATOM      7  O   UNL     1      -4.525   3.029   2.808  0.00  0.00    -0.265 OA
ATOM      8  N   UNL     1      -3.312   3.390   4.643  0.00  0.00    -0.262 N 
ATOM      9  C   UNL     1      -2.115   3.383   5.254  0.00  0.00    +0.333 A 
ATOM     10  O   UNL     1      -2.043   3.723   6.419  0.00  0.00    -0.246 OA
ATOM     11  N   UNL     1      -0.994   3.008   4.609  0.00  0.00    -0.280 N 
ATOM     12  C   UNL     1       0.291   3.015   5.313  0.00  0.00    +0.155 C 
ATOM     13  C   UNL     1      -4.502   3.806   5.389  0.00  0.00    +0.157 C 
ENDROOT
BRANCH   1  14
ATOM     14  C   UNL     1      -0.018   1.465   0.010  0.00  0.00    -0.003 C 
BRANCH  14  22
ATOM     15  C   UNL     1      -0.757  -2.441   1.395  0.00  0.00    +0.005 C 
ATOM     16  C   UNL     1       0.702  -2.050   1.153  0.00  0.00    -0.031 C 
ATOM     17  C   UNL     1       1.173  -2.637  -0.181  0.00  0.00    +0.003 C 
ATOM     18  C   UNL     1       0.336  -2.042  -1.316  0.00  0.00    -0.031 C 
ATOM     19  C   UNL     1       0.466  -0.517  -1.294  0.00  0.00    -0.075 C 
ATOM     20  C   UNL     1       0.822  -0.525   1.103  0.00  0.00    -0.075 C 
ATOM     21  C   UNL     1       0.839  -2.577  -2.658  0.00  0.00    +0.005 C 
ATOM     22  N   UNL     1      -0.026  -0.013   0.006  0.00  0.00    +0.385 N 
ATOM     23  H   UNL     1      -0.989  -0.341   0.148  0.00  0.00    -0.081 HD
ENDBRANCH  14  22
ENDBRANCH   1  14
BRANCH   5  24
ATOM     24  C   UNL     1      -3.038   2.040   0.280  0.00  0.00    +0.124 C 
BRANCH  24  25
ATOM     25  C   UNL     1      -3.609   0.621   0.318  0.00  0.00    +0.024 C 
BRANCH  25  26
ATOM     26  C   UNL     1      -4.647   0.459  -0.794  0.00  0.00    -0.016 C 
ATOM     27  C   UNL     1      -5.126  -0.994  -0.836  0.00  0.00    +0.007 C 
ATOM     28  C   UNL     1      -5.837   1.381  -0.520  0.00  0.00    +0.007 C 
ENDBRANCH  25  26
ENDBRANCH  24  25
ENDBRANCH   5  24
TORSDOF 5
