REMARK  Name = ZINC11117802
REMARK  8 active torsions:
REMARK  status: ('A' for Active; 'I' for Inactive)
REMARK    1  A    between atoms: C_1  and  C_2
REMARK    2  A    between atoms: C_2  and  C_3
REMARK    3  A    between atoms: C_3  and  C_4
REMARK    4  A    between atoms: C_4  and  N_5
REMARK    5  A    between atoms: C_9  and  N_18
REMARK    6  A    between atoms: C_19  and  C_21
REMARK    7  A    between atoms: N_24  and  S_27
REMARK    8  A    between atoms: S_27  and  C_30
REMARK                            x       y       z     vdW  Elec       q    Type
REMARK                         _______ _______ _______ _____ _____    ______ ____
ROOT
ATOM      1  N   UNL     1       1.500  -2.656  -2.184  0.00  0.00    -0.285 N 
ATOM      2  C   UNL     1       0.831  -1.999  -1.215  0.00  0.00    +0.220 C 
ATOM      3  O   UNL     1       0.217  -2.620  -0.374  0.00  0.00    -0.275 OA
ATOM      4  H   UNL     1       1.923  -2.160  -2.903  0.00  0.00    +0.155 HD
ENDROOT
BRANCH   1   9
ATOM      5  N   UNL     1       1.864  -8.230  -2.340  0.00  0.00    -0.267 N 
ATOM      6  C   UNL     1       1.738  -6.882  -2.024  0.00  0.00    +0.045 A 
ATOM      7  C   UNL     1       1.536  -6.129  -0.880  0.00  0.00    +0.026 A 
ATOM      8  C   UNL     1       1.462  -4.742  -0.960  0.00  0.00    +0.026 A 
ATOM      9  C   UNL     1       1.582  -4.048  -2.154  0.00  0.00    +0.041 A 
ATOM     10  C   UNL     1       1.784  -4.787  -3.339  0.00  0.00    +0.006 A 
ATOM     11  C   UNL     1       1.857  -6.175  -3.215  0.00  0.00    +0.017 A 
ATOM     12  C   UNL     1       2.058  -7.054  -4.291  0.00  0.00    +0.047 A 
ATOM     13  C   UNL     1       2.195  -6.482  -5.545  0.00  0.00    +0.014 A 
ATOM     14  C   UNL     1       2.113  -5.098  -5.685  0.00  0.00    +0.001 A 
ATOM     15  C   UNL     1       1.921  -4.248  -4.627  0.00  0.00    +0.010 A 
ATOM     16  C   UNL     1       2.056  -8.385  -3.677  0.00  0.00    +0.251 C 
ATOM     17  O   UNL     1       2.201  -9.443  -4.261  0.00  0.00    -0.270 OA
BRANCH   5  18
ATOM     18  C   UNL     1       1.800  -9.327  -1.371  0.00  0.00    +0.114 C 
BRANCH  18  19
ATOM     19  C   UNL     1       0.351  -9.797  -1.228  0.00  0.00    +0.019 C 
BRANCH  19  21
ATOM     20  C   UNL     1      -1.166 -11.411  -0.072  0.00  0.00    +0.004 C 
ATOM     21  C   UNL     1       0.283 -10.942  -0.216  0.00  0.00    -0.002 C 
ENDBRANCH  19  21
ENDBRANCH  18  19
ENDBRANCH   5  18
ENDBRANCH   1   9
BRANCH   2  22
ATOM     22  C   UNL     1       0.847  -0.492  -1.177  0.00  0.00    +0.078 C 
ATOM     23  C   UNL     1       0.018  -0.004   0.012  0.00  0.00    +0.030 C 
ATOM     24  C   UNL     1       0.007   1.528   0.027  0.00  0.00    +0.110 C 
ATOM     25  N   UNL     1       1.395   2.010   0.021  0.00  0.00    -0.177 NA
ATOM     26  C   UNL     1       2.304   1.531  -1.029  0.00  0.00    +0.110 C 
ATOM     27  C   UNL     1       2.289  -0.001  -1.032  0.00  0.00    +0.030 C 
BRANCH  25  28
ATOM     28  S   UNL     1       1.924   3.074   1.174  0.00  0.00    +0.061 S 
ATOM     29  O   UNL     1       3.037   3.759   0.615  0.00  0.00    -0.153 OA
ATOM     30  O   UNL     1       0.774   3.756   1.656  0.00  0.00    -0.153 OA
BRANCH  28  31
ATOM     31  C   UNL     1       2.544   2.119   2.518  0.00  0.00    +0.106 A 
ATOM     32  C   UNL     1       1.700   1.748   3.549  0.00  0.00    +0.031 A 
ATOM     33  C   UNL     1       2.184   0.995   4.602  0.00  0.00    +0.040 A 
ATOM     34  C   UNL     1       3.517   0.620   4.629  0.00  0.00    +0.124 A 
ATOM     35  C   UNL     1       4.362   0.997   3.599  0.00  0.00    +0.040 A 
ATOM     36  C   UNL     1       3.875   1.746   2.545  0.00  0.00    +0.031 A 
ATOM     37  F   UNL     1       3.992  -0.112   5.660  0.00  0.00    -0.205 F 
ENDBRANCH  28  31
ENDBRANCH  25  28
ENDBRANCH   2  22
TORSDOF 7
