REMARK  Name = ZINC11911619
REMARK  11 active torsions:
REMARK  status: ('A' for Active; 'I' for Inactive)
REMARK    1  A    between atoms: C_1  and  C_2
REMARK    2  A    between atoms: C_2  and  C_3
REMARK    3  A    between atoms: C_2  and  C_4
REMARK    4  A    between atoms: C_4  and  C_5
REMARK    5  A    between atoms: C_7  and  C_11
REMARK    6  A    between atoms: C_11  and  N_71
REMARK    7  A    between atoms: C_23  and  N_29
REMARK    8  A    between atoms: C_25  and  O_27
REMARK    9  A    between atoms: O_27  and  C_28
REMARK   10  A    between atoms: C_30  and  C_32
REMARK   11  A    between atoms: C_32  and  C_33
REMARK                            x       y       z     vdW  Elec       q    Type
REMARK                         _______ _______ _______ _____ _____    ______ ____
ROOT
ATOM      1  C   UNL     1      -8.101  -0.834   1.064  0.00  0.00    -0.077 C 
ATOM      2  C   UNL     1      -6.844  -1.548   1.570  0.00  0.00    -0.005 C 
ATOM      3  C   UNL     1      -6.602  -1.171   3.029  0.00  0.00    +0.021 C 
ATOM      4  C   UNL     1      -7.828  -1.507   3.874  0.00  0.00    -0.005 C 
ATOM      5  C   UNL     1      -9.053  -0.795   3.294  0.00  0.00    -0.077 C 
ATOM      6  C   UNL     1      -5.383  -1.885   3.561  0.00  0.00    -0.034 A 
ATOM      7  C   UNL     1      -5.219  -3.192   3.991  0.00  0.00    +0.004 A 
ATOM      8  C   UNL     1      -3.989  -3.626   4.445  0.00  0.00    +0.000 A 
ATOM      9  C   UNL     1      -2.916  -2.755   4.470  0.00  0.00    +0.000 A 
ATOM     10  C   UNL     1      -3.077  -1.452   4.041  0.00  0.00    +0.006 A 
ATOM     11  C   UNL     1      -4.309  -1.014   3.587  0.00  0.00    -0.021 A 
ATOM     12  C   UNL     1      -4.739   0.344   3.073  0.00  0.00    +0.133 C 
ATOM     13  C   UNL     1      -6.282   0.331   3.138  0.00  0.00    +0.153 C 
ATOM     14  N   UNL     1      -9.251  -1.243   1.898  0.00  0.00    +0.383 N 
ATOM     15  H   UNL     1      -9.325  -2.267   1.885  0.00  0.00    -0.081 HD
ENDROOT
BRANCH  12  16
ATOM     16  N   UNL     1      -4.290   0.529   1.690  0.00  0.00    -0.306 N 
ATOM     17  C   UNL     1      -3.056   1.011   1.442  0.00  0.00    +0.218 C 
ATOM     18  O   UNL     1      -2.318   1.291   2.362  0.00  0.00    -0.275 OA
ATOM     19  H   UNL     1      -4.881   0.305   0.954  0.00  0.00    +0.149 HD
BRANCH  17  20
ATOM     20  C   UNL     1      -2.594   1.202   0.020  0.00  0.00    +0.138 C 
BRANCH  20  21
ATOM     21  C   UNL     1      -1.190   1.748   0.017  0.00  0.00    -0.001 A 
ATOM     22  C   UNL     1      -0.013   1.076   0.008  0.00  0.00    +0.011 A 
ATOM     23  C   UNL     1       1.169   1.793   0.001  0.00  0.00    +0.008 A 
ATOM     24  C   UNL     1       1.115   3.148   0.008  0.00  0.00    +0.045 A 
ATOM     25  S   UNL     1      -0.644   3.448   0.027  0.00  0.00    -0.101 S 
ENDBRANCH  20  21
ENDBRANCH  17  20
ENDBRANCH  12  16
BRANCH  13  26
ATOM     26  O   UNL     1      -6.743   0.860   4.382  0.00  0.00    -0.377 OA
ATOM     27  C   UNL     1      -6.994   2.267   4.358  0.00  0.00    +0.194 C 
ENDBRANCH  13  26
BRANCH  14  28
ATOM     28  C   UNL     1     -10.498  -0.665   1.355  0.00  0.00    -0.021 C 
BRANCH  28  31
ATOM     29  C   UNL     1     -13.324  -1.549   3.548  0.00  0.00    +0.036 A 
ATOM     30  C   UNL     1     -12.331  -0.705   3.182  0.00  0.00    +0.045 A 
ATOM     31  C   UNL     1     -11.670  -1.268   2.086  0.00  0.00    +0.047 A 
ATOM     32  N   UNL     1     -12.248  -2.406   1.800  0.00  0.00    -0.181 NA
ATOM     33  N   UNL     1     -13.292  -2.609   2.713  0.00  0.00    -0.281 N 
ATOM     34  H   UNL     1     -13.904  -3.398   2.741  0.00  0.00    +0.189 HD
BRANCH  29  35
ATOM     35  C   UNL     1     -14.292  -1.343   4.684  0.00  0.00    +0.057 C 
BRANCH  35  37
ATOM     36  C   UNL     1     -16.252  -1.254   3.138  0.00  0.00    +0.007 C 
ATOM     37  C   UNL     1     -15.467  -0.488   4.204  0.00  0.00    -0.011 C 
ATOM     38  C   UNL     1     -16.386  -0.174   5.387  0.00  0.00    +0.007 C 
ENDBRANCH  35  37
ENDBRANCH  29  35
ENDBRANCH  28  31
ENDBRANCH  14  28
TORSDOF 8
