REMARK  Name = ZINC39652591
REMARK  8 active torsions:
REMARK  status: ('A' for Active; 'I' for Inactive)
REMARK    1  A    between atoms: C_1  and  C_2
REMARK    2  A    between atoms: C_2  and  O_3
REMARK    3  A    between atoms: O_3  and  C_4
REMARK    4  A    between atoms: C_9  and  C_10
REMARK    5  A    between atoms: C_10  and  C_11
REMARK    6  A    between atoms: C_11  and  N_12
REMARK    7  A    between atoms: C_13  and  C_15
REMARK    8  A    between atoms: C_26  and  C_28
REMARK                            x       y       z     vdW  Elec       q    Type
REMARK                         _______ _______ _______ _____ _____    ______ ____
ROOT
ATOM      1  C   UNL     1       1.873   1.604   7.831  0.00  0.00    +0.100 C 
ATOM      2  C   UNL     1       2.251   2.765   6.884  0.00  0.00    +0.121 C 
ATOM      3  N   UNL     1       1.110   3.707   6.973  0.00  0.00    -0.296 N 
ATOM      4  C   UNL     1       0.729   3.692   8.406  0.00  0.00    +0.115 C 
ATOM      5  C   UNL     1       0.877   2.217   8.830  0.00  0.00    -0.004 C 
ATOM      6  C   UNL     1       1.431   2.128  10.249  0.00  0.00    -0.010 C 
ATOM      7  C   UNL     1       0.399   2.691  11.231  0.00  0.00    -0.082 C 
ATOM      8  N   UNL     1      -0.850   1.926  11.122  0.00  0.00    +0.379 N 
ATOM      9  C   UNL     1      -1.424   2.092   9.782  0.00  0.00    -0.082 C 
ATOM     10  C   UNL     1      -0.469   1.505   8.739  0.00  0.00    -0.010 C 
ATOM     11  C   UNL     1       0.545   4.417   5.976  0.00  0.00    +0.247 C 
ATOM     12  O   UNL     1       0.888   4.227   4.825  0.00  0.00    -0.270 OA
ATOM     13  H   UNL     1      -0.659   0.949  11.287  0.00  0.00    -0.086 HD
ATOM     14  H   UNL     1      -1.507   2.259  11.812  0.00  0.00    -0.086 HD
ENDROOT
BRANCH  11  15
ATOM     15  C   UNL     1      -0.491   5.426   6.282  0.00  0.00    +0.038 A 
ATOM     16  C   UNL     1      -0.588   5.963   7.567  0.00  0.00    +0.014 A 
ATOM     17  C   UNL     1      -1.556   6.904   7.847  0.00  0.00    +0.022 A 
ATOM     18  C   UNL     1      -2.432   7.316   6.857  0.00  0.00    +0.059 A 
ATOM     19  C   UNL     1      -2.341   6.787   5.579  0.00  0.00    +0.060 A 
ATOM     20  C   UNL     1      -1.372   5.849   5.285  0.00  0.00    +0.034 A 
ATOM     21 CL   UNL     1      -3.444   7.309   4.344  0.00  0.00    -0.082 Cl
ATOM     22 CL   UNL     1      -3.649   8.500   7.217  0.00  0.00    -0.082 Cl
ENDBRANCH  11  15
BRANCH   1  24
ATOM     23  N   UNL     1       1.240  -0.770   7.542  0.00  0.00    -0.315 N 
ATOM     24  C   UNL     1       1.219   0.488   7.057  0.00  0.00    +0.218 C 
ATOM     25  O   UNL     1       0.675   0.721   5.999  0.00  0.00    -0.275 OA
ATOM     26  H   UNL     1       1.675  -0.956   8.388  0.00  0.00    +0.149 HD
BRANCH  23  27
ATOM     27  C   UNL     1       0.605  -1.855   6.790  0.00  0.00    +0.109 C 
BRANCH  27  28
ATOM     28  C   UNL     1       0.770  -3.170   7.554  0.00  0.00    +0.057 C 
BRANCH  28  34
ATOM     29  C   UNL     1       0.818  -4.937   5.776  0.00  0.00    +0.124 A 
ATOM     30  C   UNL     1       0.215  -5.968   5.069  0.00  0.00    +0.046 A 
ATOM     31  C   UNL     1      -1.082  -6.340   5.364  0.00  0.00    +0.004 A 
ATOM     32  C   UNL     1      -1.780  -5.686   6.363  0.00  0.00    +0.000 A 
ATOM     33  C   UNL     1      -1.182  -4.659   7.068  0.00  0.00    +0.007 A 
ATOM     34  C   UNL     1       0.117  -4.286   6.781  0.00  0.00    -0.004 A 
BRANCH  29  35
ATOM     35  O   UNL     1       2.094  -4.569   5.487  0.00  0.00    -0.492 OA
BRANCH  35  37
ATOM     36  C   UNL     1       4.170  -4.732   4.262  0.00  0.00    +0.048 C 
ATOM     37  C   UNL     1       2.754  -5.283   4.440  0.00  0.00    +0.225 C 
ENDBRANCH  35  37
ENDBRANCH  29  35
ENDBRANCH  28  34
ENDBRANCH  27  28
ENDBRANCH  23  27
ENDBRANCH   1  24
TORSDOF 7
