REMARK  Name = ZINC08654536
REMARK  11 active torsions:
REMARK  status: ('A' for Active; 'I' for Inactive)
REMARK    1  A    between atoms: C_1  and  C_2
REMARK    2  A    between atoms: C_5  and  C_32
REMARK    3  A    between atoms: C_6  and  N_8
REMARK    4  A    between atoms: C_9  and  C_11
REMARK    5  A    between atoms: N_16  and  S_18
REMARK    6  A    between atoms: S_18  and  C_21
REMARK    7  A    between atoms: C_22  and  C_31
REMARK    8  A    between atoms: C_25  and  C_26
REMARK    9  A    between atoms: C_27  and  N_28
REMARK   10  A    between atoms: N_28  and  C_29
REMARK   11  A    between atoms: N_28  and  C_30
REMARK                            x       y       z     vdW  Elec       q    Type
REMARK                         _______ _______ _______ _____ _____    ______ ____
ROOT
ATOM      1  C   UNL     1       0.280  -2.900   4.854  0.00  0.00    +0.091 C 
ATOM      2  C   UNL     1      -0.945  -3.797   5.041  0.00  0.00    +0.015 C 
ATOM      3  C   UNL     1      -0.799  -4.600   6.336  0.00  0.00    +0.018 C 
ATOM      4  C   UNL     1      -0.720  -3.635   7.523  0.00  0.00    +0.109 C 
ATOM      5  N   UNL     1       0.366  -2.676   7.282  0.00  0.00    -0.176 NA
ATOM      6  C   UNL     1       0.372  -1.916   6.024  0.00  0.00    +0.122 C 
ENDROOT
BRANCH   1   8
ATOM      7  N   UNL     1       0.052  -2.797   2.393  0.00  0.00    -0.285 N 
ATOM      8  C   UNL     1       0.150  -2.135   3.562  0.00  0.00    +0.222 C 
ATOM      9  O   UNL     1       0.134  -0.922   3.575  0.00  0.00    -0.275 OA
ATOM     10  H   UNL     1      -0.016  -3.765   2.388  0.00  0.00    +0.155 HD
BRANCH   7  16
ATOM     11  C   UNL     1       1.264   1.227  -0.158  0.00  0.00    +0.044 C 
ATOM     12  C   UNL     1       0.628  -0.137  -0.079  0.00  0.00    -0.049 A 
ATOM     13  C   UNL     1       0.038  -0.690  -1.201  0.00  0.00    +0.004 A 
ATOM     14  C   UNL     1      -0.546  -1.941  -1.133  0.00  0.00    +0.005 A 
ATOM     15  C   UNL     1      -0.543  -2.643   0.057  0.00  0.00    -0.029 A 
ATOM     16  C   UNL     1       0.048  -2.090   1.185  0.00  0.00    +0.037 A 
ATOM     17  C   UNL     1       0.639  -0.835   1.112  0.00  0.00    +0.027 A 
ATOM     18  C   UNL     1      -1.181  -4.006   0.131  0.00  0.00    +0.045 C 
ENDBRANCH   7  16
ENDBRANCH   1   8
BRANCH   5  19
ATOM     19  S   UNL     1       1.562  -2.455   8.406  0.00  0.00    +0.066 S 
ATOM     20  O   UNL     1       2.095  -1.157   8.182  0.00  0.00    -0.153 OA
ATOM     21  O   UNL     1       1.020  -2.850   9.659  0.00  0.00    -0.153 OA
BRANCH  19  22
ATOM     22  C   UNL     1       2.848  -3.599   8.031  0.00  0.00    +0.174 A 
ATOM     23  C   UNL     1       2.957  -4.907   8.523  0.00  0.00    +0.107 A 
ATOM     24  N   UNL     1       4.036  -5.444   8.024  0.00  0.00    -0.081 NA
ATOM     25  O   UNL     1       4.661  -4.488   7.187  0.00  0.00    -0.353 OA
ATOM     26  C   UNL     1       3.910  -3.370   7.206  0.00  0.00    +0.188 A 
ATOM     27  C   UNL     1       1.993  -5.578   9.466  0.00  0.00    +0.071 C 
BRANCH  26  28
ATOM     28  C   UNL     1       4.186  -2.125   6.471  0.00  0.00    +0.064 C 
ATOM     29  C   UNL     1       5.263  -2.036   5.697  0.00  0.00    +0.056 C 
BRANCH  29  30
ATOM     30  N   UNL     1       5.526  -0.853   4.999  0.00  0.00    -0.404 NA
ATOM     31  C   UNL     1       6.826  -0.315   5.420  0.00  0.00    +0.106 C 
ATOM     32  C   UNL     1       5.555  -1.132   3.557  0.00  0.00    +0.106 C 
ATOM     33  H   UNL     1       4.802  -0.178   5.197  0.00  0.00    +0.125 HD
ENDBRANCH  29  30
ENDBRANCH  26  28
ENDBRANCH  19  22
ENDBRANCH   5  19
TORSDOF 6
