REMARK  Name = ZINC02237222
REMARK  7 active torsions:
REMARK  status: ('A' for Active; 'I' for Inactive)
REMARK    1  A    between atoms: C_7  and  C_21
REMARK    2  A    between atoms: N_9  and  C_10
REMARK    3  A    between atoms: C_10  and  C_11
REMARK    4  A    between atoms: C_11  and  C_12
REMARK    5  A    between atoms: C_12  and  O_13
REMARK    6  A    between atoms: O_13  and  C_14
REMARK    7  A    between atoms: N_28  and  C_31
REMARK                            x       y       z     vdW  Elec       q    Type
REMARK                         _______ _______ _______ _____ _____    ______ ____
ROOT
ATOM      1  C   UNL     1       9.398   4.776  -0.831  0.00  0.00    +0.001 A 
ATOM      2  C   UNL     1       8.949   6.085  -0.739  0.00  0.00    +0.002 A 
ATOM      3  C   UNL     1       7.620   6.356  -0.493  0.00  0.00    +0.026 A 
ATOM      4  C   UNL     1       6.716   5.310  -0.336  0.00  0.00    +0.050 A 
ATOM      5  C   UNL     1       7.173   3.987  -0.429  0.00  0.00    +0.007 A 
ATOM      6  C   UNL     1       8.517   3.727  -0.677  0.00  0.00    +0.010 A 
ATOM      7  C   UNL     1       5.986   3.134  -0.218  0.00  0.00    +0.001 A 
ATOM      8  C   UNL     1       4.922   3.999  -0.023  0.00  0.00    +0.094 A 
ATOM      9  N   UNL     1       5.358   5.270  -0.087  0.00  0.00    -0.346 N 
ENDROOT
BRANCH   7  10
ATOM     10  C   UNL     1       5.943   1.725  -0.221  0.00  0.00    +0.028 C 
ATOM     11  C   UNL     1       5.227   1.050   0.759  0.00  0.00    +0.100 C 
ATOM     12  C   UNL     1       4.998  -0.403   0.681  0.00  0.00    +0.257 C 
ATOM     13  O   UNL     1       5.432  -1.054  -0.251  0.00  0.00    -0.270 OA
ATOM     14  N   UNL     1       4.293  -0.992   1.669  0.00  0.00    -0.235 N 
ATOM     15  C   UNL     1       3.814  -0.287   2.703  0.00  0.00    +0.320 C 
ATOM     16  O   UNL     1       3.192  -0.878   3.564  0.00  0.00    -0.251 OA
ATOM     17  N   UNL     1       3.980   1.037   2.836  0.00  0.00    -0.190 N 
ATOM     18  C   UNL     1       4.664   1.757   1.923  0.00  0.00    +0.263 C 
ATOM     19  O   UNL     1       4.812   2.957   2.058  0.00  0.00    -0.269 OA
ATOM     20  H   UNL     1       4.133  -1.948   1.632  0.00  0.00    +0.159 HD
BRANCH  17  21
ATOM     21  C   UNL     1       3.434   1.687   3.952  0.00  0.00    +0.046 A 
ATOM     22  C   UNL     1       2.057   1.758   4.111  0.00  0.00    +0.027 A 
ATOM     23  C   UNL     1       1.522   2.404   5.208  0.00  0.00    +0.040 A 
ATOM     24  C   UNL     1       2.358   2.972   6.155  0.00  0.00    +0.124 A 
ATOM     25  C   UNL     1       3.732   2.902   5.998  0.00  0.00    +0.040 A 
ATOM     26  C   UNL     1       4.271   2.262   4.900  0.00  0.00    +0.027 A 
ATOM     27  F   UNL     1       1.833   3.600   7.230  0.00  0.00    -0.205 F 
ENDBRANCH  17  21
ENDBRANCH   7  10
BRANCH   9  28
ATOM     28  C   UNL     1       4.507   6.451   0.077  0.00  0.00    +0.125 C 
BRANCH  28  29
ATOM     29  C   UNL     1       4.051   6.947  -1.296  0.00  0.00    +0.062 C 
BRANCH  29  30
ATOM     30  C   UNL     1       3.163   8.180  -1.125  0.00  0.00    +0.231 C 
BRANCH  30  31
ATOM     31  O   UNL     1       2.737   8.643  -2.408  0.00  0.00    -0.490 OA
BRANCH  31  32
ATOM     32  C   UNL     1       1.935   9.740  -2.433  0.00  0.00    +0.139 A 
ATOM     33  C   UNL     1       1.560  10.354  -1.247  0.00  0.00    +0.047 A 
ATOM     34  C   UNL     1       0.749  11.472  -1.276  0.00  0.00    +0.004 A 
ATOM     35  C   UNL     1       0.301  11.973  -2.484  0.00  0.00    +0.002 A 
ATOM     36  C   UNL     1       0.668  11.360  -3.668  0.00  0.00    +0.023 A 
ATOM     37  C   UNL     1       1.484  10.244  -3.645  0.00  0.00    +0.083 A 
ATOM     38 CL   UNL     1       1.945   9.475  -5.132  0.00  0.00    -0.080 Cl
ENDBRANCH  31  32
ENDBRANCH  30  31
ENDBRANCH  29  30
ENDBRANCH  28  29
ENDBRANCH   9  28
TORSDOF 7
