REMARK  Name = ZINC35476668
REMARK  9 active torsions:
REMARK  status: ('A' for Active; 'I' for Inactive)
REMARK    1  A    between atoms: C_1  and  C_2
REMARK    2  A    between atoms: C_5  and  C_8
REMARK    3  A    between atoms: C_8  and  C_10
REMARK    4  A    between atoms: C_8  and  N_11
REMARK    5  A    between atoms: C_12  and  C_14
REMARK    6  A    between atoms: C_14  and  C_15
REMARK    7  A    between atoms: C_15  and  C_16
REMARK    8  A    between atoms: C_18  and  C_21
REMARK    9  A    between atoms: C_26  and  C_32
REMARK                            x       y       z     vdW  Elec       q    Type
REMARK                         _______ _______ _______ _____ _____    ______ ____
ROOT
ATOM      1  C   UNL     1       3.898  -8.359   2.712  0.00  0.00    +0.228 A 
ATOM      2  N   UNL     1       3.544  -9.048   3.759  0.00  0.00    -0.191 NA
ATOM      3  C   UNL     1       4.623  -9.324   4.515  0.00  0.00    +0.207 A 
ATOM      4  N   UNL     1       5.680  -8.801   3.941  0.00  0.00    -0.056 NA
ATOM      5  O   UNL     1       5.223  -8.170   2.755  0.00  0.00    -0.338 OA
ENDROOT
BRANCH   3   6
ATOM      6  C   UNL     1       4.617 -10.088   5.784  0.00  0.00    +0.087 A 
ATOM      7  C   UNL     1       5.782 -10.299   6.467  0.00  0.00    +0.027 A 
ATOM      8  C   UNL     1       5.751 -11.034   7.679  0.00  0.00    -0.001 A 
ATOM      9  C   UNL     1       6.933 -11.263   8.399  0.00  0.00    +0.010 A 
ATOM     10  C   UNL     1       6.892 -11.972   9.565  0.00  0.00    +0.004 A 
ATOM     11  C   UNL     1       5.688 -12.469  10.047  0.00  0.00    -0.048 A 
ATOM     12  C   UNL     1       4.515 -12.257   9.357  0.00  0.00    +0.029 A 
ATOM     13  C   UNL     1       4.530 -11.537   8.165  0.00  0.00    +0.049 A 
ATOM     14  N   UNL     1       3.359 -11.321   7.470  0.00  0.00    -0.322 N 
ATOM     15  C   UNL     1       3.361 -10.620   6.320  0.00  0.00    +0.260 A 
ATOM     16  O   UNL     1       2.318 -10.433   5.721  0.00  0.00    -0.267 OA
ATOM     17  C   UNL     1       5.666 -13.249  11.336  0.00  0.00    +0.044 C 
ATOM     18  H   UNL     1       2.524 -11.672   7.816  0.00  0.00    +0.169 HD
ENDBRANCH   3   6
BRANCH   1  19
ATOM     19  C   UNL     1       2.972  -7.862   1.632  0.00  0.00    +0.108 C 
BRANCH  19  20
ATOM     20  C   UNL     1       2.460  -6.468   1.999  0.00  0.00    +0.105 C 
BRANCH  20  22
ATOM     21  N   UNL     1       0.959  -4.758   1.029  0.00  0.00    -0.309 N 
ATOM     22  C   UNL     1       1.534  -5.972   0.919  0.00  0.00    +0.214 C 
ATOM     23  O   UNL     1       1.306  -6.665  -0.050  0.00  0.00    -0.276 OA
ATOM     24  H   UNL     1       1.142  -4.204   1.804  0.00  0.00    +0.149 HD
BRANCH  21  25
ATOM     25  C   UNL     1       0.059  -4.275  -0.021  0.00  0.00    +0.100 C 
ATOM     26  C   UNL     1      -1.353  -4.805   0.234  0.00  0.00    +0.033 C 
BRANCH  25  31
ATOM     27  C   UNL     1      -0.018   1.503   0.010  0.00  0.00    +0.044 C 
ATOM     28  C   UNL     1       0.002  -0.004   0.002  0.00  0.00    -0.050 A 
ATOM     29  C   UNL     1       0.006  -0.689  -1.199  0.00  0.00    +0.004 A 
ATOM     30  C   UNL     1       0.025  -2.071  -1.206  0.00  0.00    +0.006 A 
ATOM     31  C   UNL     1       0.040  -2.768  -0.013  0.00  0.00    -0.027 A 
ATOM     32  C   UNL     1       0.037  -2.084   1.188  0.00  0.00    +0.006 A 
ATOM     33  C   UNL     1       0.023  -0.702   1.195  0.00  0.00    +0.004 A 
ENDBRANCH  25  31
ENDBRANCH  21  25
ENDBRANCH  20  22
ENDBRANCH  19  20
ENDBRANCH   1  19
TORSDOF 6
