REMARK  Name = ZINC14960536
REMARK  7 active torsions:
REMARK  status: ('A' for Active; 'I' for Inactive)
REMARK    1  A    between atoms: C_1  and  N_2
REMARK    2  A    between atoms: C_6  and  S_7
REMARK    3  A    between atoms: S_7  and  C_8
REMARK    4  A    between atoms: C_11  and  C_13
REMARK    5  A    between atoms: C_13  and  N_57
REMARK    6  A    between atoms: N_18  and  C_21
REMARK    7  A    between atoms: C_21  and  C_22
REMARK                            x       y       z     vdW  Elec       q    Type
REMARK                         _______ _______ _______ _____ _____    ______ ____
ROOT
ATOM      1  C   UNL     1       3.415   5.682   2.063  0.00  0.00    -0.069 C 
ATOM      2  C   UNL     1       4.271   5.588   3.330  0.00  0.00    +0.077 C 
ATOM      3  C   UNL     1       3.528   6.271   4.460  0.00  0.00    +0.214 C 
ATOM      4  O   UNL     1       3.066   5.613   5.368  0.00  0.00    -0.276 OA
ATOM      5  N   UNL     1       3.385   7.599   4.455  0.00  0.00    -0.303 N 
ATOM      6  C   UNL     1       3.952   8.400   3.357  0.00  0.00    +0.089 C 
ATOM      7  C   UNL     1       3.135   8.135   2.090  0.00  0.00    -0.059 C 
ATOM      8  N   UNL     1       3.689   6.960   1.363  0.00  0.00    +0.386 N 
ATOM      9  H   UNL     1       4.707   7.076   1.294  0.00  0.00    -0.081 HD
ENDROOT
BRANCH   8  10
ATOM     10  C   UNL     1       3.128   6.914   0.012  0.00  0.00    -0.003 C 
BRANCH  10  14
ATOM     11  C   UNL     1      -0.364   5.838   0.037  0.00  0.00    +0.169 A 
ATOM     12  C   UNL     1      -0.547   7.180   0.045  0.00  0.00    +0.057 A 
ATOM     13  C   UNL     1       0.738   7.768   0.037  0.00  0.00    +0.044 A 
ATOM     14  C   UNL     1       1.629   6.761   0.024  0.00  0.00    +0.090 A 
ATOM     15  O   UNL     1       0.958   5.595   0.029  0.00  0.00    -0.455 OA
BRANCH  11  16
ATOM     16  S   UNL     1      -1.638   4.622   0.042  0.00  0.00    -0.012 S 
BRANCH  16  22
ATOM     17  C   UNL     1      -2.523   1.435   0.020  0.00  0.00    +0.152 C 
ATOM     18  N   UNL     1      -1.125   1.871   0.017  0.00  0.00    -0.311 N 
ATOM     19  C   UNL     1      -0.013   1.076   0.008  0.00  0.00    +0.225 A 
ATOM     20  N   UNL     1       1.027   1.862   0.002  0.00  0.00    -0.137 NA
ATOM     21  N   UNL     1       0.650   3.091   0.013  0.00  0.00    -0.122 NA
ATOM     22  C   UNL     1      -0.661   3.155   0.025  0.00  0.00    +0.199 A 
ENDBRANCH  16  22
ENDBRANCH  11  16
ENDBRANCH  10  14
ENDBRANCH   8  10
BRANCH   5  23
ATOM     23  C   UNL     1       2.662   8.260   5.545  0.00  0.00    +0.111 C 
BRANCH  23  24
ATOM     24  C   UNL     1       3.643   8.627   6.660  0.00  0.00    +0.006 C 
ATOM     25  C   UNL     1       4.219   7.348   7.273  0.00  0.00    +0.005 C 
ATOM     26  C   UNL     1       5.200   7.715   8.388  0.00  0.00    +0.000 C 
ATOM     27  C   UNL     1       4.470   8.515   9.468  0.00  0.00    +0.000 C 
ATOM     28  C   UNL     1       3.894   9.793   8.855  0.00  0.00    +0.000 C 
ATOM     29  C   UNL     1       2.913   9.427   7.740  0.00  0.00    +0.005 C 
ENDBRANCH  23  24
ENDBRANCH   5  23
TORSDOF 6
