REMARK  Name = ZINC36597312
REMARK  20 active torsions:
REMARK  status: ('A' for Active; 'I' for Inactive)
REMARK    1  A    between atoms: C_1  and  C_2
REMARK    2  A    between atoms: C_5  and  C_7
REMARK    3  A    between atoms: C_7  and  N_8
REMARK    4  A    between atoms: N_8  and  C_9
REMARK    5  A    between atoms: C_9  and  C_11
REMARK    6  A    between atoms: C_9  and  C_21
REMARK    7  A    between atoms: C_14  and  O_19
REMARK    8  A    between atoms: C_15  and  O_17
REMARK    9  A    between atoms: O_17  and  C_18
REMARK   10  A    between atoms: O_19  and  C_20
REMARK   11  A    between atoms: N_23  and  C_24
REMARK   12  A    between atoms: C_24  and  C_25
REMARK   13  A    between atoms: C_24  and  C_26
REMARK   14  A    between atoms: C_24  and  C_27
REMARK   15  A    between atoms: C_27  and  C_28
REMARK   16  A    between atoms: C_28  and  C_29
REMARK   17  A    between atoms: C_28  and  C_30
REMARK   18  A    between atoms: C_28  and  C_31
REMARK   19  A    between atoms: C_32  and  C_34
REMARK   20  A    between atoms: C_37  and  O_40
REMARK                            x       y       z     vdW  Elec       q    Type
REMARK                         _______ _______ _______ _____ _____    ______ ____
ROOT
ATOM      1  C   UNL     1       1.961  -1.626  -3.586  0.00  0.00    +0.193 C 
ENDROOT
BRANCH   1   2
ATOM      2  C   UNL     1       3.078  -2.399  -2.935  0.00  0.00    -0.015 A 
ATOM      3  C   UNL     1       3.140  -2.494  -1.558  0.00  0.00    +0.010 A 
ATOM      4  C   UNL     1       4.163  -3.203  -0.956  0.00  0.00    +0.050 A 
ATOM      5  C   UNL     1       5.130  -3.820  -1.734  0.00  0.00    +0.162 A 
ATOM      6  C   UNL     1       5.067  -3.725  -3.120  0.00  0.00    +0.162 A 
ATOM      7  C   UNL     1       4.036  -3.017  -3.717  0.00  0.00    +0.055 A 
BRANCH   6   8
ATOM      8  O   UNL     1       6.013  -4.329  -3.888  0.00  0.00    -0.491 OA
ATOM      9  C   UNL     1       5.950  -4.097  -5.297  0.00  0.00    +0.277 C 
ENDBRANCH   6   8
BRANCH   5  10
ATOM     10  O   UNL     1       6.137  -4.517  -1.143  0.00  0.00    -0.491 OA
ATOM     11  C   UNL     1       6.138  -4.572   0.285  0.00  0.00    +0.277 C 
ENDBRANCH   5  10
ENDBRANCH   1   2
BRANCH   1  12
ATOM     12  C   UNL     1       2.359  -0.178  -3.712  0.00  0.00    +0.239 C 
ATOM     13  O   UNL     1       1.701   0.682  -3.165  0.00  0.00    -0.273 OA
ATOM     14  N   UNL     1       3.446   0.162  -4.433  0.00  0.00    -0.308 N 
ATOM     15  H   UNL     1       3.972  -0.525  -4.871  0.00  0.00    +0.149 HD
BRANCH  14  16
ATOM     16  C   UNL     1       3.833   1.570  -4.556  0.00  0.00    +0.030 C 
ATOM     17  C   UNL     1       2.869   2.283  -5.506  0.00  0.00    +0.031 C 
ATOM     18  C   UNL     1       3.778   2.235  -3.179  0.00  0.00    +0.031 C 
BRANCH  16  19
ATOM     19  C   UNL     1       5.256   1.661  -5.109  0.00  0.00    +0.031 C 
BRANCH  19  20
ATOM     20  C   UNL     1       6.193   0.808  -4.250  0.00  0.00    -0.036 C 
ATOM     21  C   UNL     1       5.979  -0.671  -4.577  0.00  0.00    +0.010 C 
ATOM     22  C   UNL     1       7.645   1.191  -4.546  0.00  0.00    +0.010 C 
ATOM     23  C   UNL     1       5.892   1.053  -2.771  0.00  0.00    +0.010 C 
ENDBRANCH  19  20
ENDBRANCH  16  19
ENDBRANCH  14  16
ENDBRANCH   1  12
BRANCH   1  24
ATOM     24  N   UNL     1       0.752  -1.730  -2.765  0.00  0.00    -0.275 N 
ATOM     25  C   UNL     1       0.116  -2.913  -2.649  0.00  0.00    +0.248 C 
ATOM     26  O   UNL     1      -0.896  -2.996  -1.981  0.00  0.00    -0.270 OA
BRANCH  25  27
ATOM     27  C   UNL     1       0.650  -4.108  -3.332  0.00  0.00    +0.037 A 
ATOM     28  C   UNL     1       1.810  -4.013  -4.106  0.00  0.00    +0.016 A 
ATOM     29  C   UNL     1       2.304  -5.130  -4.741  0.00  0.00    +0.046 A 
ATOM     30  C   UNL     1       1.652  -6.351  -4.613  0.00  0.00    +0.117 A 
ATOM     31  C   UNL     1       0.498  -6.449  -3.845  0.00  0.00    +0.046 A 
ATOM     32  C   UNL     1       0.000  -5.338  -3.201  0.00  0.00    +0.016 A 
BRANCH  30  33
ATOM     33  O   UNL     1       2.142  -7.449  -5.242  0.00  0.00    -0.507 OA
ATOM     34  H   UNL     1       2.774  -7.955  -4.713  0.00  0.00    +0.292 HD
ENDBRANCH  30  33
ENDBRANCH  25  27
BRANCH  24  35
ATOM     35  C   UNL     1       0.234  -0.548  -2.071  0.00  0.00    +0.183 C 
BRANCH  35  40
ATOM     36  C   UNL     1      -0.937   3.043  -5.413  0.00  0.00    +0.086 C 
ATOM     37  C   UNL     1      -1.064   1.858  -4.491  0.00  0.00    +0.102 A 
ATOM     38  C   UNL     1      -2.180   1.134  -4.290  0.00  0.00    +0.045 A 
ATOM     39  C   UNL     1      -1.852   0.127  -3.354  0.00  0.00    +0.046 A 
ATOM     40  C   UNL     1      -0.555   0.296  -3.038  0.00  0.00    +0.122 A 
ATOM     41  O   UNL     1      -0.082   1.343  -3.734  0.00  0.00    -0.463 OA
ENDBRANCH  35  40
ENDBRANCH  24  35
ENDBRANCH   1  24
TORSDOF 12
