REMARK  Name = ZINC01424398
REMARK  7 active torsions:
REMARK  status: ('A' for Active; 'I' for Inactive)
REMARK    1  A    between atoms: C_1  and  C_2
REMARK    2  A    between atoms: C_2  and  C_34
REMARK    3  A    between atoms: C_6  and  C_22
REMARK    4  A    between atoms: N_8  and  C_16
REMARK    5  A    between atoms: C_16  and  N_18
REMARK    6  A    between atoms: N_18  and  C_19
REMARK    7  A    between atoms: C_26  and  N_28
REMARK                            x       y       z     vdW  Elec       q    Type
REMARK                         _______ _______ _______ _____ _____    ______ ____
ROOT
ATOM      1  C   UNL     1      -6.463   0.729   0.555  0.00  0.00    +0.011 C 
ATOM      2  C   UNL     1      -5.748   0.098   1.751  0.00  0.00    -0.023 C 
ATOM      3  C   UNL     1      -4.290  -0.185   1.393  0.00  0.00    +0.058 C 
ATOM      4  C   UNL     1      -3.587   1.109   1.017  0.00  0.00    +0.017 C 
ATOM      5  C   UNL     1      -3.939   2.268   1.597  0.00  0.00    +0.037 C 
ATOM      6  C   UNL     1      -3.312   3.617   1.336  0.00  0.00    +0.146 C 
ATOM      7  N   UNL     1      -2.434   3.657   0.186  0.00  0.00    -0.269 N 
ATOM      8  C   UNL     1      -1.252   2.916   0.155  0.00  0.00    +0.057 A 
ATOM      9  C   UNL     1      -0.010   3.531   0.136  0.00  0.00    +0.025 A 
ATOM     10  C   UNL     1       1.134   2.754   0.164  0.00  0.00    +0.002 A 
ATOM     11  C   UNL     1       1.043   1.375   0.223  0.00  0.00    +0.002 A 
ATOM     12  C   UNL     1      -0.196   0.757   0.233  0.00  0.00    +0.025 A 
ATOM     13  C   UNL     1      -1.341   1.532   0.173  0.00  0.00    +0.053 A 
ATOM     14  N   UNL     1      -2.611   0.974   0.084  0.00  0.00    -0.316 N 
ATOM     15  C   UNL     1      -4.987   2.300   2.548  0.00  0.00    +0.163 C 
ATOM     16  O   UNL     1      -5.273   3.360   3.070  0.00  0.00    -0.292 OA
ATOM     17  C   UNL     1      -5.756   1.073   2.935  0.00  0.00    +0.086 C 
ATOM     18  C   UNL     1      -6.447  -1.204   2.145  0.00  0.00    +0.011 C 
ATOM     19  H   UNL     1      -2.814   0.451  -0.707  0.00  0.00    +0.152 HD
ENDROOT
BRANCH   6  20
ATOM     20  C   UNL     1      -2.523   4.021   2.554  0.00  0.00    -0.020 A 
ATOM     21  C   UNL     1      -2.914   5.119   3.299  0.00  0.00    +0.006 A 
ATOM     22  C   UNL     1      -2.190   5.489   4.416  0.00  0.00    +0.003 A 
ATOM     23  C   UNL     1      -1.075   4.762   4.790  0.00  0.00    +0.033 A 
ATOM     24  C   UNL     1      -0.684   3.665   4.046  0.00  0.00    +0.127 A 
ATOM     25  C   UNL     1      -1.411   3.292   2.931  0.00  0.00    +0.038 A 
BRANCH  24  26
ATOM     26  N   UNL     1       0.510   2.887   4.446  0.00  0.00    +0.056 N 
ATOM     27  O   UNL     1       1.147   3.213   5.431  0.00  0.00    -0.126 OA
ATOM     28  O   UNL     1       0.855   1.920   3.790  0.00  0.00    -0.126 OA
ENDBRANCH  24  26
ENDBRANCH   6  20
BRANCH   7  29
ATOM     29  C   UNL     1      -2.763   4.424  -0.873  0.00  0.00    +0.138 C 
ATOM     30  S   UNL     1      -4.210   5.339  -0.850  0.00  0.00    -0.018 S 
BRANCH  29  31
ATOM     31  N   UNL     1      -1.953   4.470  -1.949  0.00  0.00    -0.323 N 
ATOM     32  H   UNL     1      -1.133   3.951  -1.962  0.00  0.00    +0.148 HD
BRANCH  31  33
ATOM     33  C   UNL     1      -2.311   5.303  -3.100  0.00  0.00    +0.072 C 
ATOM     34  C   UNL     1      -2.125   4.700  -4.494  0.00  0.00    +0.024 C 
ATOM     35  C   UNL     1      -1.173   5.792  -3.999  0.00  0.00    +0.024 C 
ENDBRANCH  31  33
ENDBRANCH  29  31
ENDBRANCH   7  29
TORSDOF 5
