REMARK  Name = ZINC12528115
REMARK  3 active torsions:
REMARK  status: ('A' for Active; 'I' for Inactive)
REMARK    1  A    between atoms: C_4  and  C_7
REMARK    2  A    between atoms: C_15  and  C_18
REMARK    3  A    between atoms: C_23  and  N_24
REMARK                            x       y       z     vdW  Elec       q    Type
REMARK                         _______ _______ _______ _____ _____    ______ ____
ROOT
ATOM      1  C   UNL     1       3.724  -0.647  -0.025  0.00  0.00    +0.070 C 
ATOM      2  N   UNL     1       4.889  -0.096  -0.010  0.00  0.00    -0.189 NA
ATOM      3  N   UNL     1       5.948  -1.003  -0.029  0.00  0.00    -0.238 N 
ATOM      4  C   UNL     1       5.400  -2.362  -0.062  0.00  0.00    +0.198 C 
ATOM      5  C   UNL     1       3.878  -2.152  -0.054  0.00  0.00    +0.112 C 
ATOM      6  C   UNL     1       5.824  -3.138   1.153  0.00  0.00    +0.279 C 
ATOM      7  O   UNL     1       5.212  -3.017   2.196  0.00  0.00    -0.270 OA
ATOM      8  N   UNL     1       6.872  -3.960   1.085  0.00  0.00    -0.161 NA
ATOM      9  C   UNL     1       7.533  -4.112  -0.054  0.00  0.00    +0.134 C 
ATOM     10  N   UNL     1       7.136  -3.430  -1.173  0.00  0.00    -0.264 N 
ATOM     11  N   UNL     1       5.817  -3.062  -1.282  0.00  0.00    -0.209 NA
ATOM     12  H   UNL     1       6.890  -0.773  -0.023  0.00  0.00    +0.171 HD
ATOM     13  H   UNL     1       7.771  -3.211  -1.872  0.00  0.00    +0.168 HD
ATOM     14  H   UNL     1       5.231  -3.864  -1.457  0.00  0.00    +0.147 HD
ENDROOT
BRANCH   1  18
ATOM     15  C   UNL     1       0.026   1.437   0.016  0.00  0.00    +0.000 A 
ATOM     16  C   UNL     1       1.215   2.144   0.029  0.00  0.00    +0.001 A 
ATOM     17  C   UNL     1       2.421   1.474   0.016  0.00  0.00    +0.010 A 
ATOM     18  C   UNL     1       2.439   0.077  -0.011  0.00  0.00    -0.002 A 
ATOM     19  C   UNL     1       1.234  -0.630  -0.024  0.00  0.00    +0.010 A 
ATOM     20  C   UNL     1       0.037   0.054  -0.011  0.00  0.00    +0.001 A 
ENDBRANCH   1  18
BRANCH   9  21
ATOM     21  C   UNL     1       8.694  -5.013  -0.117  0.00  0.00    +0.034 A 
ATOM     22  C   UNL     1       9.321  -5.270  -1.341  0.00  0.00    +0.013 A 
ATOM     23  C   UNL     1      10.408  -6.114  -1.392  0.00  0.00    +0.001 A 
ATOM     24  C   UNL     1      10.886  -6.712  -0.235  0.00  0.00    +0.002 A 
ATOM     25  C   UNL     1      10.279  -6.469   0.980  0.00  0.00    +0.023 A 
ATOM     26  C   UNL     1       9.185  -5.617   1.054  0.00  0.00    +0.035 A 
BRANCH  26  27
ATOM     27  N   UNL     1       8.576  -5.366   2.276  0.00  0.00    -0.357 N 
ATOM     28  H   UNL     1       7.765  -4.836   2.314  0.00  0.00    +0.142 HD
ATOM     29  H   UNL     1       8.963  -5.721   3.092  0.00  0.00    +0.142 HD
ENDBRANCH  26  27
ENDBRANCH   9  21
TORSDOF 3
