REMARK  Name = ZINC26540760
REMARK  10 active torsions:
REMARK  status: ('A' for Active; 'I' for Inactive)
REMARK    1  A    between atoms: C_1  and  C_2
REMARK    2  A    between atoms: C_2  and  C_3
REMARK    3  A    between atoms: C_3  and  N_4
REMARK    4  A    between atoms: N_4  and  C_5
REMARK    5  A    between atoms: C_8  and  S_23
REMARK    6  A    between atoms: C_10  and  N_11
REMARK    7  A    between atoms: N_11  and  S_12
REMARK    8  A    between atoms: S_12  and  C_15
REMARK    9  A    between atoms: C_18  and  C_22
REMARK   10  A    between atoms: S_23  and  N_26
REMARK                            x       y       z     vdW  Elec       q    Type
REMARK                         _______ _______ _______ _____ _____    ______ ____
ROOT
ATOM      1  C   UNL     1       2.312   1.224  -0.587  0.00  0.00    +0.050 A 
ATOM      2  C   UNL     1       3.502   1.933  -0.650  0.00  0.00    +0.027 A 
ATOM      3  C   UNL     1       3.572   3.214  -0.134  0.00  0.00    +0.030 A 
ATOM      4  C   UNL     1       2.455   3.794   0.439  0.00  0.00    +0.107 A 
ATOM      5  C   UNL     1       1.263   3.097   0.500  0.00  0.00    +0.054 A 
ATOM      6  C   UNL     1       1.184   1.812  -0.014  0.00  0.00    +0.071 A 
ENDROOT
BRANCH   4   7
ATOM      7  S   UNL     1       2.553   5.427   1.094  0.00  0.00    +0.056 S 
ATOM      8  O   UNL     1       3.630   6.069   0.425  0.00  0.00    -0.153 OA
ATOM      9  O   UNL     1       1.231   5.948   1.085  0.00  0.00    -0.153 OA
BRANCH   7  10
ATOM     10  N   UNL     1       2.997   5.291   2.684  0.00  0.00    -0.204 NA
ATOM     11  H   UNL     1       3.069   6.294   3.131  0.00  0.00    +0.144 HD
ATOM     12  H   UNL     1       3.973   4.789   2.750  0.00  0.00    +0.144 HD
ENDBRANCH   7  10
ENDBRANCH   4   7
BRANCH   1  13
ATOM     13  N   UNL     1       2.240  -0.075  -1.104  0.00  0.00    -0.342 N 
ATOM     14  H   UNL     1       1.294  -0.634  -1.058  0.00  0.00    +0.146 HD
BRANCH  13  15
ATOM     15  C   UNL     1       3.426  -0.691  -1.705  0.00  0.00    +0.101 C 
BRANCH  15  17
ATOM     16  C   UNL     1       4.318  -2.744  -2.814  0.00  0.00    +0.005 C 
ATOM     17  C   UNL     1       3.080  -2.101  -2.186  0.00  0.00    +0.015 C 
ENDBRANCH  15  17
ENDBRANCH  13  15
ENDBRANCH   1  13
BRANCH   6  18
ATOM     18  N   UNL     1      -0.023   1.104   0.046  0.00  0.00    -0.214 N 
ATOM     19  H   UNL     1      -0.015   0.016   0.207  0.00  0.00    +0.174 HD
BRANCH  18  20
ATOM     20  S   UNL     1      -1.462   1.905  -0.125  0.00  0.00    +0.074 S 
ATOM     21  O   UNL     1      -1.313   2.774  -1.239  0.00  0.00    -0.150 OA
ATOM     22  O   UNL     1      -2.485   0.921  -0.057  0.00  0.00    -0.150 OA
BRANCH  20  23
ATOM     23  C   UNL     1      -1.657   2.934   1.293  0.00  0.00    +0.127 A 
ATOM     24  C   UNL     1      -1.702   4.308   1.149  0.00  0.00    +0.030 A 
ATOM     25  C   UNL     1      -1.856   5.115   2.261  0.00  0.00    +0.005 A 
ATOM     26  C   UNL     1      -1.965   4.548   3.517  0.00  0.00    -0.049 A 
ATOM     27  C   UNL     1      -1.919   3.174   3.662  0.00  0.00    +0.025 A 
ATOM     28  C   UNL     1      -1.771   2.366   2.549  0.00  0.00    +0.068 A 
ATOM     29 CL   UNL     1      -1.722   0.640   2.730  0.00  0.00    -0.082 Cl
ATOM     30  C   UNL     1      -2.133   5.428   4.729  0.00  0.00    +0.044 C 
ENDBRANCH  20  23
ENDBRANCH  18  20
ENDBRANCH   6  18
TORSDOF 8
