REMARK  Name = ZINC04743493
REMARK  3 active torsions:
REMARK  status: ('A' for Active; 'I' for Inactive)
REMARK    1  A    between atoms: C_1  and  C_2
REMARK    2  A    between atoms: C_17  and  C_19
REMARK    3  A    between atoms: C_20  and  C_24
REMARK                            x       y       z     vdW  Elec       q    Type
REMARK                         _______ _______ _______ _____ _____    ______ ____
ROOT
ATOM      1  C   UNL     1      -6.058   1.693   0.812  0.00  0.00    +0.047 C 
ATOM      2  C   UNL     1      -4.735   0.971   0.795  0.00  0.00    -0.007 A 
ATOM      3  C   UNL     1      -4.664  -0.340   1.157  0.00  0.00    +0.008 A 
ATOM      4  C   UNL     1      -3.425  -0.997   1.135  0.00  0.00    +0.018 A 
ATOM      5  C   UNL     1      -2.310  -0.333   0.758  0.00  0.00    +0.094 A 
ATOM      6  N   UNL     1      -2.369   0.979   0.395  0.00  0.00    -0.288 N 
ATOM      7  C   UNL     1      -3.563   1.647   0.405  0.00  0.00    +0.146 A 
ATOM      8  N   UNL     1      -3.632   2.926   0.049  0.00  0.00    -0.191 NA
ATOM      9  C   UNL     1      -2.541   3.596  -0.314  0.00  0.00    +0.279 A 
ATOM     10  O   UNL     1      -2.624   4.773  -0.638  0.00  0.00    -0.265 OA
ATOM     11  C   UNL     1      -1.291   2.938  -0.342  0.00  0.00    +0.066 A 
ATOM     12  C   UNL     1      -1.220   1.633   0.017  0.00  0.00    +0.120 A 
ATOM     13  N   UNL     1      -0.011   0.966   0.007  0.00  0.00    -0.271 N 
ATOM     14  C   UNL     1       1.149   1.647  -0.000  0.00  0.00    +0.219 C 
ATOM     15  O   UNL     1       2.201   1.044  -0.022  0.00  0.00    -0.275 OA
ATOM     16  C   UNL     1       1.151   3.153   0.018  0.00  0.00    +0.109 C 
ATOM     17  C   UNL     1      -0.051   3.677  -0.770  0.00  0.00    +0.073 C 
ATOM     18  H   UNL     1       0.002  -0.004   0.002  0.00  0.00    +0.156 HD
ENDROOT
BRANCH  17  19
ATOM     19  C   UNL     1       0.179   3.459  -2.243  0.00  0.00    +0.001 A 
ATOM     20  C   UNL     1       0.233   4.373  -3.243  0.00  0.00    -0.040 A 
ATOM     21  C   UNL     1       0.463   3.940  -4.535  0.00  0.00    +0.011 A 
ATOM     22  C   UNL     1       0.618   2.613  -4.766  0.00  0.00    +0.046 A 
ATOM     23  S   UNL     1       0.446   1.930  -3.125  0.00  0.00    -0.101 S 
ATOM     24  C   UNL     1       0.048   5.839  -2.949  0.00  0.00    +0.044 C 
ENDBRANCH  17  19
TORSDOF 1
