REMARK  Name = ZINC12149212
REMARK  6 active torsions:
REMARK  status: ('A' for Active; 'I' for Inactive)
REMARK    1  A    between atoms: C_4  and  C_7
REMARK    2  A    between atoms: C_7  and  C_8
REMARK    3  A    between atoms: C_8  and  C_9
REMARK    4  A    between atoms: C_9  and  C_16
REMARK    5  A    between atoms: C_21  and  C_22
REMARK    6  A    between atoms: C_21  and  N_59
REMARK                            x       y       z     vdW  Elec       q    Type
REMARK                         _______ _______ _______ _____ _____    ______ ____
ROOT
ATOM      1  C   UNL     1      -1.500   7.954   3.956  0.00  0.00    +0.018 C 
ATOM      2  C   UNL     1      -2.619   7.966   2.910  0.00  0.00    -0.013 C 
ATOM      3  C   UNL     1      -2.005   7.858   1.513  0.00  0.00    -0.078 C 
ATOM      4  C   UNL     1      -0.121   6.601   2.374  0.00  0.00    -0.078 C 
ATOM      5  C   UNL     1      -0.678   6.672   3.798  0.00  0.00    -0.013 C 
ATOM      6  N   UNL     1      -1.248   6.591   1.418  0.00  0.00    +0.382 N 
ATOM      7  H   UNL     1      -1.874   5.811   1.649  0.00  0.00    -0.081 HD
ENDROOT
BRANCH   1   8
ATOM      8  C   UNL     1      -2.110   8.001   5.358  0.00  0.00    +0.115 C 
ATOM      9  C   UNL     1      -3.193   6.951   5.504  0.00  0.00    +0.244 C 
ATOM     10  O   UNL     1      -3.064   5.749   5.409  0.00  0.00    -0.273 OA
ATOM     11  N   UNL     1      -4.328   7.630   5.760  0.00  0.00    -0.238 N 
ATOM     12  C   UNL     1      -4.115   8.951   5.796  0.00  0.00    +0.307 C 
ATOM     13  O   UNL     1      -4.987   9.770   6.010  0.00  0.00    -0.252 OA
ATOM     14  N   UNL     1      -2.828   9.270   5.569  0.00  0.00    -0.285 N 
ATOM     15  H   UNL     1      -5.192   7.214   5.902  0.00  0.00    +0.159 HD
ATOM     16  H   UNL     1      -2.447  10.162   5.548  0.00  0.00    +0.151 HD
BRANCH   8  17
ATOM     17  C   UNL     1      -1.026   7.813   6.421  0.00  0.00    +0.040 C 
BRANCH  17  18
ATOM     18  C   UNL     1      -1.661   7.864   7.812  0.00  0.00    +0.038 C 
BRANCH  18  22
ATOM     19  C   UNL     1       1.364   7.339  10.781  0.00  0.00    +0.000 A 
ATOM     20  C   UNL     1       1.046   8.608  10.335  0.00  0.00    +0.000 A 
ATOM     21  C   UNL     1       0.067   8.778   9.375  0.00  0.00    +0.003 A 
ATOM     22  C   UNL     1      -0.594   7.679   8.860  0.00  0.00    -0.047 A 
ATOM     23  C   UNL     1      -0.279   6.410   9.309  0.00  0.00    +0.003 A 
ATOM     24  C   UNL     1       0.703   6.239  10.266  0.00  0.00    +0.000 A 
ENDBRANCH  18  22
ENDBRANCH  17  18
ENDBRANCH   8  17
ENDBRANCH   1   8
BRANCH   6  25
ATOM     25  C   UNL     1      -0.741   6.409   0.042  0.00  0.00    -0.041 C 
BRANCH  25  26
ATOM     26  C   UNL     1       0.245   5.269   0.027  0.00  0.00    -0.039 A 
ATOM     27  C   UNL     1       1.583   5.371   0.015  0.00  0.00    +0.085 A 
ATOM     28  N   UNL     1       2.147   4.124   0.003  0.00  0.00    -0.360 N 
ATOM     29  H   UNL     1       3.099   3.943  -0.007  0.00  0.00    +0.165 HD
ATOM     30  C   UNL     1       1.159   3.165   0.007  0.00  0.00    +0.047 A 
ATOM     31  C   UNL     1      -0.075   3.840   0.022  0.00  0.00    +0.001 A 
ATOM     32  C   UNL     1      -1.267   3.112   0.030  0.00  0.00    +0.010 A 
ATOM     33  C   UNL     1      -1.228   1.746   0.017  0.00  0.00    +0.001 A 
ATOM     34  C   UNL     1      -0.013   1.076   0.008  0.00  0.00    +0.002 A 
ATOM     35  C   UNL     1       1.175   1.774   0.000  0.00  0.00    +0.026 A 
ENDBRANCH  25  26
ENDBRANCH   6  25
TORSDOF 6
