REMARK  Name = ZINC16671866
REMARK  10 active torsions:
REMARK  status: ('A' for Active; 'I' for Inactive)
REMARK    1  A    between atoms: C_1  and  C_2
REMARK    2  A    between atoms: N_4  and  C_31
REMARK    3  A    between atoms: C_5  and  O_6
REMARK    4  A    between atoms: C_7  and  C_8
REMARK    5  A    between atoms: N_9  and  C_10
REMARK    6  A    between atoms: C_12  and  N_16
REMARK    7  A    between atoms: C_17  and  C_18
REMARK    8  A    between atoms: C_19  and  O_20
REMARK    9  A    between atoms: N_21  and  C_25
REMARK   10  A    between atoms: C_23  and  C_24
REMARK                            x       y       z     vdW  Elec       q    Type
REMARK                         _______ _______ _______ _____ _____    ______ ____
ROOT
ATOM      1  C   UNL     1       0.059  -0.887   4.808  0.00  0.00    +0.132 A 
ATOM      2  N   UNL     1      -0.737  -1.486   5.687  0.00  0.00    -0.325 N 
ATOM      3  C   UNL     1      -0.759  -1.119   6.964  0.00  0.00    +0.132 A 
ATOM      4  C   UNL     1       0.062  -0.085   7.421  0.00  0.00    +0.046 A 
ATOM      5  C   UNL     1       0.903   0.559   6.529  0.00  0.00    +0.007 A 
ATOM      6  C   UNL     1       0.907   0.149   5.206  0.00  0.00    +0.046 A 
ATOM      7  H   UNL     1      -1.315  -2.207   5.391  0.00  0.00    +0.169 HD
ENDROOT
BRANCH   1   9
ATOM      8  C   UNL     1       0.031  -0.406   2.543  0.00  0.00    +0.128 C 
ATOM      9  N   UNL     1       0.052  -1.293   3.503  0.00  0.00    -0.237 NA
BRANCH   8  15
ATOM     10  C   UNL     1      -0.018   1.503   0.010  0.00  0.00    +0.068 C 
ATOM     11  C   UNL     1       0.002  -0.004   0.002  0.00  0.00    +0.073 A 
ATOM     12  N   UNL     1       0.008  -0.763  -1.058  0.00  0.00    -0.168 NA
ATOM     13  N   UNL     1       0.028  -2.105  -0.664  0.00  0.00    -0.200 N 
ATOM     14  C   UNL     1       0.035  -2.155   0.685  0.00  0.00    +0.225 A 
ATOM     15  C   UNL     1       0.024  -0.841   1.144  0.00  0.00    +0.077 A 
BRANCH  13  16
ATOM     16  C   UNL     1       0.040  -3.211  -1.524  0.00  0.00    +0.069 A 
ATOM     17  C   UNL     1       0.741  -4.357  -1.175  0.00  0.00    +0.028 A 
ATOM     18  C   UNL     1       0.750  -5.445  -2.025  0.00  0.00    +0.002 A 
ATOM     19  C   UNL     1       0.062  -5.394  -3.224  0.00  0.00    +0.000 A 
ATOM     20  C   UNL     1      -0.637  -4.254  -3.575  0.00  0.00    +0.002 A 
ATOM     21  C   UNL     1      -0.655  -3.165  -2.725  0.00  0.00    +0.028 A 
ENDBRANCH  13  16
BRANCH  14  22
ATOM     22  O   UNL     1       0.054  -3.273   1.448  0.00  0.00    -0.492 OA
ATOM     23  H   UNL     1       0.943  -3.586   1.666  0.00  0.00    +0.294 HD
ENDBRANCH  14  22
ENDBRANCH   8  15
ENDBRANCH   1   9
BRANCH   3  24
ATOM     24  N   UNL     1      -1.591  -1.759   7.838  0.00  0.00    -0.237 NA
ATOM     25  C   UNL     1      -1.149  -2.127   9.012  0.00  0.00    +0.128 C 
BRANCH  25  26
ATOM     26  C   UNL     1      -2.041  -2.813   9.949  0.00  0.00    +0.077 A 
ATOM     27  C   UNL     1      -3.375  -3.145   9.730  0.00  0.00    +0.225 A 
ATOM     28  N   UNL     1      -3.819  -3.764  10.845  0.00  0.00    -0.200 N 
ATOM     29  N   UNL     1      -2.769  -3.823  11.768  0.00  0.00    -0.168 NA
ATOM     30  C   UNL     1      -1.710  -3.269  11.248  0.00  0.00    +0.073 A 
ATOM     31  C   UNL     1      -0.365  -3.135  11.915  0.00  0.00    +0.068 C 
BRANCH  28  32
ATOM     32  C   UNL     1      -5.114  -4.262  11.045  0.00  0.00    +0.069 A 
ATOM     33  C   UNL     1      -6.206  -3.601  10.498  0.00  0.00    +0.028 A 
ATOM     34  C   UNL     1      -7.480  -4.095  10.697  0.00  0.00    +0.002 A 
ATOM     35  C   UNL     1      -7.670  -5.246  11.439  0.00  0.00    +0.000 A 
ATOM     36  C   UNL     1      -6.584  -5.907  11.985  0.00  0.00    +0.002 A 
ATOM     37  C   UNL     1      -5.306  -5.421  11.784  0.00  0.00    +0.028 A 
ENDBRANCH  28  32
BRANCH  27  38
ATOM     38  O   UNL     1      -4.093  -2.895   8.609  0.00  0.00    -0.492 OA
ATOM     39  H   UNL     1      -4.052  -3.602   7.950  0.00  0.00    +0.294 HD
ENDBRANCH  27  38
ENDBRANCH  25  26
ENDBRANCH   3  24
TORSDOF 8
