REMARK  Name = ZINC39994014
REMARK  5 active torsions:
REMARK  status: ('A' for Active; 'I' for Inactive)
REMARK    1  A    between atoms: N_9  and  C_11
REMARK    2  A    between atoms: C_12  and  C_22
REMARK    3  A    between atoms: C_23  and  C_24
REMARK    4  A    between atoms: C_23  and  C_26
REMARK    5  A    between atoms: N_28  and  C_29
REMARK                            x       y       z     vdW  Elec       q    Type
REMARK                         _______ _______ _______ _____ _____    ______ ____
ROOT
ATOM      1  C   UNL     1       4.592  -2.849   1.282  0.00  0.00    +0.136 A 
ATOM      2  C   UNL     1       5.769  -2.153   1.660  0.00  0.00    +0.081 A 
ATOM      3  C   UNL     1       6.778  -2.869   2.354  0.00  0.00    +0.267 A 
ATOM      4  O   UNL     1       7.806  -2.313   2.699  0.00  0.00    -0.267 OA
ATOM      5  N   UNL     1       6.580  -4.177   2.626  0.00  0.00    -0.268 N 
ATOM      6  C   UNL     1       7.544  -4.872   3.293  0.00  0.00    +0.096 A 
ATOM      7  C   UNL     1       7.378  -6.183   3.581  0.00  0.00    +0.018 A 
ATOM      8  C   UNL     1       6.205  -6.844   3.195  0.00  0.00    +0.005 A 
ATOM      9  C   UNL     1       5.234  -6.157   2.527  0.00  0.00    +0.047 A 
ATOM     10  C   UNL     1       5.424  -4.794   2.237  0.00  0.00    +0.142 A 
ATOM     11  N   UNL     1       4.466  -4.131   1.588  0.00  0.00    -0.214 NA
ENDROOT
BRANCH   1  20
ATOM     12  C   UNL     1      -0.998  -0.266   1.139  0.00  0.00    +0.000 A 
ATOM     13  C   UNL     1      -0.136   0.720   1.583  0.00  0.00    +0.000 A 
ATOM     14  C   UNL     1       1.228   0.523   1.504  0.00  0.00    +0.005 A 
ATOM     15  C   UNL     1       1.740  -0.659   0.987  0.00  0.00    -0.027 A 
ATOM     16  C   UNL     1       0.883  -1.645   0.554  0.00  0.00    -0.041 A 
ATOM     17  C   UNL     1      -0.490  -1.441   0.627  0.00  0.00    +0.004 A 
ATOM     18  C   UNL     1       1.364  -2.965   0.010  0.00  0.00    +0.054 C 
ATOM     19  C   UNL     1       2.816  -2.864  -0.455  0.00  0.00    +0.111 C 
ATOM     20  N   UNL     1       3.587  -2.195   0.607  0.00  0.00    -0.310 N 
ATOM     21  C   UNL     1       3.239  -0.804   0.916  0.00  0.00    +0.142 C 
ENDBRANCH   1  20
BRANCH   2  22
ATOM     22  C   UNL     1       5.931  -0.791   1.354  0.00  0.00    +0.040 C 
ATOM     23  C   UNL     1       5.987   0.148   2.376  0.00  0.00    +0.114 C 
BRANCH  23  24
ATOM     24  C   UNL     1       6.157   1.569   2.057  0.00  0.00    +0.259 C 
ATOM     25  O   UNL     1       6.249   1.926   0.897  0.00  0.00    -0.269 OA
ATOM     26  N   UNL     1       6.211   2.480   3.048  0.00  0.00    -0.280 N 
ATOM     27  H   UNL     1       6.066   2.206   3.967  0.00  0.00    +0.155 HD
BRANCH  26  28
ATOM     28  C   UNL     1       6.478   3.821   2.752  0.00  0.00    +0.054 A 
ATOM     29  C   UNL     1       7.114   4.159   1.564  0.00  0.00    +0.025 A 
ATOM     30  C   UNL     1       7.376   5.483   1.274  0.00  0.00    +0.003 A 
ATOM     31  C   UNL     1       7.006   6.475   2.164  0.00  0.00    +0.021 A 
ATOM     32  C   UNL     1       6.373   6.144   3.349  0.00  0.00    +0.061 A 
ATOM     33  C   UNL     1       6.102   4.819   3.643  0.00  0.00    +0.080 A 
ATOM     34 CL   UNL     1       5.300   4.404   5.126  0.00  0.00    -0.080 Cl
ATOM     35 CL   UNL     1       5.910   7.391   4.464  0.00  0.00    -0.082 Cl
ENDBRANCH  26  28
ENDBRANCH  23  24
BRANCH  23  36
ATOM     36  C   UNL     1       5.879  -0.272   3.740  0.00  0.00    +0.104 C 
ATOM     37  N   UNL     1       5.793  -0.605   4.823  0.00  0.00    -0.191 NA
ENDBRANCH  23  36
ENDBRANCH   2  22
TORSDOF 5
