REMARK  Name = ZINC43216307
REMARK  15 active torsions:
REMARK  status: ('A' for Active; 'I' for Inactive)
REMARK    1  A    between atoms: C_1  and  C_2
REMARK    2  A    between atoms: C_2  and  O_3
REMARK    3  A    between atoms: O_3  and  C_4
REMARK    4  A    between atoms: C_4  and  C_6
REMARK    5  A    between atoms: C_6  and  C_8
REMARK    6  A    between atoms: C_6  and  N_23
REMARK    7  A    between atoms: C_8  and  C_9
REMARK    8  A    between atoms: C_9  and  C_10
REMARK    9  A    between atoms: C_10  and  C_11
REMARK   10  A    between atoms: C_11  and  N_12
REMARK   11  A    between atoms: N_12  and  S_13
REMARK   12  A    between atoms: S_13  and  C_16
REMARK   13  A    between atoms: C_19  and  C_22
REMARK   14  A    between atoms: C_24  and  C_26
REMARK   15  A    between atoms: C_29  and  C_31
REMARK                            x       y       z     vdW  Elec       q    Type
REMARK                         _______ _______ _______ _____ _____    ______ ____
ROOT
ATOM      1  C   UNL     1      -2.881  -2.427   0.017  0.00  0.00    +0.182 C 
ENDROOT
BRANCH   1   2
ATOM      2  N   UNL     1      -2.784  -3.888   0.008  0.00  0.00    -0.297 N 
ATOM      3  C   UNL     1      -2.650  -4.548  -1.160  0.00  0.00    +0.266 C 
ATOM      4  O   UNL     1      -2.608  -3.929  -2.206  0.00  0.00    -0.268 OA
ATOM      5  H   UNL     1      -2.817  -4.382   0.842  0.00  0.00    +0.150 HD
BRANCH   3   6
ATOM      6  C   UNL     1      -2.553  -6.019  -1.169  0.00  0.00    +0.163 A 
ATOM      7  C   UNL     1      -2.409  -6.813  -2.264  0.00  0.00    +0.230 A 
ATOM      8  O   UNL     1      -2.361  -8.081  -1.825  0.00  0.00    -0.447 OA
ATOM      9  C   UNL     1      -2.474  -8.066  -0.490  0.00  0.00    +0.197 A 
ATOM     10  N   UNL     1      -2.584  -6.838  -0.082  0.00  0.00    -0.208 NA
BRANCH   9  11
ATOM     11  C   UNL     1      -2.469  -9.283   0.400  0.00  0.00    +0.058 C 
ATOM     12  C   UNL     1      -3.632 -10.202   0.016  0.00  0.00    +0.009 C 
ATOM     13  C   UNL     1      -3.572 -11.470   0.872  0.00  0.00    -0.018 C 
ATOM     14  C   UNL     1      -2.212 -12.145   0.678  0.00  0.00    -0.083 C 
ATOM     15  N   UNL     1      -1.143 -11.226   1.087  0.00  0.00    +0.380 N 
ATOM     16  C   UNL     1      -1.149 -10.038   0.224  0.00  0.00    -0.070 C 
ATOM     17  H   UNL     1      -1.290 -10.945   2.045  0.00  0.00    -0.086 HD
ATOM     18  H   UNL     1      -0.252 -11.692   1.009  0.00  0.00    -0.086 HD
ENDBRANCH   9  11
ENDBRANCH   3   6
ENDBRANCH   1   2
BRANCH   1  19
ATOM     19  C   UNL     1      -1.496  -1.832   0.006  0.00  0.00    +0.328 C 
ATOM     20  O   UNL     1      -0.528  -2.555  -0.007  0.00  0.00    -0.249 OA
BRANCH  19  21
ATOM     21  O   UNL     1      -1.339  -0.499   0.012  0.00  0.00    -0.464 OA
BRANCH  21  23
ATOM     22  C   UNL     1      -0.019   1.526   0.010  0.00  0.00    +0.048 C 
ATOM     23  C   UNL     1       0.002  -0.004   0.002  0.00  0.00    +0.229 C 
ENDBRANCH  21  23
ENDBRANCH  19  21
ENDBRANCH   1  19
BRANCH   1  24
ATOM     24  C   UNL     1      -3.622  -1.972   1.275  0.00  0.00    +0.034 C 
BRANCH  24  25
ATOM     25  C   UNL     1      -5.067  -2.473   1.225  0.00  0.00    +0.004 C 
BRANCH  25  26
ATOM     26  C   UNL     1      -5.808  -2.018   2.484  0.00  0.00    +0.017 C 
BRANCH  26  27
ATOM     27  C   UNL     1      -7.253  -2.519   2.434  0.00  0.00    +0.106 C 
BRANCH  27  28
ATOM     28  N   UNL     1      -7.963  -2.083   3.639  0.00  0.00    -0.190 NA
ATOM     29  H   UNL     1      -7.465  -1.755   4.404  0.00  0.00    +0.148 HD
BRANCH  28  30
ATOM     30  S   UNL     1      -9.617  -2.152   3.696  0.00  0.00    +0.058 S 
ATOM     31  O   UNL     1      -9.998  -1.694   4.987  0.00  0.00    -0.153 OA
ATOM     32  O   UNL     1     -10.090  -1.544   2.502  0.00  0.00    -0.153 OA
BRANCH  30  33
ATOM     33  C   UNL     1     -10.071  -3.852   3.611  0.00  0.00    +0.105 A 
ATOM     34  C   UNL     1     -10.288  -4.448   2.382  0.00  0.00    +0.029 A 
ATOM     35  C   UNL     1     -10.645  -5.782   2.315  0.00  0.00    +0.005 A 
ATOM     36  C   UNL     1     -10.784  -6.520   3.476  0.00  0.00    -0.050 A 
ATOM     37  C   UNL     1     -10.566  -5.924   4.704  0.00  0.00    +0.005 A 
ATOM     38  C   UNL     1     -10.205  -4.591   4.771  0.00  0.00    +0.029 A 
ATOM     39  C   UNL     1     -11.174  -7.974   3.402  0.00  0.00    +0.044 C 
ENDBRANCH  30  33
ENDBRANCH  28  30
ENDBRANCH  27  28
ENDBRANCH  26  27
ENDBRANCH  25  26
ENDBRANCH  24  25
ENDBRANCH   1  24
TORSDOF 13
