REMARK  Name = ZINC49820566
REMARK  4 active torsions:
REMARK  status: ('A' for Active; 'I' for Inactive)
REMARK    1  A    between atoms: C_1  and  C_2
REMARK    2  A    between atoms: C_5  and  C_9
REMARK    3  A    between atoms: C_7  and  C_8
REMARK    4  A    between atoms: C_9  and  C_14
REMARK                            x       y       z     vdW  Elec       q    Type
REMARK                         _______ _______ _______ _____ _____    ______ ____
ROOT
ATOM      1  C   UNL     1      -0.018   1.503   0.010  0.00  0.00    +0.044 C 
ATOM      2  C   UNL     1       0.002  -0.004   0.002  0.00  0.00    -0.048 A 
ATOM      3  C   UNL     1       0.006  -0.689  -1.199  0.00  0.00    +0.004 A 
ATOM      4  C   UNL     1       0.025  -2.071  -1.207  0.00  0.00    +0.009 A 
ATOM      5  C   UNL     1       0.040  -2.768  -0.013  0.00  0.00    +0.013 A 
ATOM      6  C   UNL     1       0.037  -2.084   1.188  0.00  0.00    +0.012 A 
ATOM      7  C   UNL     1       0.023  -0.702   1.195  0.00  0.00    -0.047 A 
ATOM      8  C   UNL     1       0.025   0.045   2.504  0.00  0.00    +0.044 C 
ENDROOT
BRANCH   5   9
ATOM      9  C   UNL     1       0.059  -4.275  -0.021  0.00  0.00    +0.210 C 
ATOM     10  O   UNL     1       0.748  -4.756   1.145  0.00  0.00    -0.342 OA
ATOM     11  C   UNL     1       1.454  -5.938   0.698  0.00  0.00    +0.192 C 
ATOM     12  C   UNL     1       1.867  -5.533  -0.739  0.00  0.00    +0.192 C 
ATOM     13  O   UNL     1       0.749  -4.742  -1.189  0.00  0.00    -0.342 OA
BRANCH   9  14
ATOM     14  C   UNL     1      -1.375  -4.808  -0.024  0.00  0.00    +0.178 C 
ATOM     15 CL   UNL     1      -1.347  -6.611  -0.034  0.00  0.00    -0.120 Cl
ENDBRANCH   9  14
ENDBRANCH   5   9
TORSDOF 2
