REMARK  Name = ZINC66699448
REMARK  12 active torsions:
REMARK  status: ('A' for Active; 'I' for Inactive)
REMARK    1  A    between atoms: C_1  and  C_2
REMARK    2  A    between atoms: C_2  and  N_3
REMARK    3  A    between atoms: N_3  and  C_4
REMARK    4  A    between atoms: N_3  and  C_6
REMARK    5  A    between atoms: C_4  and  C_5
REMARK    6  A    between atoms: C_6  and  C_8
REMARK    7  A    between atoms: C_6  and  C_9
REMARK    8  A    between atoms: C_9  and  N_10
REMARK    9  A    between atoms: N_16  and  C_19
REMARK   10  A    between atoms: C_19  and  C_20
REMARK   11  A    between atoms: N_22  and  C_23
REMARK   12  A    between atoms: C_28  and  C_31
REMARK                            x       y       z     vdW  Elec       q    Type
REMARK                         _______ _______ _______ _____ _____    ______ ____
ROOT
ATOM      1  N   UNL     1       1.436  -1.671   3.804  0.00  0.00    -0.301 N 
ATOM      2  C   UNL     1       2.188  -1.754   4.919  0.00  0.00    +0.302 C 
ATOM      3  O   UNL     1       3.316  -2.206   4.860  0.00  0.00    -0.253 OA
ATOM      4  N   UNL     1       1.691  -1.336   6.099  0.00  0.00    -0.283 N 
ATOM      5  C   UNL     1       0.296  -0.884   6.213  0.00  0.00    +0.124 C 
ATOM      6  C   UNL     1      -0.364  -1.630   7.378  0.00  0.00    +0.104 C 
ATOM      7  N   UNL     1       0.447  -1.455   8.590  0.00  0.00    -0.291 NA
ATOM      8  C   UNL     1       1.781  -2.048   8.429  0.00  0.00    +0.104 C 
ATOM      9  C   UNL     1       2.527  -1.324   7.309  0.00  0.00    +0.124 C 
ATOM     10  H   UNL     1       0.564  -1.248   3.837  0.00  0.00    +0.150 HD
ENDROOT
BRANCH   1  11
ATOM     11  C   UNL     1       1.935  -2.222   2.541  0.00  0.00    +0.090 C 
BRANCH  11  12
ATOM     12  C   UNL     1       0.954  -1.887   1.415  0.00  0.00    -0.054 C 
ATOM     13  C   UNL     1       1.518  -2.384   0.083  0.00  0.00    -0.012 C 
BRANCH  12  14
ATOM     14  N   UNL     1       0.759  -0.433   1.353  0.00  0.00    +0.382 N 
ATOM     15  H   UNL     1       0.436  -0.098   2.248  0.00  0.00    -0.081 HD
BRANCH  14  17
ATOM     16  C   UNL     1       1.863   1.737   1.093  0.00  0.00    -0.017 C 
ATOM     17  C   UNL     1       2.031   0.219   1.016  0.00  0.00    -0.082 C 
ENDBRANCH  14  17
BRANCH  14  18
ATOM     18  C   UNL     1      -0.241  -0.117   0.324  0.00  0.00    -0.082 C 
ATOM     19  C   UNL     1      -1.599  -0.685   0.740  0.00  0.00    -0.017 C 
ENDBRANCH  14  18
ENDBRANCH  12  14
ENDBRANCH  11  12
ENDBRANCH   1  11
BRANCH   7  20
ATOM     20  C   UNL     1      -0.237  -2.009   9.766  0.00  0.00    +0.180 C 
BRANCH  20  21
ATOM     21  C   UNL     1       0.499  -1.599  11.015  0.00  0.00    +0.227 C 
ATOM     22  O   UNL     1       1.495  -0.912  10.934  0.00  0.00    -0.274 OA
ATOM     23  N   UNL     1       0.050  -1.995  12.223  0.00  0.00    -0.311 N 
ATOM     24  H   UNL     1      -0.747  -2.544  12.287  0.00  0.00    +0.149 HD
BRANCH  23  25
ATOM     25  C   UNL     1       0.765  -1.596  13.437  0.00  0.00    +0.073 C 
ATOM     26  C   UNL     1       1.907  -2.579  13.703  0.00  0.00    +0.022 C 
ATOM     27  C   UNL     1       2.654  -2.163  14.971  0.00  0.00    +0.002 C 
ATOM     28  C   UNL     1       1.688  -2.171  16.158  0.00  0.00    +0.003 C 
ATOM     29  C   UNL     1       0.546  -1.188  15.892  0.00  0.00    -0.012 C 
ATOM     30  C   UNL     1      -0.201  -1.604  14.624  0.00  0.00    +0.025 C 
ATOM     31  C   UNL     1      -0.419  -1.196  17.079  0.00  0.00    +0.007 C 
ENDBRANCH  23  25
ENDBRANCH  20  21
ENDBRANCH   7  20
TORSDOF 8
