REMARK  Name = ZINC18086856
REMARK  10 active torsions:
REMARK  status: ('A' for Active; 'I' for Inactive)
REMARK    1  A    between atoms: C_1  and  O_2
REMARK    2  A    between atoms: O_2  and  C_3
REMARK    3  A    between atoms: C_6  and  C_13
REMARK    4  A    between atoms: C_7  and  O_11
REMARK    5  A    between atoms: C_8  and  O_9
REMARK    6  A    between atoms: O_9  and  C_10
REMARK    7  A    between atoms: O_11  and  C_12
REMARK    8  A    between atoms: N_21  and  C_24
REMARK    9  A    between atoms: C_27  and  N_30
REMARK   10  A    between atoms: N_34  and  C_35
REMARK                            x       y       z     vdW  Elec       q    Type
REMARK                         _______ _______ _______ _____ _____    ______ ____
ROOT
ATOM      1  C   UNL     1       2.528  -2.429  -4.394  0.00  0.00    +0.161 C 
ATOM      2  C   UNL     1       1.493  -2.780  -5.488  0.00  0.00    +0.146 C 
ATOM      3  C   UNL     1       1.615  -1.602  -6.492  0.00  0.00    +0.249 C 
ATOM      4  C   UNL     1       0.258  -0.937  -6.413  0.00  0.00    +0.259 C 
ATOM      5  O   UNL     1      -0.090   0.025  -7.064  0.00  0.00    -0.272 OA
ATOM      6  N   UNL     1      -0.498  -1.575  -5.513  0.00  0.00    -0.208 N 
ATOM      7  C   UNL     1       0.099  -2.639  -4.921  0.00  0.00    +0.235 C 
ATOM      8  O   UNL     1      -0.391  -3.359  -4.079  0.00  0.00    -0.274 OA
ATOM      9  O   UNL     1       2.614  -0.725  -5.941  0.00  0.00    -0.257 OA
ATOM     10  N   UNL     1       3.456  -1.512  -5.100  0.00  0.00    -0.244 N 
ENDROOT
BRANCH   1  14
ATOM     11  C   UNL     1       0.645  -0.440  -1.106  0.00  0.00    +0.165 A 
ATOM     12  C   UNL     1       1.195   0.296  -2.145  0.00  0.00    +0.050 A 
ATOM     13  C   UNL     1       1.802  -0.349  -3.206  0.00  0.00    +0.013 A 
ATOM     14  C   UNL     1       1.865  -1.730  -3.235  0.00  0.00    +0.024 A 
ATOM     15  C   UNL     1       1.318  -2.473  -2.200  0.00  0.00    +0.170 A 
ATOM     16  C   UNL     1       0.711  -1.827  -1.129  0.00  0.00    +0.204 A 
BRANCH  11  18
ATOM     17  C   UNL     1       0.016   1.624  -0.106  0.00  0.00    +0.277 C 
ATOM     18  O   UNL     1       0.047   0.196  -0.063  0.00  0.00    -0.491 OA
ENDBRANCH  11  18
BRANCH  16  19
ATOM     19  O   UNL     1       0.178  -2.553  -0.108  0.00  0.00    -0.488 OA
ATOM     20  C   UNL     1      -1.191  -2.942  -0.235  0.00  0.00    +0.277 C 
ENDBRANCH  16  19
BRANCH  15  21
ATOM     21  O   UNL     1       1.379  -3.831  -2.231  0.00  0.00    -0.491 OA
ATOM     22  C   UNL     1       2.522  -4.443  -1.630  0.00  0.00    +0.277 C 
ENDBRANCH  15  21
ENDBRANCH   1  14
BRANCH   6  23
ATOM     23  C   UNL     1      -1.809  -1.182  -5.207  0.00  0.00    +0.044 A 
ATOM     24  C   UNL     1      -2.877  -2.004  -5.540  0.00  0.00    +0.026 A 
ATOM     25  C   UNL     1      -4.167  -1.613  -5.237  0.00  0.00    +0.034 A 
ATOM     26  C   UNL     1      -4.395  -0.406  -4.604  0.00  0.00    +0.126 A 
ATOM     27  C   UNL     1      -3.333   0.415  -4.272  0.00  0.00    +0.034 A 
ATOM     28  C   UNL     1      -2.040   0.028  -4.567  0.00  0.00    +0.026 A 
BRANCH  26  29
ATOM     29  N   UNL     1      -5.779   0.010  -4.281  0.00  0.00    +0.056 N 
ATOM     30  O   UNL     1      -6.708  -0.707  -4.571  0.00  0.00    -0.126 OA
ATOM     31  O   UNL     1      -5.979   1.066  -3.727  0.00  0.00    -0.126 OA
ENDBRANCH  26  29
ENDBRANCH   6  23
BRANCH  10  32
ATOM     32  C   UNL     1       4.846  -1.442  -4.978  0.00  0.00    +0.065 A 
ATOM     33  C   UNL     1       5.513  -2.305  -4.119  0.00  0.00    +0.028 A 
ATOM     34  C   UNL     1       6.887  -2.235  -4.001  0.00  0.00    +0.002 A 
ATOM     35  C   UNL     1       7.599  -1.306  -4.738  0.00  0.00    +0.000 A 
ATOM     36  C   UNL     1       6.938  -0.445  -5.595  0.00  0.00    +0.002 A 
ATOM     37  C   UNL     1       5.564  -0.514  -5.721  0.00  0.00    +0.028 A 
ENDBRANCH  10  32
TORSDOF 7
