REMARK  Name = ZINC32045645
REMARK  7 active torsions:
REMARK  status: ('A' for Active; 'I' for Inactive)
REMARK    1  A    between atoms: C_4  and  N_26
REMARK    2  A    between atoms: C_5  and  N_7
REMARK    3  A    between atoms: N_7  and  C_8
REMARK    4  A    between atoms: C_8  and  C_9
REMARK    5  A    between atoms: C_9  and  N_10
REMARK    6  A    between atoms: C_11  and  C_13
REMARK    7  A    between atoms: C_13  and  N_14
REMARK                            x       y       z     vdW  Elec       q    Type
REMARK                         _______ _______ _______ _____ _____    ______ ____
ROOT
ATOM      1  N   UNL     1      -0.188   0.976  -2.433  0.00  0.00    -0.313 N 
ATOM      2  C   UNL     1      -0.635   1.339  -3.651  0.00  0.00    +0.231 C 
ATOM      3  O   UNL     1      -1.501   2.182  -3.753  0.00  0.00    -0.274 OA
ATOM      4  H   UNL     1       0.598   0.212  -2.340  0.00  0.00    +0.149 HD
ENDROOT
BRANCH   1   5
ATOM      5  C   UNL     1      -0.750   1.599  -1.231  0.00  0.00    +0.123 C 
BRANCH   5   6
ATOM      6  C   UNL     1      -0.075   1.013   0.010  0.00  0.00    +0.120 C 
BRANCH   6   7
ATOM      7  N   UNL     1      -0.636   1.635   1.212  0.00  0.00    -0.341 N 
ATOM      8  H   UNL     1      -1.422   2.399   1.119  0.00  0.00    +0.146 HD
BRANCH   7  13
ATOM      9  C   UNL     1       1.360   0.021   3.841  0.00  0.00    +0.002 A 
ATOM     10  C   UNL     1       0.743   0.513   4.977  0.00  0.00    +0.002 A 
ATOM     11  C   UNL     1      -0.331   1.377   4.865  0.00  0.00    +0.034 A 
ATOM     12  C   UNL     1      -0.791   1.752   3.617  0.00  0.00    +0.147 A 
ATOM     13  C   UNL     1      -0.174   1.259   2.475  0.00  0.00    +0.058 A 
ATOM     14  C   UNL     1       0.901   0.387   2.591  0.00  0.00    +0.025 A 
BRANCH  12  15
ATOM     15  N   UNL     1      -1.940   2.676   3.498  0.00  0.00    +0.058 N 
ATOM     16  O   UNL     1      -2.066   3.596   4.287  0.00  0.00    -0.126 OA
ATOM     17  O   UNL     1      -2.760   2.517   2.612  0.00  0.00    -0.126 OA
ENDBRANCH  12  15
ENDBRANCH   7  13
ENDBRANCH   6   7
ENDBRANCH   5   6
ENDBRANCH   1   5
BRANCH   2  18
ATOM     18  C   UNL     1      -0.057   0.699  -4.887  0.00  0.00    +0.209 C 
BRANCH  18  19
ATOM     19  N   UNL     1      -0.704   1.260  -6.076  0.00  0.00    -0.257 N 
ATOM     20  C   UNL     1      -1.859   0.667  -6.605  0.00  0.00    +0.079 A 
ATOM     21  C   UNL     1      -2.596  -0.237  -5.854  0.00  0.00    +0.028 A 
ATOM     22  C   UNL     1      -3.736  -0.807  -6.391  0.00  0.00    +0.017 A 
ATOM     23  C   UNL     1      -4.144  -0.474  -7.670  0.00  0.00    +0.021 A 
ATOM     24  C   UNL     1      -3.415   0.431  -8.421  0.00  0.00    +0.062 A 
ATOM     25  C   UNL     1      -2.274   1.006  -7.890  0.00  0.00    +0.144 A 
ATOM     26  O   UNL     1      -1.546   1.898  -8.614  0.00  0.00    -0.481 OA
ATOM     27  C   UNL     1      -0.894   2.939  -7.882  0.00  0.00    +0.325 C 
ATOM     28  C   UNL     1      -0.193   2.354  -6.683  0.00  0.00    +0.258 C 
ATOM     29  O   UNL     1       0.825   2.862  -6.264  0.00  0.00    -0.271 OA
ATOM     30 BR   UNL     1      -5.704  -1.260  -8.396  0.00  0.00    -0.050 Br
ENDBRANCH  18  19
ENDBRANCH   2  18
TORSDOF 7
