REMARK  Name = ZINC42446477
REMARK  9 active torsions:
REMARK  status: ('A' for Active; 'I' for Inactive)
REMARK    1  A    between atoms: C_1  and  C_2
REMARK    2  A    between atoms: C_2  and  N_3
REMARK    3  A    between atoms: N_3  and  C_4
REMARK    4  A    between atoms: N_3  and  S_12
REMARK    5  A    between atoms: C_4  and  C_5
REMARK    6  A    between atoms: C_5  and  C_7
REMARK    7  A    between atoms: C_5  and  C_8
REMARK    8  A    between atoms: N_9  and  O_10
REMARK    9  A    between atoms: S_12  and  C_15
REMARK                            x       y       z     vdW  Elec       q    Type
REMARK                         _______ _______ _______ _____ _____    ______ ____
ROOT
ATOM      1  N   UNL     1      -1.538  -0.051   0.217  0.00  0.00    -0.176 NA
ENDROOT
BRANCH   1   2
ATOM      2  S   UNL     1      -1.945   0.092   1.816  0.00  0.00    +0.062 S 
ATOM      3  O   UNL     1      -3.028  -0.800   2.041  0.00  0.00    -0.153 OA
ATOM      4  O   UNL     1      -0.732   0.017   2.552  0.00  0.00    -0.153 OA
BRANCH   2   5
ATOM      5  C   UNL     1      -2.576   1.720   2.050  0.00  0.00    +0.120 A 
ATOM      6  C   UNL     1      -3.920   1.909   2.311  0.00  0.00    +0.045 A 
ATOM      7  C   UNL     1      -4.416   3.188   2.494  0.00  0.00    +0.020 A 
ATOM      8  C   UNL     1      -3.566   4.277   2.416  0.00  0.00    +0.016 A 
ATOM      9  C   UNL     1      -2.222   4.087   2.155  0.00  0.00    +0.018 A 
ATOM     10  C   UNL     1      -1.726   2.808   1.977  0.00  0.00    +0.044 A 
ATOM     11 BR   UNL     1       0.115   2.549   1.627  0.00  0.00    -0.048 Br
ATOM     12 BR   UNL     1      -6.255   3.446   2.851  0.00  0.00    -0.050 Br
ENDBRANCH   2   5
ENDBRANCH   1   2
BRANCH   1  14
ATOM     13  C   UNL     1      -0.084   1.388  -1.123  0.00  0.00    +0.022 C 
ATOM     14  C   UNL     1      -0.152   0.163  -0.208  0.00  0.00    +0.106 C 
ENDBRANCH   1  14
BRANCH   1  15
ATOM     15  C   UNL     1      -2.563  -0.392  -0.772  0.00  0.00    +0.120 C 
BRANCH  15  16
ATOM     16  C   UNL     1      -2.595  -1.909  -0.972  0.00  0.00    +0.068 C 
ATOM     17  C   UNL     1      -1.279  -2.367  -1.604  0.00  0.00    +0.017 C 
BRANCH  16  18
ATOM     18  C   UNL     1      -3.741  -2.272  -1.880  0.00  0.00    +0.136 C 
ATOM     19  N   UNL     1      -3.540  -2.419  -3.147  0.00  0.00    -0.076 NA
ATOM     20  N   UNL     1      -5.004  -2.448  -1.358  0.00  0.00    -0.344 N 
ATOM     21  H   UNL     1      -5.155  -2.337  -0.406  0.00  0.00    +0.144 HD
ATOM     22  H   UNL     1      -5.742  -2.681  -1.942  0.00  0.00    +0.144 HD
BRANCH  19  23
ATOM     23  O   UNL     1      -4.618  -2.760  -4.000  0.00  0.00    -0.408 OA
ATOM     24  H   UNL     1      -4.370  -2.848  -4.931  0.00  0.00    +0.328 HD
ENDBRANCH  19  23
ENDBRANCH  16  18
ENDBRANCH  15  16
ENDBRANCH   1  15
TORSDOF 7
