REMARK  Name = ZINC35397838
REMARK  8 active torsions:
REMARK  status: ('A' for Active; 'I' for Inactive)
REMARK    1  A    between atoms: C_1  and  C_2
REMARK    2  A    between atoms: C_2  and  C_3
REMARK    3  A    between atoms: C_6  and  S_9
REMARK    4  A    between atoms: S_9  and  N_12
REMARK    5  A    between atoms: N_12  and  C_13
REMARK    6  A    between atoms: C_15  and  C_32
REMARK    7  A    between atoms: C_23  and  C_26
REMARK    8  A    between atoms: C_26  and  N_27
REMARK                            x       y       z     vdW  Elec       q    Type
REMARK                         _______ _______ _______ _____ _____    ______ ____
ROOT
ATOM      1  C   UNL     1       4.124  -0.640   6.991  0.00  0.00    +0.091 A 
ATOM      2  C   UNL     1       4.573   0.333   7.873  0.00  0.00    +0.046 A 
ATOM      3  C   UNL     1       5.261  -0.079   9.022  0.00  0.00    +0.103 A 
ATOM      4  C   UNL     1       5.468  -1.454   9.232  0.00  0.00    +0.113 A 
ATOM      5  N   UNL     1       5.020  -2.341   8.358  0.00  0.00    -0.347 N 
ATOM      6  C   UNL     1       4.364  -1.979   7.273  0.00  0.00    +0.110 A 
ATOM      7  N   UNL     1       6.147  -1.883  10.359  0.00  0.00    -0.316 N 
ATOM      8  C   UNL     1       5.413  -2.276  11.570  0.00  0.00    +0.106 C 
ATOM      9  C   UNL     1       5.861  -3.682  11.983  0.00  0.00    +0.019 C 
ATOM     10  C   UNL     1       7.383  -3.703  12.136  0.00  0.00    +0.005 C 
ATOM     11  C   UNL     1       8.037  -3.363  10.795  0.00  0.00    -0.010 C 
ATOM     12  C   UNL     1       7.614  -1.960  10.366  0.00  0.00    +0.108 C 
ATOM     13  H   UNL     1       5.174  -3.285   8.523  0.00  0.00    +0.167 HD
ENDROOT
BRANCH   3  14
ATOM     14  C   UNL     1       5.760   0.909   9.991  0.00  0.00    +0.390 C 
ATOM     15  O   UNL     1       5.668   2.104   9.748  0.00  0.00    -0.240 OA
ATOM     16  O   UNL     1       6.265   0.535  11.041  0.00  0.00    -0.240 OA
ENDBRANCH   3  14
BRANCH   1  17
ATOM     17  N   UNL     1       3.431  -0.275   5.829  0.00  0.00    -0.096 NA
BRANCH  17  18
ATOM     18  S   UNL     1       2.893  -1.442   4.785  0.00  0.00    +0.092 S 
ATOM     19  O   UNL     1       1.896  -2.180   5.479  0.00  0.00    -0.148 OA
ATOM     20  O   UNL     1       4.049  -2.057   4.232  0.00  0.00    -0.148 OA
BRANCH  18  24
ATOM     21  C   UNL     1       0.798   0.672   1.375  0.00  0.00    -0.048 A 
ATOM     22  C   UNL     1       2.153   0.410   1.297  0.00  0.00    +0.005 A 
ATOM     23  C   UNL     1       2.793  -0.236   2.338  0.00  0.00    +0.029 A 
ATOM     24  C   UNL     1       2.078  -0.618   3.458  0.00  0.00    +0.110 A 
ATOM     25  C   UNL     1       0.723  -0.355   3.536  0.00  0.00    +0.029 A 
ATOM     26  C   UNL     1       0.084   0.294   2.497  0.00  0.00    +0.005 A 
BRANCH  21  28
ATOM     27  C   UNL     1       0.153   2.888   0.467  0.00  0.00    +0.009 C 
ATOM     28  C   UNL     1       0.101   1.376   0.239  0.00  0.00    +0.032 C 
ENDBRANCH  21  28
ENDBRANCH  18  24
ENDBRANCH  17  18
ENDBRANCH   1  17
BRANCH  11  29
ATOM     29  C   UNL     1       9.559  -3.417  10.941  0.00  0.00    -0.074 C 
BRANCH  29  30
ATOM     30  N   UNL     1       9.974  -4.795  11.236  0.00  0.00    +0.380 N 
ATOM     31  C   UNL     1       9.746  -5.664  10.053  0.00  0.00    -0.079 C 
ATOM     32  C   UNL     1      10.706  -6.855  10.297  0.00  0.00    -0.020 C 
ATOM     33  C   UNL     1      11.946  -6.177  10.924  0.00  0.00    -0.020 C 
ATOM     34  C   UNL     1      11.428  -4.846  11.499  0.00  0.00    -0.079 C 
ATOM     35  H   UNL     1       9.464  -5.149  12.032  0.00  0.00    -0.082 HD
ENDBRANCH  29  30
ENDBRANCH  11  29
TORSDOF 7
