REMARK  Name = ZINC12250259
REMARK  10 active torsions:
REMARK  status: ('A' for Active; 'I' for Inactive)
REMARK    1  A    between atoms: C_1  and  C_2
REMARK    2  A    between atoms: C_2  and  C_37
REMARK    3  A    between atoms: C_6  and  C_25
REMARK    4  A    between atoms: C_8  and  C_23
REMARK    5  A    between atoms: C_9  and  S_11
REMARK    6  A    between atoms: S_11  and  C_12
REMARK    7  A    between atoms: C_12  and  C_13
REMARK    8  A    between atoms: N_15  and  C_16
REMARK    9  A    between atoms: C_16  and  C_17
REMARK   10  A    between atoms: C_29  and  N_31
REMARK                            x       y       z     vdW  Elec       q    Type
REMARK                         _______ _______ _______ _____ _____    ______ ____
ROOT
ATOM      1  C   UNL     1       6.461  -2.217  -3.169  0.00  0.00    +0.011 C 
ATOM      2  C   UNL     1       6.552  -3.112  -1.932  0.00  0.00    -0.023 C 
ATOM      3  C   UNL     1       5.589  -2.603  -0.857  0.00  0.00    +0.058 C 
ATOM      4  C   UNL     1       5.976  -1.201  -0.454  0.00  0.00    +0.016 C 
ATOM      5  C   UNL     1       7.264  -0.799  -0.488  0.00  0.00    +0.024 C 
ATOM      6  C   UNL     1       7.652   0.594  -0.060  0.00  0.00    +0.097 C 
ATOM      7  C   UNL     1       6.463   1.509  -0.057  0.00  0.00    +0.069 C 
ATOM      8  C   UNL     1       5.197   1.013  -0.042  0.00  0.00    +0.080 C 
ATOM      9  N   UNL     1       4.987  -0.346  -0.047  0.00  0.00    -0.311 N 
ATOM     10  C   UNL     1       8.283  -1.666  -0.919  0.00  0.00    +0.162 C 
ATOM     11  O   UNL     1       9.433  -1.276  -0.930  0.00  0.00    -0.292 OA
ATOM     12  C   UNL     1       7.976  -3.069  -1.368  0.00  0.00    +0.086 C 
ATOM     13  C   UNL     1       6.192  -4.550  -2.311  0.00  0.00    +0.011 C 
ATOM     14  H   UNL     1       4.015  -0.744   0.279  0.00  0.00    +0.152 HD
ENDROOT
BRANCH   6  15
ATOM     15  C   UNL     1       8.242   0.539   1.326  0.00  0.00    -0.033 A 
ATOM     16  C   UNL     1       7.486   0.059   2.380  0.00  0.00    +0.005 A 
ATOM     17  C   UNL     1       8.027   0.008   3.651  0.00  0.00    +0.003 A 
ATOM     18  C   UNL     1       9.323   0.437   3.868  0.00  0.00    +0.033 A 
ATOM     19  C   UNL     1      10.078   0.917   2.814  0.00  0.00    +0.126 A 
ATOM     20  C   UNL     1       9.539   0.963   1.542  0.00  0.00    +0.037 A 
BRANCH  19  21
ATOM     21  N   UNL     1      11.466   1.377   3.047  0.00  0.00    +0.056 N 
ATOM     22  O   UNL     1      11.942   1.333   4.167  0.00  0.00    -0.126 OA
ATOM     23  O   UNL     1      12.131   1.801   2.119  0.00  0.00    -0.126 OA
ENDBRANCH  19  21
ENDBRANCH   6  15
BRANCH   7  24
ATOM     24  C   UNL     1       6.665   2.926  -0.065  0.00  0.00    +0.098 C 
ATOM     25  N   UNL     1       6.825   4.051  -0.071  0.00  0.00    -0.191 NA
ENDBRANCH   7  24
BRANCH   8  26
ATOM     26  S   UNL     1       3.822   2.115  -0.023  0.00  0.00    -0.100 S 
BRANCH  26  27
ATOM     27  C   UNL     1       2.462   0.920  -0.017  0.00  0.00    +0.171 C 
BRANCH  27  28
ATOM     28  C   UNL     1       1.147   1.655   0.000  0.00  0.00    +0.224 C 
ATOM     29  O   UNL     1       1.130   2.868   0.007  0.00  0.00    -0.275 OA
ATOM     30  N   UNL     1      -0.011   0.966   0.007  0.00  0.00    -0.311 N 
ATOM     31  H   UNL     1       0.004  -0.134   0.006  0.00  0.00    +0.149 HD
BRANCH  30  32
ATOM     32  C   UNL     1      -1.290   1.681   0.017  0.00  0.00    +0.139 C 
BRANCH  32  33
ATOM     33  C   UNL     1      -2.422   0.686   0.017  0.00  0.00    -0.030 A 
ATOM     34  C   UNL     1      -2.950   0.241  -1.180  0.00  0.00    +0.005 A 
ATOM     35  C   UNL     1      -3.986  -0.675  -1.180  0.00  0.00    +0.000 A 
ATOM     36  C   UNL     1      -4.499  -1.138   0.017  0.00  0.00    +0.000 A 
ATOM     37  C   UNL     1      -3.974  -0.689   1.214  0.00  0.00    +0.000 A 
ATOM     38  C   UNL     1      -2.935   0.224   1.214  0.00  0.00    +0.005 A 
ENDBRANCH  32  33
ENDBRANCH  30  32
ENDBRANCH  27  28
ENDBRANCH  26  27
ENDBRANCH   8  26
TORSDOF 8
