REMARK  Name = ZINC08940361
REMARK  6 active torsions:
REMARK  status: ('A' for Active; 'I' for Inactive)
REMARK    1  A    between atoms: C_1  and  N_2
REMARK    2  A    between atoms: N_2  and  C_3
REMARK    3  A    between atoms: C_6  and  C_11
REMARK    4  A    between atoms: C_11  and  N_49
REMARK    5  A    between atoms: N_14  and  S_17
REMARK    6  A    between atoms: S_17  and  C_20
REMARK                            x       y       z     vdW  Elec       q    Type
REMARK                         _______ _______ _______ _____ _____    ______ ____
ROOT
ATOM      1  C   UNL     1      -0.013   1.086   0.008  0.00  0.00    -0.061 C 
ATOM      2  C   UNL     1      -0.755   1.594  -1.233  0.00  0.00    +0.091 C 
ATOM      3  N   UNL     1      -0.893   3.055  -1.129  0.00  0.00    -0.180 NA
ATOM      4  C   UNL     1      -1.450   3.614   0.112  0.00  0.00    +0.091 C 
ATOM      5  C   UNL     1      -0.681   3.026   1.300  0.00  0.00    -0.061 C 
ATOM      6  N   UNL     1      -0.730   1.551   1.215  0.00  0.00    +0.386 N 
ATOM      7  H   UNL     1      -1.711   1.254   1.154  0.00  0.00    -0.081 HD
ENDROOT
BRANCH   3   8
ATOM      8  S   UNL     1      -0.434   4.043  -2.376  0.00  0.00    +0.061 S 
ATOM      9  O   UNL     1      -0.158   5.314  -1.806  0.00  0.00    -0.153 OA
ATOM     10  O   UNL     1       0.528   3.321  -3.132  0.00  0.00    -0.153 OA
BRANCH   8  11
ATOM     11  C   UNL     1      -1.840   4.253  -3.418  0.00  0.00    +0.107 A 
ATOM     12  C   UNL     1      -2.058   3.380  -4.468  0.00  0.00    +0.030 A 
ATOM     13  C   UNL     1      -3.163   3.541  -5.283  0.00  0.00    +0.023 A 
ATOM     14  C   UNL     1      -4.045   4.582  -5.055  0.00  0.00    +0.059 A 
ATOM     15  C   UNL     1      -3.823   5.459  -4.007  0.00  0.00    +0.061 A 
ATOM     16  C   UNL     1      -2.720   5.293  -3.189  0.00  0.00    +0.050 A 
ATOM     17 CL   UNL     1      -4.930   6.765  -3.719  0.00  0.00    -0.082 Cl
ATOM     18 CL   UNL     1      -5.429   4.788  -6.082  0.00  0.00    -0.082 Cl
ENDBRANCH   8  11
ENDBRANCH   3   8
BRANCH   6  19
ATOM     19  C   UNL     1      -0.123   0.955   2.423  0.00  0.00    -0.001 C 
BRANCH  19  25
ATOM     20  C   UNL     1      -0.446   5.075   6.935  0.00  0.00    +0.132 C 
ATOM     21  N   UNL     1       0.093   4.406   5.748  0.00  0.00    -0.306 N 
ATOM     22  C   UNL     1       1.315   4.908   5.116  0.00  0.00    +0.132 C 
ATOM     23  C   UNL     1      -0.552   3.304   5.225  0.00  0.00    +0.222 A 
ATOM     24  N   UNL     1      -0.061   2.693   4.149  0.00  0.00    -0.201 NA
ATOM     25  C   UNL     1      -0.680   1.641   3.644  0.00  0.00    +0.120 A 
ATOM     26  N   UNL     1      -1.783   1.184   4.211  0.00  0.00    -0.202 NA
ATOM     27  C   UNL     1      -2.278   1.786   5.290  0.00  0.00    +0.217 A 
ATOM     28  N   UNL     1      -1.661   2.848   5.797  0.00  0.00    -0.181 NA
ATOM     29  N   UNL     1      -3.430   1.309   5.881  0.00  0.00    -0.327 N 
ATOM     30  H   UNL     1      -3.880   0.534   5.510  0.00  0.00    +0.145 HD
ATOM     31  H   UNL     1      -3.790   1.749   6.667  0.00  0.00    +0.145 HD
ENDBRANCH  19  25
ENDBRANCH   6  19
TORSDOF 4
