REMARK  Name = ZINC15796899
REMARK  7 active torsions:
REMARK  status: ('A' for Active; 'I' for Inactive)
REMARK    1  A    between atoms: C_1  and  C_2
REMARK    2  A    between atoms: C_8  and  N_10
REMARK    3  A    between atoms: C_11  and  C_13
REMARK    4  A    between atoms: C_16  and  N_22
REMARK    5  A    between atoms: C_17  and  N_19
REMARK    6  A    between atoms: N_22  and  C_23
REMARK    7  A    between atoms: N_22  and  C_24
REMARK                            x       y       z     vdW  Elec       q    Type
REMARK                         _______ _______ _______ _____ _____    ______ ____
ROOT
ATOM      1  C   UNL     1       1.238   0.232   4.652  0.00  0.00    +0.039 A 
ATOM      2  C   UNL     1       1.917   1.036   3.731  0.00  0.00    +0.015 A 
ATOM      3  C   UNL     1       1.274   1.469   2.594  0.00  0.00    +0.026 A 
ATOM      4  C   UNL     1      -0.053   1.116   2.365  0.00  0.00    +0.060 A 
ATOM      5  C   UNL     1      -0.731   0.316   3.279  0.00  0.00    +0.148 A 
ATOM      6  C   UNL     1      -0.093  -0.125   4.416  0.00  0.00    +0.047 A 
ENDROOT
BRANCH   1   8
ATOM      7  N   UNL     1       3.208   0.105   6.095  0.00  0.00    -0.308 N 
ATOM      8  C   UNL     1       1.925  -0.240   5.869  0.00  0.00    +0.244 C 
ATOM      9  O   UNL     1       1.334  -0.939   6.669  0.00  0.00    -0.270 OA
ATOM     10  H   UNL     1       3.680   0.663   5.457  0.00  0.00    +0.149 HD
BRANCH   7  17
ATOM     11  C   UNL     1       4.455   1.997   7.898  0.00  0.00    +0.009 C 
ATOM     12  C   UNL     1       5.028   0.600   7.652  0.00  0.00    +0.006 C 
ATOM     13  C   UNL     1       5.741   0.111   8.915  0.00  0.00    +0.005 C 
ATOM     14  C   UNL     1       6.313  -1.286   8.669  0.00  0.00    +0.000 C 
ATOM     15  C   UNL     1       5.176  -2.249   8.320  0.00  0.00    +0.002 C 
ATOM     16  C   UNL     1       4.463  -1.760   7.057  0.00  0.00    +0.022 C 
ATOM     17  C   UNL     1       3.891  -0.363   7.303  0.00  0.00    +0.076 C 
ENDBRANCH   7  17
ENDBRANCH   1   8
BRANCH   5  18
ATOM     18  N   UNL     1      -2.140  -0.061   3.029  0.00  0.00    +0.058 N 
ATOM     19  O   UNL     1      -2.735  -0.762   3.829  0.00  0.00    -0.126 OA
ATOM     20  O   UNL     1      -2.706   0.329   2.024  0.00  0.00    -0.126 OA
ENDBRANCH   5  18
BRANCH   4  21
ATOM     21  N   UNL     1      -0.700   1.560   1.217  0.00  0.00    -0.334 N 
ATOM     22  C   UNL     1      -0.013   1.086   0.008  0.00  0.00    +0.129 C 
ATOM     23  C   UNL     1      -0.822   3.023   1.213  0.00  0.00    +0.129 C 
ENDBRANCH   4  21
TORSDOF 4
