REMARK  Name = ZINC25860544
REMARK  9 active torsions:
REMARK  status: ('A' for Active; 'I' for Inactive)
REMARK    1  A    between atoms: C_1  and  C_2
REMARK    2  A    between atoms: N_5  and  S_8
REMARK    3  A    between atoms: S_8  and  C_11
REMARK    4  A    between atoms: C_14  and  C_17
REMARK    5  A    between atoms: N_19  and  C_20
REMARK    6  A    between atoms: C_20  and  C_21
REMARK    7  A    between atoms: C_21  and  C_22
REMARK    8  A    between atoms: C_22  and  N_23
REMARK    9  A    between atoms: N_26  and  C_29
REMARK                            x       y       z     vdW  Elec       q    Type
REMARK                         _______ _______ _______ _____ _____    ______ ____
ROOT
ATOM      1  C   UNL     1       1.250  -2.160  -0.021  0.00  0.00    +0.244 C 
ATOM      2  O   UNL     1       0.208  -2.788  -0.014  0.00  0.00    -0.270 OA
ATOM      3  N   UNL     1       2.429  -2.812  -0.036  0.00  0.00    -0.311 N 
ATOM      4  H   UNL     1       3.371  -2.245  -0.042  0.00  0.00    +0.149 HD
ENDROOT
BRANCH   1   8
ATOM      5  C   UNL     1       1.170   2.086   0.002  0.00  0.00    +0.106 A 
ATOM      6  C   UNL     1      -0.017   1.375   0.010  0.00  0.00    +0.029 A 
ATOM      7  C   UNL     1       0.002  -0.004   0.002  0.00  0.00    +0.015 A 
ATOM      8  C   UNL     1       1.222  -0.682  -0.013  0.00  0.00    +0.037 A 
ATOM      9  C   UNL     1       2.416   0.041  -0.021  0.00  0.00    +0.015 A 
ATOM     10  C   UNL     1       2.383   1.420  -0.013  0.00  0.00    +0.029 A 
BRANCH   5  11
ATOM     11  S   UNL     1       1.137   3.848   0.011  0.00  0.00    +0.061 S 
ATOM     12  O   UNL     1       2.370   4.280  -0.549  0.00  0.00    -0.153 OA
ATOM     13  O   UNL     1      -0.120   4.234  -0.526  0.00  0.00    -0.153 OA
BRANCH  11  18
ATOM     14  C   UNL     1       1.110   7.507   4.426  0.00  0.00    +0.007 C 
ATOM     15  C   UNL     1       1.130   6.116   3.789  0.00  0.00    -0.012 C 
ATOM     16  C   UNL     1       2.375   5.976   2.909  0.00  0.00    +0.020 C 
ATOM     17  C   UNL     1       2.410   4.571   2.300  0.00  0.00    +0.110 C 
ATOM     18  N   UNL     1       1.143   4.330   1.596  0.00  0.00    -0.177 NA
ATOM     19  C   UNL     1      -0.118   4.529   2.322  0.00  0.00    +0.110 C 
ATOM     20  C   UNL     1      -0.125   5.930   2.933  0.00  0.00    +0.020 C 
ENDBRANCH  11  18
ENDBRANCH   5  11
ENDBRANCH   1   8
BRANCH   3  21
ATOM     21  C   UNL     1       2.456  -4.277  -0.043  0.00  0.00    +0.102 C 
BRANCH  21  22
ATOM     22  C   UNL     1       3.908  -4.760  -0.060  0.00  0.00    +0.000 C 
BRANCH  22  23
ATOM     23  C   UNL     1       3.937  -6.290  -0.068  0.00  0.00    -0.077 C 
BRANCH  23  24
ATOM     24  N   UNL     1       5.330  -6.753  -0.084  0.00  0.00    +0.382 N 
ATOM     25  C   UNL     1       5.992  -6.388  -1.344  0.00  0.00    -0.060 C 
ATOM     26  C   UNL     1       7.461  -6.817  -1.289  0.00  0.00    +0.086 C 
ATOM     27  N   UNL     1       7.536  -8.267  -1.059  0.00  0.00    -0.333 N 
ATOM     28  C   UNL     1       6.874  -8.632   0.201  0.00  0.00    +0.086 C 
ATOM     29  C   UNL     1       5.406  -8.203   0.146  0.00  0.00    -0.060 C 
ATOM     30  H   UNL     1       5.862  -6.251   0.737  0.00  0.00    -0.082 HD
BRANCH  27  31
ATOM     31  C   UNL     1       8.861  -8.708  -1.074  0.00  0.00    +0.030 A 
ATOM     32  C   UNL     1       9.381  -9.388   0.020  0.00  0.00    +0.023 A 
ATOM     33  C   UNL     1      10.691  -9.827  -0.000  0.00  0.00    +0.002 A 
ATOM     34  C   UNL     1      11.487  -9.580  -1.103  0.00  0.00    +0.000 A 
ATOM     35  C   UNL     1      10.974  -8.898  -2.192  0.00  0.00    +0.002 A 
ATOM     36  C   UNL     1       9.664  -8.461  -2.180  0.00  0.00    +0.023 A 
ENDBRANCH  27  31
ENDBRANCH  23  24
ENDBRANCH  22  23
ENDBRANCH  21  22
ENDBRANCH   3  21
TORSDOF 8
