REMARK  Name = ZINC13065465
REMARK  11 active torsions:
REMARK  status: ('A' for Active; 'I' for Inactive)
REMARK    1  A    between atoms: C_1  and  C_2
REMARK    2  A    between atoms: C_5  and  C_8
REMARK    3  A    between atoms: C_8  and  N_66
REMARK    4  A    between atoms: C_9  and  C_10
REMARK    5  A    between atoms: C_9  and  N_66
REMARK    6  A    between atoms: C_14  and  C_22
REMARK    7  A    between atoms: C_23  and  C_24
REMARK    8  A    between atoms: C_23  and  N_66
REMARK    9  A    between atoms: N_28  and  C_29
REMARK   10  A    between atoms: C_29  and  C_30
REMARK   11  A    between atoms: C_30  and  C_31
REMARK                            x       y       z     vdW  Elec       q    Type
REMARK                         _______ _______ _______ _____ _____    ______ ____
ROOT
ATOM      1  N   UNL     1      -0.952  -2.040  -2.718  0.00  0.00    +0.390 N 
ATOM      2  H   UNL     1      -0.162  -2.487  -2.237  0.00  0.00    -0.080 HD
ENDROOT
BRANCH   1   3
ATOM      3  C   UNL     1      -1.877  -3.088  -3.199  0.00  0.00    -0.042 C 
BRANCH   3   8
ATOM      4  C   UNL     1       1.209  -7.262  -5.739  0.00  0.00    +0.044 C 
ATOM      5  C   UNL     1       0.404  -6.174  -5.077  0.00  0.00    -0.050 A 
ATOM      6  C   UNL     1       0.241  -6.173  -3.704  0.00  0.00    +0.003 A 
ATOM      7  C   UNL     1      -0.497  -5.175  -3.097  0.00  0.00    +0.002 A 
ATOM      8  C   UNL     1      -1.072  -4.177  -3.861  0.00  0.00    -0.064 A 
ATOM      9  C   UNL     1      -0.912  -4.180  -5.235  0.00  0.00    +0.002 A 
ATOM     10  C   UNL     1      -0.170  -5.176  -5.842  0.00  0.00    +0.003 A 
ENDBRANCH   3   8
ENDBRANCH   1   3
BRANCH   1  11
ATOM     11  C   UNL     1      -0.438  -1.257  -3.861  0.00  0.00    -0.036 C 
BRANCH  11  12
ATOM     12  C   UNL     1       0.836  -0.569  -3.440  0.00  0.00    +0.001 A 
ATOM     13  C   UNL     1       2.032  -1.169  -3.660  0.00  0.00    +0.017 A 
ATOM     14  C   UNL     1       3.250  -0.474  -3.240  0.00  0.00    -0.001 A 
ATOM     15  C   UNL     1       4.513  -1.042  -3.440  0.00  0.00    +0.013 A 
ATOM     16  C   UNL     1       5.630  -0.367  -3.037  0.00  0.00    -0.050 A 
ATOM     17  C   UNL     1       5.524   0.876  -2.429  0.00  0.00    +0.005 A 
ATOM     18  C   UNL     1       4.291   1.455  -2.221  0.00  0.00    +0.026 A 
ATOM     19  C   UNL     1       3.138   0.787  -2.624  0.00  0.00    +0.049 A 
ATOM     20  N   UNL     1       1.892   1.342  -2.429  0.00  0.00    -0.322 N 
ATOM     21  H   UNL     1       1.817   2.211  -2.004  0.00  0.00    +0.169 HD
ATOM     22  C   UNL     1       0.779   0.699  -2.824  0.00  0.00    +0.251 A 
ATOM     23  O   UNL     1      -0.306   1.222  -2.639  0.00  0.00    -0.268 OA
ATOM     24  C   UNL     1       6.990  -0.980  -3.253  0.00  0.00    +0.044 C 
ENDBRANCH  11  12
ENDBRANCH   1  11
BRANCH   1  25
ATOM     25  C   UNL     1      -1.650  -1.149  -1.768  0.00  0.00    +0.001 C 
BRANCH  25  26
ATOM     26  C   UNL     1      -1.969  -1.925  -0.517  0.00  0.00    +0.135 A 
ATOM     27  N   UNL     1      -3.066  -2.601  -0.273  0.00  0.00    -0.115 NA
ATOM     28  N   UNL     1      -2.958  -3.124   0.899  0.00  0.00    -0.023 NA
ATOM     29  N   UNL     1      -1.819  -2.805   1.408  0.00  0.00    -0.044 NA
ATOM     30  N   UNL     1      -1.183  -2.061   0.567  0.00  0.00    -0.231 N 
BRANCH  30  31
ATOM     31  C   UNL     1       0.149  -1.480   0.755  0.00  0.00    +0.152 C 
BRANCH  31  32
ATOM     32  C   UNL     1       0.016  -0.099   1.401  0.00  0.00    +0.058 C 
BRANCH  32  33
ATOM     33  C   UNL     1       1.385   0.499   1.594  0.00  0.00    -0.046 A 
ATOM     34  C   UNL     1       2.077   0.277   2.770  0.00  0.00    +0.004 A 
ATOM     35  C   UNL     1       3.336   0.822   2.945  0.00  0.00    +0.000 A 
ATOM     36  C   UNL     1       3.898   1.597   1.948  0.00  0.00    +0.000 A 
ATOM     37  C   UNL     1       3.204   1.824   0.774  0.00  0.00    +0.000 A 
ATOM     38  C   UNL     1       1.948   1.275   0.597  0.00  0.00    +0.004 A 
ENDBRANCH  32  33
ENDBRANCH  31  32
ENDBRANCH  30  31
ENDBRANCH  25  26
ENDBRANCH   1  25
TORSDOF 9
