REMARK  Name = ZINC19314947
REMARK  4 active torsions:
REMARK  status: ('A' for Active; 'I' for Inactive)
REMARK    1  A    between atoms: C_1  and  C_2
REMARK    2  A    between atoms: C_6  and  C_13
REMARK    3  A    between atoms: C_9  and  O_11
REMARK    4  A    between atoms: O_11  and  C_12
REMARK                            x       y       z     vdW  Elec       q    Type
REMARK                         _______ _______ _______ _____ _____    ______ ____
ROOT
ATOM      1  C   UNL     1       0.016   1.503   0.007  0.00  0.00    +0.066 C 
ATOM      2  C   UNL     1       0.019  -0.004   0.001  0.00  0.00    +0.049 C 
ATOM      3  N   UNL     1      -0.078  -0.634  -1.147  0.00  0.00    -0.256 NA
ATOM      4  C   UNL     1      -0.091  -1.952  -1.310  0.00  0.00    +0.049 C 
ATOM      5  C   UNL     1       0.000  -2.807  -0.232  0.00  0.00    +0.028 C 
ATOM      6  C   UNL     1       0.120  -2.201   1.153  0.00  0.00    +0.093 C 
ATOM      7  C   UNL     1       0.129  -0.684   1.212  0.00  0.00    +0.069 C 
ATOM      8  C   UNL     1       0.237  -0.009   2.411  0.00  0.00    +0.338 C 
ATOM      9  O   UNL     1       0.459  -0.693   3.550  0.00  0.00    -0.245 OA
ATOM     10  C   UNL     1      -0.018  -4.188  -0.383  0.00  0.00    +0.162 C 
ATOM     11  O   UNL     1       0.069  -4.901   0.598  0.00  0.00    -0.292 OA
ATOM     12  C   UNL     1      -0.144  -4.812  -1.749  0.00  0.00    +0.080 C 
ATOM     13  C   UNL     1      -0.927  -3.861  -2.660  0.00  0.00    +0.014 C 
ATOM     14  C   UNL     1      -0.205  -2.513  -2.708  0.00  0.00    +0.056 C 
ENDROOT
BRANCH   6  15
ATOM     15  C   UNL     1       1.401  -2.696   1.774  0.00  0.00    -0.031 A 
ATOM     16  C   UNL     1       2.613  -2.422   1.167  0.00  0.00    +0.008 A 
ATOM     17  C   UNL     1       3.791  -2.873   1.733  0.00  0.00    +0.050 A 
ATOM     18  C   UNL     1       3.759  -3.602   2.911  0.00  0.00    +0.166 A 
ATOM     19  C   UNL     1       2.538  -3.878   3.522  0.00  0.00    +0.167 A 
ATOM     20  C   UNL     1       1.362  -3.418   2.952  0.00  0.00    +0.054 A 
ATOM     21  O   UNL     1       2.772  -4.603   4.656  0.00  0.00    -0.453 OA
ATOM     22  C   UNL     1       4.110  -5.115   4.515  0.00  0.00    +0.466 C 
ATOM     23  O   UNL     1       4.757  -4.153   3.662  0.00  0.00    -0.453 OA
ENDBRANCH   6  15
BRANCH   8  24
ATOM     24  O   UNL     1       0.120   1.332   2.441  0.00  0.00    -0.465 OA
ATOM     25  C   UNL     1       0.242   1.965   3.717  0.00  0.00    +0.280 C 
ENDBRANCH   8  24
TORSDOF 2
