REMARK  Name = ZINC39659438
REMARK  9 active torsions:
REMARK  status: ('A' for Active; 'I' for Inactive)
REMARK    1  A    between atoms: C_1  and  C_2
REMARK    2  A    between atoms: C_2  and  C_29
REMARK    3  A    between atoms: C_5  and  C_8
REMARK    4  A    between atoms: C_8  and  N_9
REMARK    5  A    between atoms: C_10  and  C_12
REMARK    6  A    between atoms: C_23  and  C_25
REMARK    7  A    between atoms: C_25  and  C_26
REMARK    8  A    between atoms: C_26  and  S_27
REMARK    9  A    between atoms: S_27  and  C_28
REMARK                            x       y       z     vdW  Elec       q    Type
REMARK                         _______ _______ _______ _____ _____    ______ ____
ROOT
ATOM      1  C   UNL     1       3.368  -2.971   4.869  0.00  0.00    +0.100 C 
ATOM      2  C   UNL     1       4.309  -1.829   4.423  0.00  0.00    +0.121 C 
ATOM      3  N   UNL     1       4.526  -1.024   5.647  0.00  0.00    -0.300 N 
ATOM      4  C   UNL     1       4.645  -2.027   6.732  0.00  0.00    +0.115 C 
ATOM      5  C   UNL     1       3.594  -3.100   6.384  0.00  0.00    -0.004 C 
ATOM      6  C   UNL     1       2.295  -2.829   7.137  0.00  0.00    -0.010 C 
ATOM      7  C   UNL     1       2.532  -3.018   8.638  0.00  0.00    -0.082 C 
ATOM      8  N   UNL     1       2.992  -4.388   8.894  0.00  0.00    +0.379 N 
ATOM      9  C   UNL     1       4.288  -4.611   8.242  0.00  0.00    -0.082 C 
ATOM     10  C   UNL     1       4.126  -4.489   6.724  0.00  0.00    -0.010 C 
ATOM     11  C   UNL     1       4.599   0.318   5.751  0.00  0.00    +0.216 C 
ATOM     12  O   UNL     1       4.783   0.834   6.833  0.00  0.00    -0.276 OA
ATOM     13  H   UNL     1       3.089  -4.529   9.888  0.00  0.00    -0.086 HD
ATOM     14  H   UNL     1       2.317  -5.043   8.528  0.00  0.00    -0.086 HD
ENDROOT
BRANCH   1  16
ATOM     15  N   UNL     1       1.030  -3.584   4.342  0.00  0.00    -0.312 N 
ATOM     16  C   UNL     1       1.933  -2.612   4.581  0.00  0.00    +0.218 C 
ATOM     17  O   UNL     1       1.591  -1.449   4.563  0.00  0.00    -0.275 OA
ATOM     18  H   UNL     1       1.304  -4.514   4.356  0.00  0.00    +0.149 HD
BRANCH  15  19
ATOM     19  C   UNL     1      -0.365  -3.234   4.062  0.00  0.00    +0.138 C 
BRANCH  19  24
ATOM     20  C   UNL     1      -2.012  -5.913   0.662  0.00  0.00    +0.074 C 
ATOM     21  C   UNL     1      -1.918  -5.920   2.190  0.00  0.00    +0.165 C 
ATOM     22  O   UNL     1      -3.091  -5.313   2.747  0.00  0.00    -0.347 OA
ATOM     23  C   UNL     1      -2.657  -4.182   3.530  0.00  0.00    +0.196 C 
ATOM     24  C   UNL     1      -1.174  -4.512   3.830  0.00  0.00    +0.164 C 
ATOM     25  O   UNL     1      -0.765  -5.169   2.606  0.00  0.00    -0.342 OA
ATOM     26  C   UNL     1      -1.802  -7.361   2.691  0.00  0.00    +0.074 C 
ENDBRANCH  19  24
ENDBRANCH  15  19
ENDBRANCH   1  16
BRANCH  11  27
ATOM     27  C   UNL     1       4.452   1.178   4.522  0.00  0.00    +0.106 C 
BRANCH  27  28
ATOM     28  C   UNL     1       4.574   2.652   4.913  0.00  0.00    +0.078 C 
BRANCH  28  29
ATOM     29  S   UNL     1       4.397   3.687   3.434  0.00  0.00    -0.164 S 
ATOM     30  C   UNL     1       4.564   5.381   4.061  0.00  0.00    +0.084 C 
ENDBRANCH  28  29
ENDBRANCH  27  28
ENDBRANCH  11  27
TORSDOF 6
