REMARK  Name = ZINC09833426
REMARK  10 active torsions:
REMARK  status: ('A' for Active; 'I' for Inactive)
REMARK    1  A    between atoms: C_1  and  C_2
REMARK    2  A    between atoms: C_5  and  C_37
REMARK    3  A    between atoms: C_9  and  C_10
REMARK    4  A    between atoms: C_9  and  N_68
REMARK    5  A    between atoms: C_10  and  C_11
REMARK    6  A    between atoms: C_11  and  N_12
REMARK    7  A    between atoms: C_13  and  C_15
REMARK    8  A    between atoms: C_25  and  C_27
REMARK    9  A    between atoms: C_32  and  N_33
REMARK   10  A    between atoms: C_34  and  C_36
REMARK                            x       y       z     vdW  Elec       q    Type
REMARK                         _______ _______ _______ _____ _____    ______ ____
ROOT
ATOM      1  C   UNL     1      -0.990  -2.195  -0.224  0.00  0.00    +0.039 A 
ATOM      2  C   UNL     1       0.210  -2.902  -0.378  0.00  0.00    +0.015 A 
ATOM      3  C   UNL     1       0.217  -4.263  -0.364  0.00  0.00    +0.030 A 
ATOM      4  C   UNL     1      -0.985  -4.974  -0.205  0.00  0.00    +0.088 A 
ATOM      5  C   UNL     1      -2.195  -4.270  -0.054  0.00  0.00    +0.068 A 
ATOM      6  C   UNL     1      -2.190  -2.881  -0.064  0.00  0.00    +0.041 A 
ATOM      7  N   UNL     1      -3.384  -4.958   0.104  0.00  0.00    -0.319 N 
ATOM      8  H   UNL     1      -4.220  -4.477   0.209  0.00  0.00    +0.169 HD
ATOM      9  C   UNL     1      -3.366  -6.309   0.111  0.00  0.00    +0.275 A 
ATOM     10  O   UNL     1      -4.397  -6.939   0.249  0.00  0.00    -0.266 OA
ATOM     11  C   UNL     1      -2.076  -7.009  -0.050  0.00  0.00    +0.138 A 
ATOM     12  N   UNL     1      -0.969  -6.320  -0.197  0.00  0.00    -0.240 NA
ENDROOT
BRANCH  11  13
ATOM     13  C   UNL     1      -2.032  -8.486  -0.045  0.00  0.00    +0.027 A 
ATOM     14  C   UNL     1      -1.382  -9.165   0.987  0.00  0.00    +0.012 A 
ATOM     15  C   UNL     1      -1.348 -10.543   0.988  0.00  0.00    +0.001 A 
ATOM     16  C   UNL     1      -1.947 -11.259  -0.036  0.00  0.00    +0.002 A 
ATOM     17  C   UNL     1      -2.590 -10.599  -1.066  0.00  0.00    +0.024 A 
ATOM     18  C   UNL     1      -2.638  -9.213  -1.080  0.00  0.00    +0.043 A 
BRANCH  18  19
ATOM     19  N   UNL     1      -3.286  -8.545  -2.119  0.00  0.00    -0.285 N 
ATOM     20  C   UNL     1      -4.372  -9.094  -2.699  0.00  0.00    +0.214 C 
ATOM     21  O   UNL     1      -4.843 -10.120  -2.256  0.00  0.00    -0.276 OA
ATOM     22  C   UNL     1      -5.002  -8.432  -3.897  0.00  0.00    +0.109 C 
ATOM     23  H   UNL     1      -2.955  -7.686  -2.425  0.00  0.00    +0.155 HD
ENDBRANCH  18  19
ENDBRANCH  11  13
BRANCH   1  25
ATOM     24  N   UNL     1       0.180  -0.051  -0.390  0.00  0.00    -0.311 N 
ATOM     25  C   UNL     1      -0.981  -0.717  -0.236  0.00  0.00    +0.244 C 
ATOM     26  O   UNL     1      -2.022  -0.102  -0.107  0.00  0.00    -0.270 OA
ATOM     27  H   UNL     1       1.011  -0.542  -0.493  0.00  0.00    +0.149 HD
BRANCH  24  28
ATOM     28  C   UNL     1       0.189   1.414  -0.402  0.00  0.00    +0.102 C 
BRANCH  28  29
ATOM     29  C   UNL     1       1.622   1.914  -0.589  0.00  0.00    +0.000 C 
BRANCH  29  30
ATOM     30  C   UNL     1       1.631   3.444  -0.602  0.00  0.00    -0.077 C 
BRANCH  30  38
ATOM     31  C   UNL     1       6.162   3.615   1.303  0.00  0.00    +0.005 C 
ATOM     32  C   UNL     1       5.296   3.959   0.090  0.00  0.00    -0.031 C 
ATOM     33  C   UNL     1       5.377   5.464  -0.184  0.00  0.00    +0.003 C 
ATOM     34  C   UNL     1       4.461   5.809  -1.362  0.00  0.00    -0.031 C 
ATOM     35  C   UNL     1       3.031   5.371  -1.036  0.00  0.00    -0.076 C 
ATOM     36  C   UNL     1       3.843   3.574   0.374  0.00  0.00    -0.076 C 
ATOM     37  C   UNL     1       4.489   7.319  -1.605  0.00  0.00    +0.005 C 
ATOM     38  N   UNL     1       3.018   3.910  -0.806  0.00  0.00    +0.380 N 
ATOM     39  H   UNL     1       3.410   3.440  -1.631  0.00  0.00    -0.082 HD
ENDBRANCH  30  38
ENDBRANCH  29  30
ENDBRANCH  28  29
ENDBRANCH  24  28
ENDBRANCH   1  25
TORSDOF 7
