REMARK  Name = ZINC49739033
REMARK  3 active torsions:
REMARK  status: ('A' for Active; 'I' for Inactive)
REMARK    1  A    between atoms: C_10  and  C_13
REMARK    2  A    between atoms: C_13  and  N_14
REMARK    3  A    between atoms: C_15  and  C_17
REMARK                            x       y       z     vdW  Elec       q    Type
REMARK                         _______ _______ _______ _____ _____    ______ ____
ROOT
ATOM      1  C   UNL     1       3.693  -1.677   2.103  0.00  0.00    +0.158 C 
ENDROOT
BRANCH   1  11
ATOM      2  C   UNL     1      -0.017   1.378   0.010  0.00  0.00    +0.002 A 
ATOM      3  C   UNL     1       1.169   2.090   0.002  0.00  0.00    +0.004 A 
ATOM      4  C   UNL     1       2.381   1.424  -0.019  0.00  0.00    +0.047 A 
ATOM      5  C   UNL     1       2.408   0.040  -0.030  0.00  0.00    +0.143 A 
ATOM      6  C   UNL     1       1.213  -0.677  -0.012  0.00  0.00    +0.076 A 
ATOM      7  C   UNL     1       0.002  -0.004   0.002  0.00  0.00    +0.027 A 
ATOM      8  N   UNL     1       1.250  -2.078   0.012  0.00  0.00    -0.279 N 
ATOM      9  C   UNL     1       2.425  -2.703   0.235  0.00  0.00    +0.260 C 
ATOM     10  O   UNL     1       2.498  -3.911   0.151  0.00  0.00    -0.271 OA
ATOM     11  C   UNL     1       3.647  -1.893   0.589  0.00  0.00    +0.276 C 
ATOM     12  O   UNL     1       3.593  -0.626  -0.070  0.00  0.00    -0.476 OA
ATOM     13  H   UNL     1       0.440  -2.592  -0.130  0.00  0.00    +0.155 HD
ENDBRANCH   1  11
BRANCH   1  14
ATOM     14  N   UNL     1       4.880  -0.891   2.448  0.00  0.00    -0.307 N 
ATOM     15  C   UNL     1       5.129  -0.576   3.735  0.00  0.00    +0.244 C 
ATOM     16  O   UNL     1       4.368  -0.944   4.609  0.00  0.00    -0.270 OA
ATOM     17  H   UNL     1       5.487  -0.597   1.751  0.00  0.00    +0.149 HD
BRANCH  15  18
ATOM     18  C   UNL     1       6.325   0.217   4.082  0.00  0.00    +0.040 A 
ATOM     19  C   UNL     1       7.197   0.646   3.079  0.00  0.00    +0.017 A 
ATOM     20  C   UNL     1       8.312   1.386   3.405  0.00  0.00    +0.050 A 
ATOM     21  C   UNL     1       8.574   1.708   4.730  0.00  0.00    +0.166 A 
ATOM     22  C   UNL     1       7.707   1.282   5.737  0.00  0.00    +0.167 A 
ATOM     23  C   UNL     1       6.584   0.544   5.416  0.00  0.00    +0.062 A 
ATOM     24  O   UNL     1       8.184   1.724   6.938  0.00  0.00    -0.453 OA
ATOM     25  C   UNL     1       9.561   2.072   6.699  0.00  0.00    +0.466 C 
ATOM     26  O   UNL     1       9.590   2.416   5.301  0.00  0.00    -0.453 OA
ENDBRANCH  15  18
ENDBRANCH   1  14
TORSDOF 3
