REMARK  Name = ZINC59403384
REMARK  7 active torsions:
REMARK  status: ('A' for Active; 'I' for Inactive)
REMARK    1  A    between atoms: C_1  and  C_2
REMARK    2  A    between atoms: C_6  and  C_8
REMARK    3  A    between atoms: C_15  and  C_17
REMARK    4  A    between atoms: C_20  and  C_23
REMARK    5  A    between atoms: C_23  and  S_24
REMARK    6  A    between atoms: S_24  and  C_25
REMARK    7  A    between atoms: C_27  and  C_30
REMARK                            x       y       z     vdW  Elec       q    Type
REMARK                         _______ _______ _______ _____ _____    ______ ____
ROOT
ATOM      1  C   UNL     1       0.050  -2.682   2.495  0.00  0.00    +0.201 A 
ATOM      2  N   UNL     1       0.047  -2.085   3.695  0.00  0.00    -0.192 NA
ATOM      3  H   UNL     1       0.091  -5.072   4.502  0.00  0.00    +0.192 HD
ATOM      4  C   UNL     1       0.064  -2.995   4.642  0.00  0.00    +0.218 A 
ATOM      5  N   UNL     1       0.077  -4.211   4.054  0.00  0.00    -0.246 N 
ATOM      6  N   UNL     1       0.062  -3.985   2.668  0.00  0.00    -0.149 NA
ATOM      7  N   UNL     1       0.067  -2.750   6.007  0.00  0.00    -0.251 N 
ATOM      8  C   UNL     1       0.085  -3.780   6.876  0.00  0.00    +0.250 C 
ATOM      9  O   UNL     1       0.099  -4.923   6.464  0.00  0.00    -0.270 OA
ATOM     10  H   UNL     1       0.057  -1.838   6.336  0.00  0.00    +0.158 HD
ENDROOT
BRANCH   1  16
ATOM     11  C   UNL     1      -0.018   1.503   0.010  0.00  0.00    +0.065 C 
ATOM     12  C   UNL     1       0.002  -0.004   0.002  0.00  0.00    +0.039 A 
ATOM     13  C   UNL     1       0.005  -0.680  -1.205  0.00  0.00    +0.023 A 
ATOM     14  C   UNL     1       0.024  -2.067  -1.208  0.00  0.00    +0.004 A 
ATOM     15  C   UNL     1       0.039  -2.730   0.007  0.00  0.00    +0.031 A 
ATOM     16  C   UNL     1       0.035  -1.986   1.185  0.00  0.00    +0.110 A 
ATOM     17  N   UNL     1       0.022  -0.660   1.144  0.00  0.00    -0.249 NA
ENDBRANCH   1  16
BRANCH   8  18
ATOM     18  C   UNL     1       0.089  -3.519   8.331  0.00  0.00    +0.037 A 
ATOM     19  C   UNL     1       0.069  -2.207   8.808  0.00  0.00    +0.013 A 
ATOM     20  C   UNL     1       0.072  -1.971  10.167  0.00  0.00    +0.005 A 
ATOM     21  C   UNL     1       0.097  -3.030  11.057  0.00  0.00    -0.037 A 
ATOM     22  C   UNL     1       0.118  -4.333  10.591  0.00  0.00    +0.005 A 
ATOM     23  C   UNL     1       0.108  -4.583   9.234  0.00  0.00    +0.013 A 
BRANCH  21  24
ATOM     24  C   UNL     1       0.102  -2.764  12.540  0.00  0.00    +0.111 C 
BRANCH  24  25
ATOM     25  S   UNL     1      -1.606  -2.688  13.146  0.00  0.00    -0.094 S 
BRANCH  25  26
ATOM     26  C   UNL     1      -1.433  -2.376  14.871  0.00  0.00    +0.135 A 
ATOM     27  N   UNL     1      -2.379  -2.237  15.777  0.00  0.00    -0.238 NA
ATOM     28  C   UNL     1      -2.082  -2.003  17.043  0.00  0.00    +0.047 A 
ATOM     29  C   UNL     1      -0.768  -1.914  17.361  0.00  0.00    +0.070 A 
ATOM     30  S   UNL     1      -0.018  -2.189  15.764  0.00  0.00    -0.069 S 
ATOM     31  C   UNL     1      -3.156  -1.843  18.087  0.00  0.00    +0.066 C 
ENDBRANCH  25  26
ENDBRANCH  24  25
ENDBRANCH  21  24
ENDBRANCH   8  18
TORSDOF 5
