REMARK  Name = ZINC07058237
REMARK  2 active torsions:
REMARK  status: ('A' for Active; 'I' for Inactive)
REMARK    1  A    between atoms: C_6  and  C_11
REMARK    2  A    between atoms: C_14  and  C_15
REMARK                            x       y       z     vdW  Elec       q    Type
REMARK                         _______ _______ _______ _____ _____    ______ ____
ROOT
ATOM      1  C   UNL     1      -2.378  -2.917   0.007  0.00  0.00    +0.232 C 
ATOM      2  N   UNL     1      -2.426  -4.221  -0.005  0.00  0.00    -0.205 NA
ATOM      3  C   UNL     1      -3.729  -4.619   0.010  0.00  0.00    +0.153 C 
ATOM      4  C   UNL     1      -4.208  -5.921   0.007  0.00  0.00    +0.050 C 
ATOM      5  C   UNL     1      -4.520  -3.381   0.023  0.00  0.00    +0.364 C 
ATOM      6  O   UNL     1      -5.733  -3.279   0.035  0.00  0.00    -0.243 OA
ATOM      7  O   UNL     1      -3.614  -2.379   0.021  0.00  0.00    -0.402 OA
ENDROOT
BRANCH   1  13
ATOM      8  C   UNL     1       2.380   1.425  -0.013  0.00  0.00    +0.001 A 
ATOM      9  C   UNL     1       1.156   2.092   0.002  0.00  0.00    +0.001 A 
ATOM     10  C   UNL     1      -0.017   1.402   0.010  0.00  0.00    +0.008 A 
ATOM     11  C   UNL     1       0.002  -0.004   0.002  0.00  0.00    -0.017 A 
ATOM     12  C   UNL     1      -1.189  -0.745   0.009  0.00  0.00    +0.021 A 
ATOM     13  C   UNL     1      -1.129  -2.130   0.001  0.00  0.00    +0.038 A 
ATOM     14  C   UNL     1       0.113  -2.791  -0.015  0.00  0.00    +0.014 A 
ATOM     15  C   UNL     1       1.274  -2.090  -0.021  0.00  0.00    +0.009 A 
ATOM     16  C   UNL     1       1.247  -0.683  -0.013  0.00  0.00    -0.018 A 
ATOM     17  C   UNL     1       2.437   0.064  -0.021  0.00  0.00    +0.008 A 
ENDBRANCH   1  13
BRANCH   4  18
ATOM     18  C   UNL     1      -3.308  -7.003  -0.007  0.00  0.00    +0.015 A 
ATOM     19  C   UNL     1      -3.578  -8.371  -0.006  0.00  0.00    +0.031 A 
ATOM     20  C   UNL     1      -2.499  -9.216  -0.026  0.00  0.00    +0.025 A 
ATOM     21  C   UNL     1      -1.242  -8.691  -0.033  0.00  0.00    +0.061 A 
ATOM     22  S   UNL     1      -1.524  -6.981  -0.021  0.00  0.00    -0.096 S 
ATOM     23 BR   UNL     1      -2.752 -11.090  -0.035  0.00  0.00    -0.050 Br
ENDBRANCH   4  18
TORSDOF 2
