REMARK  Name = ZINC55065780
REMARK  6 active torsions:
REMARK  status: ('A' for Active; 'I' for Inactive)
REMARK    1  A    between atoms: C_1  and  C_2
REMARK    2  A    between atoms: N_13  and  C_19
REMARK    3  A    between atoms: C_19  and  C_20
REMARK    4  A    between atoms: C_20  and  C_22
REMARK    5  A    between atoms: C_20  and  O_28
REMARK    6  A    between atoms: C_22  and  N_23
REMARK                            x       y       z     vdW  Elec       q    Type
REMARK                         _______ _______ _______ _____ _____    ______ ____
ROOT
ATOM      1  C   UNL     1       1.792   1.569   1.144  0.00  0.00    +0.044 C 
ATOM      2  C   UNL     1       1.506   0.100   0.963  0.00  0.00    -0.050 A 
ATOM      3  C   UNL     1       1.298  -0.390  -0.316  0.00  0.00    +0.005 A 
ATOM      4  C   UNL     1       1.033  -1.726  -0.559  0.00  0.00    +0.026 A 
ATOM      5  C   UNL     1       0.981  -2.576   0.543  0.00  0.00    +0.050 A 
ATOM      6  C   UNL     1       1.193  -2.066   1.859  0.00  0.00    +0.004 A 
ATOM      7  C   UNL     1       1.466  -0.710   2.069  0.00  0.00    +0.013 A 
ATOM      8  C   UNL     1       1.065  -3.190   2.747  0.00  0.00    -0.017 A 
ATOM      9  C   UNL     1       0.777  -4.257   1.974  0.00  0.00    +0.040 A 
ATOM     10  N   UNL     1       0.753  -3.914   0.651  0.00  0.00    -0.341 N 
ATOM     11  C   UNL     1       0.526  -4.925  -0.394  0.00  0.00    +0.137 C 
ATOM     12  C   UNL     1      -0.049  -6.180   0.274  0.00  0.00    +0.106 C 
ATOM     13  N   UNL     1       0.751  -6.579   1.440  0.00  0.00    -0.290 NA
ATOM     14  C   UNL     1       0.557  -5.634   2.559  0.00  0.00    +0.104 C 
ATOM     15  C   UNL     1       1.602  -5.863   3.639  0.00  0.00    +0.025 C 
ATOM     16  C   UNL     1       1.935  -4.678   4.511  0.00  0.00    +0.007 C 
ATOM     17  C   UNL     1       1.190  -3.381   4.232  0.00  0.00    +0.037 C 
ENDROOT
BRANCH  13  18
ATOM     18  C   UNL     1       0.435  -7.953   1.851  0.00  0.00    +0.114 C 
BRANCH  18  19
ATOM     19  C   UNL     1       1.126  -8.940   0.908  0.00  0.00    +0.112 C 
BRANCH  19  20
ATOM     20  O   UNL     1       0.555  -8.831  -0.397  0.00  0.00    -0.392 OA
ATOM     21  H   UNL     1      -0.392  -9.023  -0.429  0.00  0.00    +0.210 HD
ENDBRANCH  19  20
BRANCH  19  22
ATOM     22  C   UNL     1       0.936 -10.365   1.431  0.00  0.00    -0.046 C 
BRANCH  22  23
ATOM     23  N   UNL     1       1.699 -11.300   0.594  0.00  0.00    +0.381 N 
ATOM     24  C   UNL     1       3.156 -11.091   0.791  0.00  0.00    -0.079 C 
ATOM     25  C   UNL     1       3.772 -12.438   0.334  0.00  0.00    -0.020 C 
ATOM     26  C   UNL     1       2.746 -13.477   0.841  0.00  0.00    -0.020 C 
ATOM     27  C   UNL     1       1.431 -12.693   1.012  0.00  0.00    -0.079 C 
ATOM     28  H   UNL     1       1.457 -11.175  -0.377  0.00  0.00    -0.082 HD
ENDBRANCH  22  23
ENDBRANCH  19  22
ENDBRANCH  18  19
ENDBRANCH  13  18
TORSDOF 5
