REMARK  Name = ZINC20058008
REMARK  5 active torsions:
REMARK  status: ('A' for Active; 'I' for Inactive)
REMARK    1  A    between atoms: C_6  and  N_7
REMARK    2  A    between atoms: N_14  and  C_22
REMARK    3  A    between atoms: C_15  and  S_17
REMARK    4  A    between atoms: S_17  and  C_18
REMARK    5  A    between atoms: C_18  and  C_19
REMARK                            x       y       z     vdW  Elec       q    Type
REMARK                         _______ _______ _______ _____ _____    ______ ____
ROOT
ATOM      1  N   UNL     1      -1.419  -0.421  -0.327  0.00  0.00    -0.343 N 
ATOM      2  C   UNL     1      -1.484  -1.531  -1.022  0.00  0.00    +0.111 C 
ATOM      3  C   UNL     1      -0.617  -1.933  -2.181  0.00  0.00    +0.097 C 
ATOM      4  C   UNL     1       0.870  -1.966  -1.800  0.00  0.00    +0.034 C 
ATOM      5  C   UNL     1       1.607  -1.813  -3.150  0.00  0.00    +0.003 C 
ATOM      6  C   UNL     1       0.615  -1.149  -4.122  0.00  0.00    +0.003 C 
ATOM      7  C   UNL     1      -0.693  -0.919  -3.332  0.00  0.00    +0.034 C 
ATOM      8  N   UNL     1      -1.112  -3.249  -2.576  0.00  0.00    -0.268 N 
ATOM      9  C   UNL     1      -2.143  -3.522  -1.712  0.00  0.00    +0.141 C 
ATOM     10  N   UNL     1      -2.336  -2.553  -0.845  0.00  0.00    -0.326 N 
ATOM     11  H   UNL     1      -3.019  -2.573  -0.156  0.00  0.00    +0.169 HD
ATOM     12  H   UNL     1      -1.325  -0.457   0.638  0.00  0.00    +0.167 HD
ENDROOT
BRANCH   1  18
ATOM     13  C   UNL     1      -2.599   1.613  -0.791  0.00  0.00    +0.027 A 
ATOM     14  C   UNL     1      -2.657   2.832  -1.435  0.00  0.00    +0.022 A 
ATOM     15  C   UNL     1      -1.615   3.238  -2.250  0.00  0.00    +0.041 A 
ATOM     16  C   UNL     1      -0.507   2.426  -2.425  0.00  0.00    +0.022 A 
ATOM     17  C   UNL     1      -0.436   1.205  -1.787  0.00  0.00    +0.027 A 
ATOM     18  C   UNL     1      -1.484   0.789  -0.963  0.00  0.00    +0.041 A 
ATOM     19 CL   UNL     1      -1.697   4.773  -3.057  0.00  0.00    -0.084 Cl
ENDBRANCH   1  18
BRANCH   8  20
ATOM     20  C   UNL     1      -0.636  -4.058  -3.613  0.00  0.00    +0.037 A 
ATOM     21  C   UNL     1       0.390  -4.963  -3.375  0.00  0.00    +0.024 A 
ATOM     22  C   UNL     1       0.857  -5.761  -4.401  0.00  0.00    +0.017 A 
ATOM     23  C   UNL     1       0.303  -5.660  -5.665  0.00  0.00    +0.018 A 
ATOM     24  C   UNL     1      -0.719  -4.759  -5.905  0.00  0.00    +0.017 A 
ATOM     25  C   UNL     1      -1.194  -3.962  -4.882  0.00  0.00    +0.024 A 
ATOM     26 BR   UNL     1       0.946  -6.754  -7.067  0.00  0.00    -0.050 Br
ENDBRANCH   8  20
BRANCH   9  27
ATOM     27  S   UNL     1      -3.095  -5.004  -1.758  0.00  0.00    -0.080 S 
BRANCH  27  28
ATOM     28  C   UNL     1      -4.286  -4.801  -0.405  0.00  0.00    +0.202 C 
BRANCH  28  29
ATOM     29  C   UNL     1      -5.175  -6.016  -0.332  0.00  0.00    +0.366 C 
ATOM     30  O   UNL     1      -5.019  -6.934  -1.119  0.00  0.00    -0.245 OA
ATOM     31  O   UNL     1      -6.050  -6.082   0.515  0.00  0.00    -0.245 OA
ENDBRANCH  28  29
ENDBRANCH  27  28
ENDBRANCH   9  27
TORSDOF 5
