REMARK  Name = ZINC38644089
REMARK  6 active torsions:
REMARK  status: ('A' for Active; 'I' for Inactive)
REMARK    1  A    between atoms: C_1  and  C_2
REMARK    2  A    between atoms: C_9  and  C_13
REMARK    3  A    between atoms: N_15  and  C_16
REMARK    4  A    between atoms: C_17  and  C_27
REMARK    5  A    between atoms: C_22  and  C_26
REMARK    6  A    between atoms: N_29  and  C_30
REMARK                            x       y       z     vdW  Elec       q    Type
REMARK                         _______ _______ _______ _____ _____    ______ ____
ROOT
ATOM      1  C   UNL     1       0.882   2.281   5.738  0.00  0.00    +0.085 A 
ATOM      2  C   UNL     1       0.887   3.665   5.834  0.00  0.00    +0.069 A 
ATOM      3  C   UNL     1       1.225   4.240   7.124  0.00  0.00    -0.023 A 
ATOM      4  C   UNL     1       1.497   3.327   8.082  0.00  0.00    -0.004 A 
ATOM      5  S   UNL     1       1.298   1.762   7.280  0.00  0.00    -0.077 S 
ATOM      6  C   UNL     1       1.874   3.601   9.505  0.00  0.00    +0.046 C 
ATOM      7  C   UNL     1       1.541   5.067   9.818  0.00  0.00    -0.009 C 
ATOM      8  C   UNL     1       2.092   5.951   8.695  0.00  0.00    +0.008 C 
ATOM      9  C   UNL     1       1.282   5.732   7.415  0.00  0.00    +0.037 C 
ATOM     10  C   UNL     1       2.182   5.466  11.148  0.00  0.00    +0.008 C 
ENDROOT
BRANCH   1  13
ATOM     11  C   UNL     1       0.633   0.161   4.717  0.00  0.00    +0.284 C 
ATOM     12  O   UNL     1       0.919  -0.370   5.771  0.00  0.00    -0.266 OA
ATOM     13  N   UNL     1       0.595   1.506   4.628  0.00  0.00    -0.273 N 
ATOM     14  H   UNL     1       0.366   1.930   3.786  0.00  0.00    +0.156 HD
BRANCH  11  23
ATOM     15  C   UNL     1      -0.018   1.503   0.010  0.00  0.00    +0.047 C 
ATOM     16  C   UNL     1       0.002  -0.004   0.002  0.00  0.00    -0.007 A 
ATOM     17  C   UNL     1       0.006  -0.687  -1.195  0.00  0.00    +0.007 A 
ATOM     18  C   UNL     1       0.024  -2.074  -1.222  0.00  0.00    +0.001 A 
ATOM     19  C   UNL     1       0.043  -2.791  -0.045  0.00  0.00    +0.015 A 
ATOM     20  C   UNL     1       0.043  -2.112   1.171  0.00  0.00    +0.064 A 
ATOM     21  C   UNL     1       0.023  -0.706   1.203  0.00  0.00    +0.142 A 
ATOM     22  O   UNL     1       0.012  -0.053   2.380  0.00  0.00    -0.450 OA
ATOM     23  C   UNL     1       0.325  -0.668   3.529  0.00  0.00    +0.194 A 
ATOM     24  C   UNL     1       0.372  -2.018   3.650  0.00  0.00    +0.103 A 
ATOM     25  C   UNL     1       0.070  -2.834   2.459  0.00  0.00    +0.193 A 
ATOM     26  O   UNL     1      -0.130  -4.034   2.530  0.00  0.00    -0.287 OA
ENDBRANCH  11  23
ENDBRANCH   1  13
BRANCH   2  27
ATOM     27  C   UNL     1       0.564   4.511   4.681  0.00  0.00    +0.247 C 
ATOM     28  O   UNL     1      -0.588   4.847   4.477  0.00  0.00    -0.270 OA
ATOM     29  N   UNL     1       1.542   4.917   3.848  0.00  0.00    -0.307 N 
ATOM     30  H   UNL     1       2.460   4.649   4.011  0.00  0.00    +0.149 HD
BRANCH  29  31
ATOM     31  C   UNL     1       1.219   5.763   2.696  0.00  0.00    +0.096 C 
ATOM     32  C   UNL     1       0.816   4.882   1.502  0.00  0.00    +0.046 C 
ATOM     33  C   UNL     1       0.785   5.730   0.207  0.00  0.00    +0.168 C 
ATOM     34  S   UNL     1       2.021   7.046   0.558  0.00  0.00    -0.029 S 
ATOM     35  O   UNL     1       1.365   8.306   0.567  0.00  0.00    -0.174 OA
ATOM     36  O   UNL     1       3.152   6.854  -0.281  0.00  0.00    -0.174 OA
ATOM     37  C   UNL     1       2.470   6.591   2.286  0.00  0.00    +0.188 C 
ENDBRANCH  29  31
ENDBRANCH   2  27
TORSDOF 4
