REMARK  Name = ZINC10370866
REMARK  9 active torsions:
REMARK  status: ('A' for Active; 'I' for Inactive)
REMARK    1  A    between atoms: C_1  and  C_2
REMARK    2  A    between atoms: C_2  and  O_3
REMARK    3  A    between atoms: O_3  and  C_4
REMARK    4  A    between atoms: C_4  and  C_6
REMARK    5  A    between atoms: C_6  and  N_7
REMARK    6  A    between atoms: C_14  and  C_16
REMARK    7  A    between atoms: N_19  and  C_24
REMARK    8  A    between atoms: N_22  and  C_23
REMARK    9  A    between atoms: C_24  and  C_25
REMARK                            x       y       z     vdW  Elec       q    Type
REMARK                         _______ _______ _______ _____ _____    ______ ____
ROOT
ATOM      1  N   UNL     1      -1.130   4.718   0.028  0.00  0.00    -0.182 N 
ATOM      2  C   UNL     1      -0.493   3.492   0.024  0.00  0.00    +0.221 A 
ATOM      3  N   UNL     1      -1.000   2.287   0.019  0.00  0.00    -0.195 NA
ATOM      4  C   UNL     1      -0.017   1.381   0.010  0.00  0.00    +0.170 A 
ATOM      5  C   UNL     1       1.195   2.070   0.002  0.00  0.00    +0.153 A 
ATOM      6  N   UNL     1       0.873   3.410   0.013  0.00  0.00    -0.299 N 
ATOM      7  C   UNL     1       1.743   4.585   0.017  0.00  0.00    +0.177 C 
ATOM      8  C   UNL     1       0.926   5.818  -0.258  0.00  0.00    +0.054 C 
ATOM      9  N   UNL     1      -0.343   5.849  -0.243  0.00  0.00    -0.184 NA
ATOM     10  C   UNL     1       1.661   7.096  -0.572  0.00  0.00    +0.064 C 
ATOM     11  C   UNL     1       2.396   1.337  -0.014  0.00  0.00    +0.283 A 
ATOM     12  O   UNL     1       3.469   1.915  -0.022  0.00  0.00    -0.265 OA
ATOM     13  N   UNL     1       2.350  -0.011  -0.020  0.00  0.00    -0.255 N 
ATOM     14  C   UNL     1       1.175  -0.664  -0.012  0.00  0.00    +0.334 A 
ATOM     15  O   UNL     1       1.172  -1.880  -0.018  0.00  0.00    -0.246 OA
ATOM     16  N   UNL     1       0.002  -0.004   0.002  0.00  0.00    -0.279 N 
ATOM     17  C   UNL     1      -1.258  -0.752   0.010  0.00  0.00    +0.155 C 
ENDROOT
BRANCH   1  18
ATOM     18  C   UNL     1      -2.564   4.833   0.304  0.00  0.00    +0.255 C 
BRANCH  18  19
ATOM     19  C   UNL     1      -2.778   5.012   1.785  0.00  0.00    +0.327 C 
ATOM     20  O   UNL     1      -1.830   5.041   2.533  0.00  0.00    -0.249 OA
BRANCH  19  21
ATOM     21  O   UNL     1      -4.022   5.140   2.272  0.00  0.00    -0.464 OA
BRANCH  21  23
ATOM     22  C   UNL     1      -5.633   5.437   4.074  0.00  0.00    +0.048 C 
ATOM     23  C   UNL     1      -4.153   5.309   3.709  0.00  0.00    +0.229 C 
ENDBRANCH  21  23
ENDBRANCH  19  21
ENDBRANCH  18  19
ENDBRANCH   1  18
BRANCH  13  24
ATOM     24  C   UNL     1       3.600  -0.775  -0.035  0.00  0.00    +0.168 C 
BRANCH  24  25
ATOM     25  C   UNL     1       4.015  -1.030  -1.461  0.00  0.00    +0.009 A 
ATOM     26  C   UNL     1       3.586  -2.172  -2.113  0.00  0.00    +0.047 A 
ATOM     27  C   UNL     1       3.963  -2.403  -3.424  0.00  0.00    +0.020 A 
ATOM     28  C   UNL     1       4.777  -1.499  -4.079  0.00  0.00    +0.003 A 
ATOM     29  C   UNL     1       5.212  -0.360  -3.426  0.00  0.00    +0.020 A 
ATOM     30  C   UNL     1       4.831  -0.126  -2.117  0.00  0.00    +0.047 A 
ATOM     31 CL   UNL     1       5.376   1.304  -1.297  0.00  0.00    -0.083 Cl
ATOM     32 CL   UNL     1       2.568  -3.312  -1.289  0.00  0.00    -0.083 Cl
ENDBRANCH  24  25
ENDBRANCH  13  24
TORSDOF 6
