REMARK  Name = ZINC12629546
REMARK  11 active torsions:
REMARK  status: ('A' for Active; 'I' for Inactive)
REMARK    1  A    between atoms: C_1  and  C_2
REMARK    2  A    between atoms: C_6  and  N_9
REMARK    3  A    between atoms: C_7  and  C_8
REMARK    4  A    between atoms: N_9  and  C_10
REMARK    5  A    between atoms: N_9  and  S_29
REMARK    6  A    between atoms: C_10  and  C_11
REMARK    7  A    between atoms: N_13  and  C_14
REMARK    8  A    between atoms: C_19  and  C_20
REMARK    9  A    between atoms: N_22  and  C_23
REMARK   10  A    between atoms: C_23  and  C_24
REMARK   11  A    between atoms: S_29  and  C_32
REMARK                            x       y       z     vdW  Elec       q    Type
REMARK                         _______ _______ _______ _____ _____    ______ ____
ROOT
ATOM      1  C   UNL     1       2.643  -1.992  -3.095  0.00  0.00    +0.236 C 
ATOM      2  O   UNL     1       2.143  -0.888  -3.033  0.00  0.00    -0.274 OA
ATOM      3  N   UNL     1       2.047  -2.962  -3.816  0.00  0.00    -0.283 N 
ATOM      4  H   UNL     1       2.478  -3.824  -3.920  0.00  0.00    +0.155 HD
ENDROOT
BRANCH   3   5
ATOM      5  C   UNL     1       0.810  -2.726  -4.413  0.00  0.00    +0.046 A 
ATOM      6  C   UNL     1       0.508  -1.469  -4.919  0.00  0.00    +0.024 A 
ATOM      7  C   UNL     1      -0.715  -1.239  -5.515  0.00  0.00    +0.002 A 
ATOM      8  C   UNL     1      -1.655  -2.254  -5.603  0.00  0.00    +0.001 A 
ATOM      9  C   UNL     1      -1.375  -3.506  -5.100  0.00  0.00    +0.015 A 
ATOM     10  C   UNL     1      -0.138  -3.756  -4.500  0.00  0.00    +0.058 A 
BRANCH  10  11
ATOM     11  C   UNL     1       0.168  -5.094  -3.960  0.00  0.00    +0.246 C 
ATOM     12  O   UNL     1       1.203  -5.281  -3.350  0.00  0.00    -0.270 OA
ATOM     13  N   UNL     1      -0.700  -6.109  -4.142  0.00  0.00    -0.304 N 
ATOM     14  H   UNL     1      -1.526  -5.959  -4.628  0.00  0.00    +0.149 HD
BRANCH  13  15
ATOM     15  C   UNL     1      -0.396  -7.438  -3.605  0.00  0.00    +0.179 C 
BRANCH  15  16
ATOM     16  C   UNL     1      -1.519  -8.384  -3.943  0.00  0.00    +0.122 A 
ATOM     17  C   UNL     1      -1.603  -9.141  -5.053  0.00  0.00    +0.046 A 
ATOM     18  C   UNL     1      -2.811  -9.871  -4.960  0.00  0.00    +0.041 A 
ATOM     19  C   UNL     1      -3.392  -9.517  -3.800  0.00  0.00    +0.195 A 
ATOM     20  O   UNL     1      -2.602  -8.621  -3.185  0.00  0.00    -0.466 OA
ENDBRANCH  15  16
ENDBRANCH  13  15
ENDBRANCH  10  11
ENDBRANCH   3   5
BRANCH   1  21
ATOM     21  C   UNL     1       3.931  -2.278  -2.368  0.00  0.00    +0.227 C 
BRANCH  21  22
ATOM     22  N   UNL     1       4.373  -1.071  -1.664  0.00  0.00    -0.194 N 
BRANCH  22  28
ATOM     23  C   UNL     1       8.755   0.813  -2.846  0.00  0.00    +0.044 C 
ATOM     24  C   UNL     1       7.251   0.832  -2.928  0.00  0.00    -0.046 A 
ATOM     25  C   UNL     1       6.612   1.809  -3.671  0.00  0.00    +0.004 A 
ATOM     26  C   UNL     1       5.232   1.830  -3.749  0.00  0.00    +0.002 A 
ATOM     27  C   UNL     1       4.486   0.876  -3.085  0.00  0.00    +0.025 A 
ATOM     28  C   UNL     1       5.124  -0.105  -2.337  0.00  0.00    +0.055 A 
ATOM     29  C   UNL     1       6.511  -0.121  -2.257  0.00  0.00    -0.025 A 
ATOM     30  C   UNL     1       7.207  -1.180  -1.442  0.00  0.00    +0.046 C 
ENDBRANCH  22  28
BRANCH  22  31
ATOM     31  S   UNL     1       3.981  -0.852  -0.070  0.00  0.00    +0.075 S 
ATOM     32  O   UNL     1       4.952   0.034   0.469  0.00  0.00    -0.150 OA
ATOM     33  O   UNL     1       3.746  -2.145   0.472  0.00  0.00    -0.150 OA
BRANCH  31  34
ATOM     34  C   UNL     1       2.440   0.001  -0.024  0.00  0.00    +0.109 A 
ATOM     35  C   UNL     1       1.256  -0.711  -0.005  0.00  0.00    +0.029 A 
ATOM     36  C   UNL     1       0.047  -0.042   0.031  0.00  0.00    +0.002 A 
ATOM     37  C   UNL     1       0.023   1.340   0.048  0.00  0.00    +0.000 A 
ATOM     38  C   UNL     1       1.207   2.053   0.029  0.00  0.00    +0.002 A 
ATOM     39  C   UNL     1       2.416   1.383  -0.007  0.00  0.00    +0.029 A 
ENDBRANCH  31  34
ENDBRANCH  22  31
ENDBRANCH  21  22
ENDBRANCH   1  21
TORSDOF 9
