REMARK  Name = ZINC02916797
REMARK  6 active torsions:
REMARK  status: ('A' for Active; 'I' for Inactive)
REMARK    1  A    between atoms: C_1  and  O_2
REMARK    2  A    between atoms: O_2  and  C_3
REMARK    3  A    between atoms: C_7  and  C_9
REMARK    4  A    between atoms: C_20  and  C_22
REMARK    5  A    between atoms: C_25  and  O_29
REMARK    6  A    between atoms: O_29  and  C_30
REMARK                            x       y       z     vdW  Elec       q    Type
REMARK                         _______ _______ _______ _____ _____    ______ ____
ROOT
ATOM      1  C   UNL     1       1.325  -4.106  -2.289  0.00  0.00    +0.159 C 
ATOM      2  C   UNL     1       0.187  -4.572  -3.169  0.00  0.00    +0.027 C 
ATOM      3  C   UNL     1       0.490  -5.292  -4.269  0.00  0.00    +0.083 C 
ATOM      4  C   UNL     1      -0.637  -5.735  -5.129  0.00  0.00    +0.042 A 
ATOM      5  C   UNL     1      -0.472  -6.729  -6.084  0.00  0.00    +0.013 A 
ATOM      6  C   UNL     1      -1.548  -7.112  -6.861  0.00  0.00    +0.001 A 
ATOM      7  C   UNL     1      -2.782  -6.510  -6.689  0.00  0.00    +0.004 A 
ATOM      8  C   UNL     1      -2.954  -5.518  -5.741  0.00  0.00    +0.046 A 
ATOM      9  C   UNL     1      -1.884  -5.123  -4.956  0.00  0.00    +0.131 A 
ATOM     10  O   UNL     1      -2.022  -4.148  -4.022  0.00  0.00    -0.479 OA
ATOM     11  C   UNL     1      -1.240  -4.256  -2.832  0.00  0.00    +0.234 C 
ATOM     12  N   UNL     1       1.772  -5.602  -4.583  0.00  0.00    -0.213 NA
ATOM     13  C   UNL     1       2.816  -5.239  -3.875  0.00  0.00    +0.237 C 
ATOM     14  N   UNL     1       2.672  -4.492  -2.727  0.00  0.00    -0.208 N 
ATOM     15  N   UNL     1       3.959  -4.276  -2.229  0.00  0.00    -0.251 N 
ATOM     16  C   UNL     1       4.814  -4.896  -3.089  0.00  0.00    +0.203 C 
ATOM     17  N   UNL     1       4.139  -5.456  -4.042  0.00  0.00    -0.205 NA
ATOM     18  H   UNL     1       4.197  -3.782  -1.429  0.00  0.00    +0.171 HD
ENDROOT
BRANCH  11  19
ATOM     19  C   UNL     1      -1.802  -5.353  -1.964  0.00  0.00    -0.002 A 
ATOM     20  C   UNL     1      -2.228  -6.537  -2.538  0.00  0.00    +0.011 A 
ATOM     21  C   UNL     1      -2.744  -7.544  -1.746  0.00  0.00    +0.047 A 
ATOM     22  C   UNL     1      -2.834  -7.367  -0.372  0.00  0.00    +0.134 A 
ATOM     23  C   UNL     1      -2.405  -6.179   0.202  0.00  0.00    +0.060 A 
ATOM     24  C   UNL     1      -1.885  -5.176  -0.596  0.00  0.00    +0.026 A 
ATOM     25 BR   UNL     1      -2.526  -5.933   2.073  0.00  0.00    -0.047 Br
BRANCH  22  26
ATOM     26  O   UNL     1      -3.341  -8.357   0.409  0.00  0.00    -0.494 OA
ATOM     27  C   UNL     1      -3.763  -9.552  -0.250  0.00  0.00    +0.277 C 
ENDBRANCH  22  26
ENDBRANCH  11  19
BRANCH   1  32
ATOM     28  C   UNL     1       0.606  -0.607  -1.056  0.00  0.00    +0.120 A 
ATOM     29  C   UNL     1       1.173   0.161  -2.063  0.00  0.00    +0.045 A 
ATOM     30  C   UNL     1       1.786  -0.455  -3.136  0.00  0.00    +0.004 A 
ATOM     31  C   UNL     1       1.836  -1.835  -3.208  0.00  0.00    +0.006 A 
ATOM     32  C   UNL     1       1.271  -2.602  -2.207  0.00  0.00    -0.018 A 
ATOM     33  C   UNL     1       0.661  -1.991  -1.128  0.00  0.00    +0.051 A 
BRANCH  28  35
ATOM     34  C   UNL     1      -0.017   1.425   0.010  0.00  0.00    +0.277 C 
ATOM     35  O   UNL     1       0.002  -0.004   0.002  0.00  0.00    -0.495 OA
ENDBRANCH  28  35
ENDBRANCH   1  32
TORSDOF 4
