REMARK  Name = ZINC36500506
REMARK  13 active torsions:
REMARK  status: ('A' for Active; 'I' for Inactive)
REMARK    1  A    between atoms: C_1  and  C_2
REMARK    2  A    between atoms: C_2  and  C_3
REMARK    3  A    between atoms: C_2  and  C_4
REMARK    4  A    between atoms: C_2  and  N_5
REMARK    5  A    between atoms: C_6  and  C_8
REMARK    6  A    between atoms: C_8  and  C_10
REMARK    7  A    between atoms: C_8  and  N_20
REMARK    8  A    between atoms: C_13  and  C_16
REMARK    9  A    between atoms: N_20  and  C_21
REMARK   10  A    between atoms: C_21  and  C_22
REMARK   11  A    between atoms: C_27  and  C_29
REMARK   12  A    between atoms: C_30  and  O_36
REMARK   13  A    between atoms: C_34  and  O_35
REMARK                            x       y       z     vdW  Elec       q    Type
REMARK                         _______ _______ _______ _____ _____    ______ ____
ROOT
ATOM      1  C   UNL     1       2.320  -0.586  -2.793  0.00  0.00    +0.193 C 
ENDROOT
BRANCH   1   2
ATOM      2  C   UNL     1       1.745   0.160  -3.969  0.00  0.00    -0.018 A 
ATOM      3  C   UNL     1       2.228   1.413  -4.296  0.00  0.00    +0.006 A 
ATOM      4  C   UNL     1       1.700   2.098  -5.375  0.00  0.00    +0.013 A 
ATOM      5  C   UNL     1       0.690   1.529  -6.127  0.00  0.00    +0.055 A 
ATOM      6  C   UNL     1       0.207   0.275  -5.800  0.00  0.00    +0.013 A 
ATOM      7  C   UNL     1       0.738  -0.411  -4.724  0.00  0.00    +0.006 A 
BRANCH   5   8
ATOM      8  C   UNL     1       0.113   2.276  -7.302  0.00  0.00    +0.417 C 
ATOM      9  F   UNL     1       0.835   1.955  -8.457  0.00  0.00    -0.166 F 
ATOM     10  F   UNL     1      -1.227   1.913  -7.473  0.00  0.00    -0.166 F 
ATOM     11  F   UNL     1       0.198   3.652  -7.067  0.00  0.00    -0.166 F 
ENDBRANCH   5   8
ENDBRANCH   1   2
BRANCH   1  13
ATOM     12  N   UNL     1       0.342   0.015  -1.436  0.00  0.00    -0.309 N 
ATOM     13  C   UNL     1       1.683  -0.088  -1.521  0.00  0.00    +0.239 C 
ATOM     14  O   UNL     1       2.376   0.219  -0.575  0.00  0.00    -0.273 OA
ATOM     15  H   UNL     1      -0.213  -0.231  -2.193  0.00  0.00    +0.149 HD
BRANCH  12  17
ATOM     16  C   UNL     1       0.221   1.913   0.102  0.00  0.00    +0.031 C 
ATOM     17  C   UNL     1      -0.279   0.499  -0.200  0.00  0.00    +0.026 C 
ATOM     18  C   UNL     1       0.095  -0.431   0.956  0.00  0.00    +0.031 C 
ATOM     19  C   UNL     1      -1.799   0.520  -0.367  0.00  0.00    +0.031 C 
ENDBRANCH  12  17
ENDBRANCH   1  13
BRANCH   1  20
ATOM     20  N   UNL     1       3.767  -0.362  -2.733  0.00  0.00    -0.274 N 
ATOM     21  C   UNL     1       4.584  -1.008  -3.589  0.00  0.00    +0.255 C 
ATOM     22  O   UNL     1       4.121  -1.776  -4.410  0.00  0.00    -0.270 OA
BRANCH  21  23
ATOM     23  C   UNL     1       6.038  -0.783  -3.529  0.00  0.00    +0.119 A 
ATOM     24  C   UNL     1       6.845  -1.591  -2.714  0.00  0.00    +0.133 A 
ATOM     25  C   UNL     1       8.212  -1.371  -2.665  0.00  0.00    +0.046 A 
ATOM     26  C   UNL     1       8.781  -0.361  -3.417  0.00  0.00    +0.007 A 
ATOM     27  C   UNL     1       7.996   0.442  -4.223  0.00  0.00    +0.046 A 
ATOM     28  C   UNL     1       6.628   0.236  -4.291  0.00  0.00    +0.133 A 
BRANCH  28  29
ATOM     29  O   UNL     1       5.860   1.020  -5.088  0.00  0.00    -0.506 OA
ATOM     30  H   UNL     1       5.522   1.814  -4.651  0.00  0.00    +0.292 HD
ENDBRANCH  28  29
BRANCH  24  31
ATOM     31  O   UNL     1       6.288  -2.583  -1.975  0.00  0.00    -0.506 OA
ATOM     32  H   UNL     1       6.240  -3.434  -2.432  0.00  0.00    +0.292 HD
ENDBRANCH  24  31
ENDBRANCH  21  23
BRANCH  20  33
ATOM     33  C   UNL     1       4.325   0.562  -1.744  0.00  0.00    +0.183 C 
BRANCH  33  34
ATOM     34  C   UNL     1       4.818  -0.216  -0.551  0.00  0.00    +0.122 A 
ATOM     35  C   UNL     1       6.093  -0.578  -0.319  0.00  0.00    +0.046 A 
ATOM     36  C   UNL     1       6.101  -1.286   0.904  0.00  0.00    +0.041 A 
ATOM     37  C   UNL     1       4.832  -1.315   1.347  0.00  0.00    +0.195 A 
ATOM     38  O   UNL     1       4.059  -0.660   0.465  0.00  0.00    -0.466 OA
ENDBRANCH  33  34
ENDBRANCH  20  33
ENDBRANCH   1  20
TORSDOF 10
