REMARK  Name = ZINC13065290
REMARK  14 active torsions:
REMARK  status: ('A' for Active; 'I' for Inactive)
REMARK    1  A    between atoms: C_1  and  C_2
REMARK    2  A    between atoms: C_2  and  C_3
REMARK    3  A    between atoms: C_3  and  C_5
REMARK    4  A    between atoms: C_3  and  N_69
REMARK    5  A    between atoms: N_9  and  C_10
REMARK    6  A    between atoms: C_10  and  C_11
REMARK    7  A    between atoms: C_11  and  O_12
REMARK    8  A    between atoms: O_12  and  C_13
REMARK    9  A    between atoms: C_14  and  C_15
REMARK   10  A    between atoms: C_14  and  N_69
REMARK   11  A    between atoms: C_24  and  C_25
REMARK   12  A    between atoms: C_24  and  N_69
REMARK   13  A    between atoms: C_28  and  C_38
REMARK   14  A    between atoms: C_31  and  C_37
REMARK                            x       y       z     vdW  Elec       q    Type
REMARK                         _______ _______ _______ _____ _____    ______ ____
ROOT
ATOM      1  N   UNL     1       0.287   1.370   1.202  0.00  0.00    +0.392 N 
ATOM      2  H   UNL     1       0.925   0.636   1.530  0.00  0.00    -0.080 HD
ENDROOT
BRANCH   1   3
ATOM      3  C   UNL     1      -1.018   1.210   1.878  0.00  0.00    +0.003 C 
BRANCH   3   4
ATOM      4  C   UNL     1      -0.774   0.752   3.293  0.00  0.00    +0.138 A 
ATOM      5  N   UNL     1       0.144   1.202   4.114  0.00  0.00    -0.115 NA
ATOM      6  N   UNL     1       0.031   0.562   5.226  0.00  0.00    -0.023 NA
ATOM      7  N   UNL     1      -0.935  -0.285   5.136  0.00  0.00    -0.044 NA
ATOM      8  N   UNL     1      -1.459  -0.194   3.961  0.00  0.00    -0.229 N 
BRANCH   8   9
ATOM      9  C   UNL     1      -2.587  -0.976   3.449  0.00  0.00    +0.175 C 
BRANCH   9  10
ATOM     10  C   UNL     1      -2.063  -2.248   2.778  0.00  0.00    +0.183 C 
BRANCH  10  11
ATOM     11  O   UNL     1      -3.164  -3.022   2.300  0.00  0.00    -0.381 OA
ATOM     12  C   UNL     1      -2.782  -4.238   1.652  0.00  0.00    +0.194 C 
ENDBRANCH  10  11
ENDBRANCH   9  10
ENDBRANCH   8   9
ENDBRANCH   3   4
BRANCH   3  14
ATOM     13  C   UNL     1      -2.140   2.938   0.464  0.00  0.00    +0.002 C 
ATOM     14  C   UNL     1      -1.778   2.538   1.896  0.00  0.00    -0.011 C 
ENDBRANCH   3  14
ENDBRANCH   1   3
BRANCH   1  15
ATOM     15  C   UNL     1       0.117   1.241  -0.261  0.00  0.00    -0.041 C 
BRANCH  15  16
ATOM     16  C   UNL     1      -0.095  -0.212  -0.596  0.00  0.00    -0.060 A 
ATOM     17  C   UNL     1       0.992  -1.055  -0.730  0.00  0.00    +0.005 A 
ATOM     18  C   UNL     1       0.803  -2.391  -1.032  0.00  0.00    +0.050 A 
ATOM     19  C   UNL     1      -0.479  -2.885  -1.214  0.00  0.00    +0.166 A 
ATOM     20  C   UNL     1      -1.574  -2.035  -1.085  0.00  0.00    +0.166 A 
ATOM     21  C   UNL     1      -1.377  -0.699  -0.776  0.00  0.00    +0.051 A 
ATOM     22  O   UNL     1      -2.713  -2.753  -1.310  0.00  0.00    -0.453 OA
ATOM     23  C   UNL     1      -2.284  -3.955  -1.977  0.00  0.00    +0.466 C 
ATOM     24  O   UNL     1      -0.931  -4.136  -1.519  0.00  0.00    -0.453 OA
ENDBRANCH  15  16
ENDBRANCH   1  15
BRANCH   1  25
ATOM     25  C   UNL     1       0.866   2.690   1.529  0.00  0.00    -0.036 C 
BRANCH  25  26
ATOM     26  C   UNL     1       2.346   2.651   1.247  0.00  0.00    +0.001 A 
ATOM     27  C   UNL     1       2.819   3.099   0.058  0.00  0.00    +0.017 A 
ATOM     28  C   UNL     1       4.262   3.051  -0.183  0.00  0.00    +0.002 A 
ATOM     29  C   UNL     1       4.810   3.505  -1.388  0.00  0.00    -0.041 A 
ATOM     30  C   UNL     1       6.161   3.443  -1.583  0.00  0.00    +0.004 A 
ATOM     31  C   UNL     1       6.995   2.934  -0.597  0.00  0.00    +0.005 A 
ATOM     32  C   UNL     1       6.477   2.482   0.598  0.00  0.00    -0.026 A 
ATOM     33  C   UNL     1       5.105   2.535   0.820  0.00  0.00    +0.052 A 
ATOM     34  N   UNL     1       4.560   2.091   2.005  0.00  0.00    -0.322 N 
ATOM     35  H   UNL     1       5.142   1.736   2.695  0.00  0.00    +0.169 HD
ATOM     36  C   UNL     1       3.234   2.143   2.219  0.00  0.00    +0.251 A 
ATOM     37  O   UNL     1       2.787   1.741   3.280  0.00  0.00    -0.268 OA
ATOM     38  C   UNL     1       7.394   1.933   1.660  0.00  0.00    +0.046 C 
ATOM     39  C   UNL     1       3.914   4.059  -2.466  0.00  0.00    +0.044 C 
ENDBRANCH  25  26
ENDBRANCH   1  25
TORSDOF 10
