REMARK  Name = ZINC65944508
REMARK  2 active torsions:
REMARK  status: ('A' for Active; 'I' for Inactive)
REMARK    1  A    between atoms: N_7  and  C_11
REMARK    2  A    between atoms: C_11  and  N_12
REMARK                            x       y       z     vdW  Elec       q    Type
REMARK                         _______ _______ _______ _____ _____    ______ ____
ROOT
ATOM      1  N   UNL     1       0.303  -3.531  -1.404  0.00  0.00    +0.394 N 
ATOM      2  C   UNL     1      -0.262  -2.384  -2.050  0.00  0.00    -0.072 C 
ATOM      3  C   UNL     1      -1.107  -2.670  -3.253  0.00  0.00    -0.027 C 
ATOM      4  C   UNL     1      -0.550  -3.732  -4.177  0.00  0.00    +0.005 C 
ATOM      5  C   UNL     1      -0.932  -5.149  -3.788  0.00  0.00    -0.012 C 
ATOM      6  C   UNL     1      -2.437  -5.261  -3.536  0.00  0.00    +0.007 C 
ATOM      7  C   UNL     1      -2.806  -4.275  -2.426  0.00  0.00    -0.012 C 
ATOM      8  C   UNL     1      -2.577  -2.854  -2.950  0.00  0.00    +0.005 C 
ATOM      9  C   UNL     1      -1.988  -4.511  -1.174  0.00  0.00    -0.012 C 
ATOM     10  C   UNL     1      -0.515  -4.714  -1.368  0.00  0.00    -0.066 C 
ATOM     11  C   UNL     1      -0.189  -5.628  -2.546  0.00  0.00    -0.012 C 
ATOM     12  H   UNL     1       1.165  -3.761  -1.874  0.00  0.00    -0.079 HD
ENDROOT
BRANCH   1  13
ATOM     13  C   UNL     1       0.628  -3.160  -0.020  0.00  0.00    +0.054 C 
BRANCH  13  20
ATOM     14  C   UNL     1      -0.017   1.377   0.010  0.00  0.00    +0.002 A 
ATOM     15  C   UNL     1       1.170   2.089   0.002  0.00  0.00    +0.004 A 
ATOM     16  C   UNL     1       2.381   1.425  -0.013  0.00  0.00    +0.048 A 
ATOM     17  C   UNL     1       2.410   0.040  -0.021  0.00  0.00    +0.157 A 
ATOM     18  C   UNL     1       1.214  -0.677  -0.013  0.00  0.00    +0.088 A 
ATOM     19  C   UNL     1       0.002  -0.004   0.002  0.00  0.00    +0.029 A 
ATOM     20  N   UNL     1       1.559  -2.028  -0.024  0.00  0.00    -0.291 N 
ATOM     21  C   UNL     1       2.904  -2.103  -0.037  0.00  0.00    +0.420 A 
ATOM     22  O   UNL     1       3.550  -3.133  -0.049  0.00  0.00    -0.223 OA
ATOM     23  O   UNL     1       3.421  -0.864  -0.035  0.00  0.00    -0.407 OA
ENDBRANCH  13  20
ENDBRANCH   1  13
TORSDOF 2
