REMARK  Name = ZINC64580434
REMARK  12 active torsions:
REMARK  status: ('A' for Active; 'I' for Inactive)
REMARK    1  A    between atoms: C_1  and  C_2
REMARK    2  A    between atoms: C_2  and  C_3
REMARK    3  A    between atoms: C_2  and  C_4
REMARK    4  A    between atoms: C_2  and  C_5
REMARK    5  A    between atoms: C_13  and  C_17
REMARK    6  A    between atoms: C_17  and  C_18
REMARK    7  A    between atoms: C_18  and  C_19
REMARK    8  A    between atoms: N_21  and  C_22
REMARK    9  A    between atoms: C_22  and  C_23
REMARK   10  A    between atoms: C_23  and  C_24
REMARK   11  A    between atoms: C_27  and  S_30
REMARK   12  A    between atoms: S_30  and  N_33
REMARK                            x       y       z     vdW  Elec       q    Type
REMARK                         _______ _______ _______ _____ _____    ______ ____
ROOT
ATOM      1  C   UNL     1       5.123   2.748  -7.328  0.00  0.00    +0.083 C 
ENDROOT
BRANCH   1   9
ATOM      2  C   UNL     1       0.718  -0.497  -1.257  0.00  0.00    -0.004 C 
ATOM      3  C   UNL     1      -0.036  -0.003  -2.489  0.00  0.00    +0.008 C 
ATOM      4  C   UNL     1       0.613  -0.550  -3.768  0.00  0.00    +0.033 C 
ATOM      5  C   UNL     1       2.094  -0.184  -3.697  0.00  0.00    -0.042 C 
ATOM      6  C   UNL     1       2.759   0.486  -4.639  0.00  0.00    +0.071 C 
ATOM      7  C   UNL     1       4.146   0.931  -4.339  0.00  0.00    +0.111 C 
ATOM      8  N   UNL     1       4.857   1.634  -5.189  0.00  0.00    -0.227 NA
ATOM      9  C   UNL     1       4.297   1.944  -6.358  0.00  0.00    +0.124 C 
ATOM     10  N   UNL     1       3.089   1.609  -6.732  0.00  0.00    -0.161 NA
ATOM     11  C   UNL     1       2.228   0.897  -5.981  0.00  0.00    +0.271 C 
ATOM     12  O   UNL     1       1.106   0.610  -6.361  0.00  0.00    -0.268 OA
ATOM     13  S   UNL     1       4.481   0.302  -2.725  0.00  0.00    -0.097 S 
ATOM     14  C   UNL     1       2.894  -0.577  -2.454  0.00  0.00    +0.080 C 
ATOM     15  C   UNL     1       2.159   0.021  -1.252  0.00  0.00    +0.023 C 
BRANCH   2  17
ATOM     16  C   UNL     1      -0.019   1.526   0.010  0.00  0.00    +0.011 C 
ATOM     17  C   UNL     1       0.002  -0.004   0.002  0.00  0.00    -0.035 C 
ATOM     18  C   UNL     1       0.742  -0.511   1.242  0.00  0.00    +0.011 C 
ATOM     19  C   UNL     1      -1.433  -0.534   0.013  0.00  0.00    +0.011 C 
ENDBRANCH   2  17
ENDBRANCH   1   9
BRANCH   1  20
ATOM     20  C   UNL     1       4.312   3.001  -8.601  0.00  0.00    +0.103 C 
BRANCH  20  21
ATOM     21  C   UNL     1       5.138   3.804  -9.572  0.00  0.00    +0.213 C 
ATOM     22  O   UNL     1       6.264   4.142  -9.275  0.00  0.00    -0.276 OA
ATOM     23  N   UNL     1       4.625   4.148 -10.770  0.00  0.00    -0.315 N 
ATOM     24  H   UNL     1       3.724   3.878 -11.007  0.00  0.00    +0.149 HD
BRANCH  23  25
ATOM     25  C   UNL     1       5.428   4.930 -11.713  0.00  0.00    +0.109 C 
BRANCH  25  26
ATOM     26  C   UNL     1       4.617   5.183 -12.986  0.00  0.00    +0.054 C 
BRANCH  26  27
ATOM     27  C   UNL     1       5.443   5.987 -13.957  0.00  0.00    -0.046 A 
ATOM     28  C   UNL     1       5.398   7.368 -13.924  0.00  0.00    +0.005 A 
ATOM     29  C   UNL     1       6.156   8.105 -14.815  0.00  0.00    +0.029 A 
ATOM     30  C   UNL     1       6.959   7.462 -15.737  0.00  0.00    +0.105 A 
ATOM     31  C   UNL     1       7.005   6.080 -15.769  0.00  0.00    +0.029 A 
ATOM     32  C   UNL     1       6.250   5.343 -14.876  0.00  0.00    +0.005 A 
BRANCH  30  33
ATOM     33  S   UNL     1       7.924   8.402 -16.873  0.00  0.00    +0.056 S 
ATOM     34  O   UNL     1       8.171   7.559 -17.990  0.00  0.00    -0.153 OA
ATOM     35  O   UNL     1       7.287   9.666 -16.998  0.00  0.00    -0.153 OA
BRANCH  33  36
ATOM     36  N   UNL     1       9.391   8.679 -16.156  0.00  0.00    -0.204 NA
ATOM     37  H   UNL     1       9.569   8.335 -15.267  0.00  0.00    +0.144 HD
ATOM     38  H   UNL     1      10.072   9.186 -16.626  0.00  0.00    +0.144 HD
ENDBRANCH  33  36
ENDBRANCH  30  33
ENDBRANCH  26  27
ENDBRANCH  25  26
ENDBRANCH  23  25
ENDBRANCH  20  21
ENDBRANCH   1  20
TORSDOF 9
