REMARK  Name = ZINC13958169
REMARK  6 active torsions:
REMARK  status: ('A' for Active; 'I' for Inactive)
REMARK    1  A    between atoms: C_1  and  C_2
REMARK    2  A    between atoms: C_4  and  C_31
REMARK    3  A    between atoms: C_14  and  C_17
REMARK    4  A    between atoms: C_22  and  C_23
REMARK    5  A    between atoms: C_26  and  O_29
REMARK    6  A    between atoms: O_29  and  C_30
REMARK                            x       y       z     vdW  Elec       q    Type
REMARK                         _______ _______ _______ _____ _____    ______ ____
ROOT
ATOM      1  C   UNL     1      -0.456  -3.773  -0.979  0.00  0.00    +0.044 C 
ATOM      2  C   UNL     1      -1.701  -2.926  -1.040  0.00  0.00    -0.037 A 
ATOM      3  C   UNL     1      -2.938  -3.461  -1.351  0.00  0.00    +0.036 A 
ATOM      4  C   UNL     1      -4.081  -2.684  -1.407  0.00  0.00    +0.145 A 
ATOM      5  N   UNL     1      -4.062  -1.378  -1.169  0.00  0.00    -0.235 NA
ATOM      6  C   UNL     1      -2.908  -0.824  -0.872  0.00  0.00    +0.112 A 
ATOM      7  C   UNL     1      -1.676  -1.530  -0.784  0.00  0.00    +0.032 A 
ATOM      8  C   UNL     1      -0.513  -0.737  -0.437  0.00  0.00    +0.058 A 
ATOM      9  C   UNL     1      -0.736   0.624  -0.248  0.00  0.00    +0.097 A 
ATOM     10  S   UNL     1      -2.469   0.849  -0.506  0.00  0.00    -0.062 S 
ATOM     11  C   UNL     1       0.275   1.548   0.072  0.00  0.00    +0.254 C 
ATOM     12  O   UNL     1       0.030   2.692   0.413  0.00  0.00    -0.270 OA
ATOM     13  N   UNL     1       1.546   1.072  -0.026  0.00  0.00    -0.289 N 
ATOM     14  C   UNL     1       1.790  -0.229  -0.644  0.00  0.00    +0.193 C 
ATOM     15  N   UNL     1       0.791  -1.233  -0.275  0.00  0.00    -0.321 N 
ATOM     16  H   UNL     1       2.289   1.596   0.314  0.00  0.00    +0.151 HD
ATOM     17  H   UNL     1       0.939  -1.561   0.668  0.00  0.00    +0.148 HD
ENDROOT
BRANCH  14  18
ATOM     18  C   UNL     1       1.781  -0.064  -2.142  0.00  0.00    +0.036 A 
ATOM     19  C   UNL     1       1.089   0.866  -2.836  0.00  0.00    +0.112 A 
ATOM     20  N   UNL     1       1.348   0.685  -4.149  0.00  0.00    -0.284 N 
ATOM     21  H   UNL     1       0.979   1.231  -4.900  0.00  0.00    +0.188 HD
ATOM     22  N   UNL     1       2.224  -0.401  -4.274  0.00  0.00    -0.174 NA
ATOM     23  C   UNL     1       2.488  -0.856  -3.068  0.00  0.00    +0.099 A 
BRANCH  23  24
ATOM     24  C   UNL     1       3.373  -2.001  -2.741  0.00  0.00    +0.003 A 
ATOM     25  C   UNL     1       4.277  -1.905  -1.684  0.00  0.00    +0.013 A 
ATOM     26  C   UNL     1       5.095  -2.973  -1.379  0.00  0.00    +0.046 A 
ATOM     27  C   UNL     1       5.027  -4.138  -2.131  0.00  0.00    +0.120 A 
ATOM     28  C   UNL     1       4.131  -4.234  -3.187  0.00  0.00    +0.046 A 
ATOM     29  C   UNL     1       3.307  -3.172  -3.493  0.00  0.00    +0.013 A 
BRANCH  27  30
ATOM     30  O   UNL     1       5.838  -5.186  -1.832  0.00  0.00    -0.495 OA
ATOM     31  C   UNL     1       6.736  -5.019  -0.733  0.00  0.00    +0.277 C 
ENDBRANCH  27  30
ENDBRANCH  23  24
ENDBRANCH  14  18
BRANCH   4  32
ATOM     32  C   UNL     1      -5.393  -3.342  -1.749  0.00  0.00    +0.434 C 
ATOM     33  F   UNL     1      -6.389  -2.367  -1.862  0.00  0.00    -0.164 F 
ATOM     34  F   UNL     1      -5.269  -4.025  -2.964  0.00  0.00    -0.164 F 
ATOM     35  F   UNL     1      -5.738  -4.247  -0.739  0.00  0.00    -0.164 F 
ENDBRANCH   4  32
TORSDOF 4
