REMARK  Name = ZINC09616886
REMARK  7 active torsions:
REMARK  status: ('A' for Active; 'I' for Inactive)
REMARK    1  A    between atoms: C_1  and  C_2
REMARK    2  A    between atoms: C_3  and  N_14
REMARK    3  A    between atoms: C_15  and  C_17
REMARK    4  A    between atoms: C_17  and  C_18
REMARK    5  A    between atoms: C_18  and  C_19
REMARK    6  A    between atoms: C_18  and  C_20
REMARK    7  A    between atoms: C_18  and  C_21
REMARK                            x       y       z     vdW  Elec       q    Type
REMARK                         _______ _______ _______ _____ _____    ______ ____
ROOT
ATOM      1  C   UNL     1      -2.055   0.351  -1.890  0.00  0.00    +0.068 C 
ATOM      2  C   UNL     1      -2.210   1.461  -0.882  0.00  0.00    +0.067 A 
ATOM      3  C   UNL     1      -1.193   1.725   0.020  0.00  0.00    +0.120 A 
ATOM      4  C   UNL     1      -1.367   2.761   0.953  0.00  0.00    +0.280 A 
ATOM      5  O   UNL     1      -0.493   3.018   1.766  0.00  0.00    -0.265 OA
ATOM      6  N   UNL     1      -2.515   3.472   0.931  0.00  0.00    -0.265 N 
ATOM      7  C   UNL     1      -2.697   4.484   1.826  0.00  0.00    +0.116 A 
ATOM      8  C   UNL     1      -3.840   5.208   1.828  0.00  0.00    +0.058 A 
ATOM      9  C   UNL     1      -4.856   4.922   0.903  0.00  0.00    +0.025 A 
ATOM     10  C   UNL     1      -4.684   3.912   0.005  0.00  0.00    +0.048 A 
ATOM     11  C   UNL     1      -3.487   3.170   0.018  0.00  0.00    +0.141 A 
ATOM     12  N   UNL     1      -3.320   2.184  -0.860  0.00  0.00    -0.232 NA
ATOM     13 CL   UNL     1      -4.050   6.492   2.977  0.00  0.00    -0.082 Cl
ENDROOT
BRANCH   3  14
ATOM     14  N   UNL     1      -0.011   0.966   0.007  0.00  0.00    -0.280 N 
ATOM     15  C   UNL     1       1.178   1.573  -0.175  0.00  0.00    +0.218 C 
ATOM     16  O   UNL     1       1.221   2.762  -0.416  0.00  0.00    -0.275 OA
ATOM     17  H   UNL     1      -0.051   0.004   0.126  0.00  0.00    +0.155 HD
BRANCH  15  18
ATOM     18  C   UNL     1       2.454   0.777  -0.082  0.00  0.00    +0.102 C 
BRANCH  18  19
ATOM     19  C   UNL     1       3.650   1.698  -0.328  0.00  0.00    -0.029 C 
ATOM     20  C   UNL     1       3.663   2.809   0.725  0.00  0.00    +0.011 C 
ATOM     21  C   UNL     1       4.945   0.889  -0.232  0.00  0.00    +0.011 C 
ATOM     22  C   UNL     1       3.538   2.319  -1.722  0.00  0.00    +0.011 C 
ENDBRANCH  18  19
ENDBRANCH  15  18
ENDBRANCH   3  14
TORSDOF 3
