REMARK  Name = ZINC12010376
REMARK  10 active torsions:
REMARK  status: ('A' for Active; 'I' for Inactive)
REMARK    1  A    between atoms: C_1  and  O_2
REMARK    2  A    between atoms: O_2  and  C_3
REMARK    3  A    between atoms: C_5  and  C_13
REMARK    4  A    between atoms: C_7  and  O_11
REMARK    5  A    between atoms: C_8  and  O_9
REMARK    6  A    between atoms: O_9  and  C_10
REMARK    7  A    between atoms: O_11  and  C_12
REMARK    8  A    between atoms: C_14  and  C_15
REMARK    9  A    between atoms: N_17  and  C_18
REMARK   10  A    between atoms: C_20  and  C_35
REMARK                            x       y       z     vdW  Elec       q    Type
REMARK                         _______ _______ _______ _____ _____    ______ ____
ROOT
ATOM      1  C   UNL     1      -1.652  -0.693   2.245  0.00  0.00    +0.133 A 
ATOM      2  C   UNL     1      -1.300  -1.954   2.602  0.00  0.00    +0.077 A 
ATOM      3  C   UNL     1      -0.071  -1.879   3.292  0.00  0.00    +0.130 A 
ATOM      4  N   UNL     1       0.299  -0.616   3.339  0.00  0.00    -0.159 NA
ATOM      5  N   UNL     1      -0.673   0.152   2.686  0.00  0.00    -0.184 N 
ATOM      6  C   UNL     1      -0.650   1.524   2.522  0.00  0.00    +0.234 A 
ATOM      7  N   UNL     1       0.392   2.240   3.023  0.00  0.00    -0.291 N 
ATOM      8  H   UNL     1       1.115   1.790   3.488  0.00  0.00    +0.172 HD
ATOM      9  C   UNL     1       0.414   3.579   2.867  0.00  0.00    +0.256 A 
ATOM     10  O   UNL     1       1.341   4.238   3.307  0.00  0.00    -0.267 OA
ATOM     11  C   UNL     1      -0.653   4.207   2.186  0.00  0.00    +0.038 A 
ATOM     12  C   UNL     1      -1.662   3.441   1.701  0.00  0.00    +0.053 A 
ATOM     13  N   UNL     1      -1.631   2.115   1.881  0.00  0.00    -0.217 NA
ATOM     14  C   UNL     1      -2.829   4.019   0.943  0.00  0.00    +0.056 C 
ATOM     15  C   UNL     1      -2.944   5.521   1.199  0.00  0.00    +0.006 C 
ATOM     16  C   UNL     1      -1.575   6.162   0.943  0.00  0.00    +0.005 C 
ATOM     17  C   UNL     1      -0.617   5.704   2.042  0.00  0.00    +0.042 C 
ENDROOT
BRANCH   3  18
ATOM     18  C   UNL     1       0.673  -3.022   3.862  0.00  0.00    +0.155 A 
ATOM     19  C   UNL     1       1.903  -2.966   4.438  0.00  0.00    +0.051 A 
ATOM     20  C   UNL     1       2.224  -4.277   4.841  0.00  0.00    +0.042 A 
ATOM     21  C   UNL     1       1.187  -5.063   4.488  0.00  0.00    +0.196 A 
ATOM     22  O   UNL     1       0.252  -4.301   3.897  0.00  0.00    -0.461 OA
ENDBRANCH   3  18
BRANCH   1  25
ATOM     23  C   UNL     1      -3.748  -1.248   1.282  0.00  0.00    +0.242 C 
ATOM     24  O   UNL     1      -3.642  -2.377   1.723  0.00  0.00    -0.270 OA
ATOM     25  N   UNL     1      -2.802  -0.327   1.551  0.00  0.00    -0.267 N 
ATOM     26  H   UNL     1      -2.922   0.592   1.262  0.00  0.00    +0.157 HD
BRANCH  23  28
ATOM     27  C   UNL     1      -5.782  -1.842   0.079  0.00  0.00    +0.013 C 
ATOM     28  C   UNL     1      -4.902  -0.890   0.459  0.00  0.00    +0.068 C 
BRANCH  27  31
ATOM     29  C   UNL     1      -6.115  -5.475   0.958  0.00  0.00    +0.166 A 
ATOM     30  C   UNL     1      -6.424  -4.141   0.776  0.00  0.00    +0.057 A 
ATOM     31  C   UNL     1      -5.457  -3.262   0.274  0.00  0.00    -0.018 A 
ATOM     32  C   UNL     1      -4.182  -3.741  -0.047  0.00  0.00    +0.057 A 
ATOM     33  C   UNL     1      -3.879  -5.076   0.141  0.00  0.00    +0.166 A 
ATOM     34  C   UNL     1      -4.843  -5.947   0.641  0.00  0.00    +0.204 A 
BRANCH  29  36
ATOM     35  C   UNL     1      -8.338  -5.778   1.748  0.00  0.00    +0.277 C 
ATOM     36  O   UNL     1      -7.054  -6.329   1.445  0.00  0.00    -0.491 OA
ENDBRANCH  29  36
BRANCH  34  37
ATOM     37  O   UNL     1      -4.543  -7.260   0.821  0.00  0.00    -0.488 OA
ATOM     38  C   UNL     1      -4.788  -8.138  -0.280  0.00  0.00    +0.277 C 
ENDBRANCH  34  37
BRANCH  33  39
ATOM     39  O   UNL     1      -2.638  -5.540  -0.167  0.00  0.00    -0.491 OA
ATOM     40  C   UNL     1      -1.672  -4.578  -0.594  0.00  0.00    +0.277 C 
ENDBRANCH  33  39
ENDBRANCH  27  31
ENDBRANCH  23  28
ENDBRANCH   1  25
TORSDOF 7
