REMARK  Name = ZINC35207386
REMARK  8 active torsions:
REMARK  status: ('A' for Active; 'I' for Inactive)
REMARK    1  A    between atoms: C_1  and  C_2
REMARK    2  A    between atoms: C_2  and  C_4
REMARK    3  A    between atoms: C_2  and  N_7
REMARK    4  A    between atoms: N_7  and  C_8
REMARK    5  A    between atoms: N_7  and  C_9
REMARK    6  A    between atoms: C_12  and  C_18
REMARK    7  A    between atoms: C_14  and  N_15
REMARK    8  A    between atoms: C_18  and  C_20
REMARK                            x       y       z     vdW  Elec       q    Type
REMARK                         _______ _______ _______ _____ _____    ______ ____
ROOT
ATOM      1  C   UNL     1       0.179  -1.406   1.974  0.00  0.00    +0.060 A 
ATOM      2  C   UNL     1       0.383  -2.777   1.834  0.00  0.00    +0.026 A 
ATOM      3  C   UNL     1      -0.067  -3.638   2.795  0.00  0.00    +0.013 A 
ATOM      4  C   UNL     1      -0.734  -3.139   3.922  0.00  0.00    +0.019 A 
ATOM      5  C   UNL     1      -0.937  -1.760   4.058  0.00  0.00    +0.046 A 
ATOM      6  C   UNL     1      -0.479  -0.906   3.095  0.00  0.00    +0.148 A 
ENDROOT
BRANCH   6   7
ATOM      7  N   UNL     1      -0.687   0.552   3.241  0.00  0.00    +0.058 N 
ATOM      8  O   UNL     1      -1.257   0.987   4.215  0.00  0.00    -0.126 OA
ATOM      9  O   UNL     1      -0.286   1.308   2.388  0.00  0.00    -0.126 OA
ENDBRANCH   6   7
BRANCH   4  10
ATOM     10  C   UNL     1      -1.220  -4.060   4.956  0.00  0.00    +0.160 C 
ATOM     11  O   UNL     1      -1.705  -3.623   5.978  0.00  0.00    -0.292 OA
ATOM     12  C   UNL     1      -1.115  -5.549   4.749  0.00  0.00    +0.091 C 
ENDBRANCH   4  10
BRANCH   1  13
ATOM     13  N   UNL     1       0.638  -0.535   0.995  0.00  0.00    -0.328 N 
ATOM     14  C   UNL     1       1.923   0.147   1.165  0.00  0.00    +0.129 C 
BRANCH  13  16
ATOM     15  C   UNL     1      -0.453   1.199  -0.342  0.00  0.00    +0.028 C 
ATOM     16  C   UNL     1      -0.163  -0.297  -0.209  0.00  0.00    +0.073 C 
BRANCH  16  17
ATOM     17  C   UNL     1       0.609  -0.778  -1.439  0.00  0.00    +0.009 C 
ATOM     18  C   UNL     1       1.111   0.285  -2.418  0.00  0.00    +0.005 C 
ATOM     19  C   UNL     1      -0.064  -0.617  -2.803  0.00  0.00    +0.005 C 
ENDBRANCH  16  17
ENDBRANCH  13  16
ENDBRANCH   1  13
TORSDOF 5
