REMARK  Name = ZINC12874564
REMARK  8 active torsions:
REMARK  status: ('A' for Active; 'I' for Inactive)
REMARK    1  A    between atoms: C_1  and  C_2
REMARK    2  A    between atoms: C_2  and  O_3
REMARK    3  A    between atoms: O_3  and  C_4
REMARK    4  A    between atoms: C_4  and  C_6
REMARK    5  A    between atoms: C_9  and  N_12
REMARK    6  A    between atoms: C_17  and  C_35
REMARK    7  A    between atoms: C_26  and  C_34
REMARK    8  A    between atoms: C_35  and  C_36
REMARK                            x       y       z     vdW  Elec       q    Type
REMARK                         _______ _______ _______ _____ _____    ______ ____
ROOT
ATOM      1  N   UNL     1       1.070   6.588  -1.287  0.00  0.00    -0.210 N 
ATOM      2  C   UNL     1      -0.222   6.382  -1.006  0.00  0.00    +0.228 C 
ATOM      3  O   UNL     1      -1.065   7.248  -0.911  0.00  0.00    -0.275 OA
ATOM      4  C   UNL     1      -0.467   4.901  -0.828  0.00  0.00    +0.074 C 
ATOM      5  C   UNL     1      -0.803   4.614   0.651  0.00  0.00    -0.049 C 
ATOM      6  C   UNL     1       1.313   3.682   0.317  0.00  0.00    +0.050 C 
ATOM      7  C   UNL     1       0.938   4.275  -1.047  0.00  0.00    +0.088 C 
ATOM      8  C   UNL     1       1.812   5.476  -1.336  0.00  0.00    +0.229 C 
ATOM      9  O   UNL     1       3.000   5.436  -1.574  0.00  0.00    -0.275 OA
ATOM     10  C   UNL     1       1.029   2.207   0.373  0.00  0.00    -0.026 A 
ATOM     11  C   UNL     1      -0.113   1.455   0.211  0.00  0.00    +0.008 A 
ATOM     12  C   UNL     1      -0.057   0.077   0.324  0.00  0.00    -0.049 A 
ATOM     13  C   UNL     1       1.149  -0.542   0.600  0.00  0.00    +0.025 A 
ATOM     14  C   UNL     1       2.296   0.207   0.762  0.00  0.00    +0.063 A 
ATOM     15  C   UNL     1       2.248   1.596   0.649  0.00  0.00    +0.054 A 
ATOM     16  N   UNL     1       3.255   2.557   0.769  0.00  0.00    -0.285 N 
ATOM     17  C   UNL     1       2.787   3.808   0.587  0.00  0.00    +0.211 C 
ATOM     18  O   UNL     1       3.430   4.835   0.632  0.00  0.00    -0.277 OA
ATOM     19 CL   UNL     1       3.804  -0.581   1.107  0.00  0.00    -0.082 Cl
ATOM     20  C   UNL     1      -1.306  -0.747   0.147  0.00  0.00    +0.044 C 
ATOM     21  H   UNL     1       4.182   2.349   0.961  0.00  0.00    +0.155 HD
ATOM     22  N   UNL     1       0.505   4.411   1.278  0.00  0.00    +0.394 N 
ATOM     23  H   UNL     1       0.404   3.867   2.143  0.00  0.00    -0.083 HD
ATOM     24  H   UNL     1       0.940   5.316   1.493  0.00  0.00    -0.083 HD
ENDROOT
BRANCH   1  28
ATOM     25  C   UNL     1       2.654  10.386  -1.953  0.00  0.00    +0.059 A 
ATOM     26  C   UNL     1       2.188  10.034  -0.684  0.00  0.00    +0.017 A 
ATOM     27  C   UNL     1       1.665   8.779  -0.467  0.00  0.00    +0.025 A 
ATOM     28  C   UNL     1       1.601   7.861  -1.510  0.00  0.00    +0.044 A 
ATOM     29  C   UNL     1       2.070   8.205  -2.774  0.00  0.00    +0.025 A 
ATOM     30  C   UNL     1       2.588   9.461  -2.999  0.00  0.00    +0.017 A 
BRANCH  25  31
ATOM     31  C   UNL     1       3.214  11.730  -2.189  0.00  0.00    +0.339 C 
ATOM     32  O   UNL     1       3.271  12.533  -1.280  0.00  0.00    -0.245 OA
BRANCH  31  33
ATOM     33  O   UNL     1       3.664  12.067  -3.414  0.00  0.00    -0.461 OA
BRANCH  33  35
ATOM     34  C   UNL     1       4.658  13.604  -5.021  0.00  0.00    +0.048 C 
ATOM     35  C   UNL     1       4.202  13.406  -3.574  0.00  0.00    +0.229 C 
ENDBRANCH  33  35
ENDBRANCH  31  33
ENDBRANCH  25  31
ENDBRANCH   1  28
BRANCH   5  36
ATOM     36  C   UNL     1      -1.540   5.803   1.270  0.00  0.00    +0.080 C 
BRANCH  36  37
ATOM     37  C   UNL     1      -1.899   5.484   2.698  0.00  0.00    +0.209 C 
ATOM     38  O   UNL     1      -1.595   4.410   3.175  0.00  0.00    -0.276 OA
ATOM     39  N   UNL     1      -2.558   6.391   3.447  0.00  0.00    -0.329 N 
ATOM     40  H   UNL     1      -2.801   7.249   3.066  0.00  0.00    +0.145 HD
ATOM     41  H   UNL     1      -2.789   6.185   4.366  0.00  0.00    +0.145 HD
ENDBRANCH  36  37
ENDBRANCH   5  36
TORSDOF 6
