REMARK  Name = ZINC33381655
REMARK  7 active torsions:
REMARK  status: ('A' for Active; 'I' for Inactive)
REMARK    1  A    between atoms: C_1  and  C_2
REMARK    2  A    between atoms: C_7  and  N_31
REMARK    3  A    between atoms: C_8  and  C_13
REMARK    4  A    between atoms: N_17  and  C_21
REMARK    5  A    between atoms: C_21  and  C_22
REMARK    6  A    between atoms: N_31  and  C_32
REMARK    7  A    between atoms: C_32  and  C_33
REMARK                            x       y       z     vdW  Elec       q    Type
REMARK                         _______ _______ _______ _____ _____    ______ ____
ROOT
ATOM      1  C   UNL     1      -2.034   2.478   3.538  0.00  0.00    +0.037 C 
ATOM      2  C   UNL     1      -2.082   3.686   4.170  0.00  0.00    +0.077 C 
ATOM      3  C   UNL     1      -1.060   4.376   4.884  0.00  0.00    +0.259 C 
ATOM      4  O   UNL     1       0.054   3.898   5.001  0.00  0.00    -0.269 OA
ATOM      5  N   UNL     1      -1.356   5.549   5.415  0.00  0.00    -0.251 N 
ATOM      6  C   UNL     1      -2.592   6.079   5.285  0.00  0.00    +0.121 C 
ATOM      7  S   UNL     1      -3.191   7.567   5.884  0.00  0.00    -0.027 S 
ATOM      8  S   UNL     1      -3.441   4.837   4.323  0.00  0.00    -0.061 S 
ENDROOT
BRANCH   1  16
ATOM      9  C   UNL     1       2.538  -1.565   7.502  0.00  0.00    +0.045 C 
ATOM     10  C   UNL     1       2.131  -0.967   6.181  0.00  0.00    -0.034 A 
ATOM     11  C   UNL     1       2.904  -1.206   5.036  0.00  0.00    +0.008 A 
ATOM     12  C   UNL     1       2.527  -0.660   3.845  0.00  0.00    +0.047 A 
ATOM     13  C   UNL     1       1.368   0.134   3.780  0.00  0.00    +0.142 A 
ATOM     14  N   UNL     1       1.005   0.658   2.610  0.00  0.00    -0.214 NA
ATOM     15  C   UNL     1      -0.074   1.418   2.493  0.00  0.00    +0.134 A 
ATOM     16  C   UNL     1      -0.873   1.675   3.632  0.00  0.00    +0.081 A 
ATOM     17  C   UNL     1      -0.481   1.109   4.869  0.00  0.00    +0.267 A 
ATOM     18  O   UNL     1      -1.139   1.304   5.876  0.00  0.00    -0.267 OA
ATOM     19  N   UNL     1       0.635   0.349   4.914  0.00  0.00    -0.267 N 
ATOM     20  C   UNL     1       1.020  -0.201   6.101  0.00  0.00    +0.099 A 
BRANCH  15  21
ATOM     21  N   UNL     1      -0.419   1.950   1.269  0.00  0.00    -0.325 N 
ATOM     22  H   UNL     1      -1.318   2.577   1.176  0.00  0.00    +0.148 HD
BRANCH  21  23
ATOM     23  C   UNL     1       0.412   1.681   0.093  0.00  0.00    +0.130 C 
BRANCH  23  24
ATOM     24  C   UNL     1      -0.179   2.372  -1.108  0.00  0.00    -0.016 C 
ATOM     25  C   UNL     1       0.553   3.196  -1.816  0.00  0.00    +0.005 C 
ENDBRANCH  23  24
ENDBRANCH  21  23
ENDBRANCH  15  21
ENDBRANCH   1  16
BRANCH   5  26
ATOM     26  C   UNL     1      -0.329   6.286   6.156  0.00  0.00    +0.150 C 
BRANCH  26  27
ATOM     27  C   UNL     1       0.427   7.183   5.210  0.00  0.00    -0.026 A 
ATOM     28  C   UNL     1      -0.011   8.475   4.987  0.00  0.00    +0.009 A 
ATOM     29  C   UNL     1       0.678   9.303   4.120  0.00  0.00    +0.050 A 
ATOM     30  C   UNL     1       1.812   8.838   3.473  0.00  0.00    +0.166 A 
ATOM     31  C   UNL     1       2.253   7.536   3.697  0.00  0.00    +0.167 A 
ATOM     32  C   UNL     1       1.559   6.714   4.571  0.00  0.00    +0.054 A 
ATOM     33  O   UNL     1       3.376   7.321   2.951  0.00  0.00    -0.453 OA
ATOM     34  C   UNL     1       3.383   8.364   1.959  0.00  0.00    +0.466 C 
ATOM     35  O   UNL     1       2.658   9.439   2.586  0.00  0.00    -0.453 OA
ENDBRANCH  26  27
ENDBRANCH   5  26
TORSDOF 6
