REMARK  Name = ZINC38748343
REMARK  6 active torsions:
REMARK  status: ('A' for Active; 'I' for Inactive)
REMARK    1  A    between atoms: C_4  and  C_7
REMARK    2  A    between atoms: C_9  and  C_13
REMARK    3  A    between atoms: C_17  and  S_21
REMARK    4  A    between atoms: N_19  and  N_20
REMARK    5  A    between atoms: S_21  and  C_22
REMARK    6  A    between atoms: C_22  and  C_23
REMARK                            x       y       z     vdW  Elec       q    Type
REMARK                         _______ _______ _______ _____ _____    ______ ____
ROOT
ATOM      1  C   UNL     1       5.640  -3.031  -1.350  0.00  0.00    +0.185 C 
ATOM      2  N   UNL     1       5.732  -2.077  -2.486  0.00  0.00    -0.234 NA
ATOM      3  N   UNL     1       6.802  -2.653  -3.317  0.00  0.00    -0.228 NA
ATOM      4  C   UNL     1       7.785  -3.178  -2.343  0.00  0.00    +0.214 C 
ATOM      5  N   UNL     1       7.043  -3.424  -1.086  0.00  0.00    -0.197 NA
ATOM      6  H   UNL     1       5.982  -1.154  -2.164  0.00  0.00    +0.143 HD
ATOM      7  H   UNL     1       6.446  -3.391  -3.905  0.00  0.00    +0.143 HD
ENDROOT
BRANCH   1  10
ATOM      8  C   UNL     1       3.530  -0.668  -0.261  0.00  0.00    +0.091 C 
ATOM      9  C   UNL     1       3.574  -2.011  -0.362  0.00  0.00    +0.034 C 
ATOM     10  C   UNL     1       5.036  -2.346  -0.123  0.00  0.00    +0.187 C 
ATOM     11  N   UNL     1       5.651  -1.026   0.095  0.00  0.00    -0.176 NA
ATOM     12  N   UNL     1       4.768  -0.171  -0.003  0.00  0.00    -0.154 NA
BRANCH   8  16
ATOM     13  C   UNL     1       0.016   1.684  -0.710  0.00  0.00    +0.000 A 
ATOM     14  C   UNL     1       1.227   2.298  -0.447  0.00  0.00    +0.001 A 
ATOM     15  C   UNL     1       2.371   1.539  -0.300  0.00  0.00    +0.010 A 
ATOM     16  C   UNL     1       2.304   0.152  -0.418  0.00  0.00    +0.002 A 
ATOM     17  C   UNL     1       1.081  -0.461  -0.683  0.00  0.00    +0.010 A 
ATOM     18  C   UNL     1      -0.057   0.307  -0.828  0.00  0.00    +0.001 A 
ENDBRANCH   8  16
ENDBRANCH   1  10
BRANCH   5  19
ATOM     19  N   UNL     1       7.128  -4.821  -0.693  0.00  0.00    -0.264 NA
ATOM     20  H   UNL     1       8.084  -5.089  -0.513  0.00  0.00    +0.137 HD
ATOM     21  H   UNL     1       6.544  -5.008   0.108  0.00  0.00    +0.137 HD
ENDBRANCH   5  19
BRANCH   4  22
ATOM     22  S   UNL     1       8.500  -4.729  -2.955  0.00  0.00    -0.115 S 
BRANCH  22  23
ATOM     23  C   UNL     1       7.065  -5.816  -3.175  0.00  0.00    +0.168 C 
BRANCH  23  24
ATOM     24  C   UNL     1       7.525  -7.157  -3.688  0.00  0.00    +0.234 C 
ATOM     25  O   UNL     1       8.627  -7.272  -4.183  0.00  0.00    -0.274 OA
ATOM     26  N   UNL     1       6.712  -8.228  -3.596  0.00  0.00    -0.237 N 
ATOM     27  C   UNL     1       7.204  -9.489  -3.958  0.00  0.00    +0.055 A 
ATOM     28  C   UNL     1       8.066  -9.620  -5.035  0.00  0.00    +0.025 A 
ATOM     29  C   UNL     1       8.547 -10.869  -5.387  0.00  0.00    +0.002 A 
ATOM     30  C   UNL     1       8.173 -11.991  -4.671  0.00  0.00    +0.001 A 
ATOM     31  C   UNL     1       7.313 -11.871  -3.593  0.00  0.00    +0.017 A 
ATOM     32  C   UNL     1       6.829 -10.626  -3.237  0.00  0.00    +0.035 A 
ATOM     33  S   UNL     1       5.730 -10.441  -1.868  0.00  0.00    -0.086 S 
ATOM     34  C   UNL     1       4.801  -9.009  -2.320  0.00  0.00    +0.035 A 
ATOM     35  C   UNL     1       5.401  -8.051  -3.135  0.00  0.00    +0.055 A 
ATOM     36  C   UNL     1       4.682  -6.921  -3.491  0.00  0.00    +0.025 A 
ATOM     37  C   UNL     1       3.387  -6.754  -3.034  0.00  0.00    +0.002 A 
ATOM     38  C   UNL     1       2.801  -7.708  -2.224  0.00  0.00    +0.001 A 
ATOM     39  C   UNL     1       3.504  -8.837  -1.872  0.00  0.00    +0.017 A 
ENDBRANCH  23  24
ENDBRANCH  22  23
ENDBRANCH   4  22
TORSDOF 6
