REMARK  Name = ZINC64714589
REMARK  11 active torsions:
REMARK  status: ('A' for Active; 'I' for Inactive)
REMARK    1  A    between atoms: C_1  and  C_2
REMARK    2  A    between atoms: C_4  and  C_30
REMARK    3  A    between atoms: C_5  and  C_29
REMARK    4  A    between atoms: C_7  and  C_8
REMARK    5  A    between atoms: C_13  and  C_16
REMARK    6  A    between atoms: C_16  and  C_17
REMARK    7  A    between atoms: N_19  and  C_20
REMARK    8  A    between atoms: C_20  and  C_21
REMARK    9  A    between atoms: C_21  and  N_22
REMARK   10  A    between atoms: C_30  and  O_32
REMARK   11  A    between atoms: O_32  and  C_33
REMARK                            x       y       z     vdW  Elec       q    Type
REMARK                         _______ _______ _______ _____ _____    ______ ____
ROOT
ATOM      1  C   UNL     1       3.211  -0.305   0.677  0.00  0.00    +0.261 C 
ATOM      2  O   UNL     1       4.116   0.269   0.105  0.00  0.00    -0.269 OA
ATOM      3  N   UNL     1       3.390  -0.761   1.933  0.00  0.00    -0.297 N 
ATOM      4  C   UNL     1       2.358  -1.578   2.587  0.00  0.00    +0.108 C 
ATOM      5  C   UNL     1       3.001  -2.874   3.090  0.00  0.00    +0.023 C 
ATOM      6  C   UNL     1       4.194  -2.533   3.986  0.00  0.00    +0.001 C 
ATOM      7  C   UNL     1       5.237  -1.759   3.176  0.00  0.00    +0.023 C 
ATOM      8  C   UNL     1       4.622  -0.455   2.672  0.00  0.00    +0.108 C 
ENDROOT
BRANCH   1  14
ATOM      9  C   UNL     1       1.753   1.312  -1.724  0.00  0.00    +0.019 C 
ATOM     10  C   UNL     1       1.589  -0.184  -1.450  0.00  0.00    +0.078 C 
ATOM     11  C   UNL     1       0.134  -0.598  -1.571  0.00  0.00    +0.066 C 
ATOM     12  C   UNL     1      -0.201  -1.056  -0.342  0.00  0.00    +0.049 C 
ATOM     13  N   UNL     1       0.820  -0.989   0.516  0.00  0.00    -0.250 NA
ATOM     14  C   UNL     1       1.914  -0.505  -0.004  0.00  0.00    +0.111 C 
ATOM     15  C   UNL     1      -1.568  -1.580   0.017  0.00  0.00    +0.066 C 
BRANCH  11  16
ATOM     16  C   UNL     1      -0.722  -0.518  -2.758  0.00  0.00    +0.337 C 
ATOM     17  O   UNL     1      -1.878  -0.890  -2.701  0.00  0.00    -0.245 OA
BRANCH  16  18
ATOM     18  O   UNL     1      -0.227  -0.032  -3.915  0.00  0.00    -0.465 OA
ATOM     19  C   UNL     1      -1.117   0.017  -5.032  0.00  0.00    +0.280 C 
ENDBRANCH  16  18
ENDBRANCH  11  16
ENDBRANCH   1  14
BRANCH   6  20
ATOM     20  C   UNL     1       4.818  -3.825   4.518  0.00  0.00    +0.099 C 
BRANCH  20  21
ATOM     21  C   UNL     1       5.914  -3.488   5.495  0.00  0.00    +0.213 C 
ATOM     22  O   UNL     1       6.171  -2.329   5.742  0.00  0.00    -0.276 OA
ATOM     23  N   UNL     1       6.608  -4.475   6.095  0.00  0.00    -0.317 N 
ATOM     24  H   UNL     1       6.403  -5.402   5.898  0.00  0.00    +0.149 HD
BRANCH  23  25
ATOM     25  C   UNL     1       7.674  -4.147   7.046  0.00  0.00    +0.085 C 
BRANCH  25  26
ATOM     26  C   UNL     1       8.297  -5.439   7.578  0.00  0.00    -0.060 C 
BRANCH  26  27
ATOM     27  N   UNL     1       9.449  -5.113   8.429  0.00  0.00    +0.381 N 
ATOM     28  C   UNL     1      10.181  -6.358   8.734  0.00  0.00    -0.079 C 
ATOM     29  C   UNL     1      11.611  -6.000   9.054  0.00  0.00    -0.019 C 
ATOM     30  C   UNL     1      11.834  -5.875  10.573  0.00  0.00    -0.002 C 
ATOM     31  C   UNL     1      10.656  -5.161  11.267  0.00  0.00    -0.002 C 
ATOM     32  C   UNL     1      10.150  -3.983  10.473  0.00  0.00    -0.019 C 
ATOM     33  C   UNL     1       8.990  -4.448   9.568  0.00  0.00    -0.079 C 
ATOM     34  H   UNL     1      10.063  -4.495   7.919  0.00  0.00    -0.082 HD
ENDBRANCH  26  27
ENDBRANCH  25  26
ENDBRANCH  23  25
ENDBRANCH  20  21
ENDBRANCH   6  20
TORSDOF 8
