REMARK  Name = ZINC02837740
REMARK  12 active torsions:
REMARK  status: ('A' for Active; 'I' for Inactive)
REMARK    1  A    between atoms: C_1  and  C_2
REMARK    2  A    between atoms: C_2  and  N_3
REMARK    3  A    between atoms: C_4  and  C_25
REMARK    4  A    between atoms: C_7  and  S_8
REMARK    5  A    between atoms: S_8  and  C_9
REMARK    6  A    between atoms: C_9  and  C_10
REMARK    7  A    between atoms: C_15  and  C_19
REMARK    8  A    between atoms: C_16  and  C_18
REMARK    9  A    between atoms: C_25  and  C_27
REMARK   10  A    between atoms: C_25  and  N_28
REMARK   11  A    between atoms: C_29  and  C_31
REMARK   12  A    between atoms: C_35  and  C_37
REMARK                            x       y       z     vdW  Elec       q    Type
REMARK                         _______ _______ _______ _____ _____    ______ ____
ROOT
ATOM      1  N   UNL     1       2.448   9.010  -1.500  0.00  0.00    -0.305 N 
ATOM      2  C   UNL     1       2.343   8.000  -0.584  0.00  0.00    +0.154 A 
ATOM      3  N   UNL     1       3.549   7.577  -0.333  0.00  0.00    -0.132 NA
ATOM      4  N   UNL     1       4.403   8.239  -1.029  0.00  0.00    -0.122 NA
ATOM      5  C   UNL     1       3.782   9.135  -1.761  0.00  0.00    +0.192 A 
ENDROOT
BRANCH   1   7
ATOM      6  C   UNL     1       1.097  11.028  -1.210  0.00  0.00    +0.027 C 
ATOM      7  C   UNL     1       1.356   9.796  -2.079  0.00  0.00    +0.122 C 
ENDBRANCH   1   7
BRANCH   2   8
ATOM      8  C   UNL     1       1.068   7.478   0.027  0.00  0.00    +0.138 C 
ATOM      9  C   UNL     1       0.949   7.979   1.467  0.00  0.00    +0.036 C 
BRANCH   8  10
ATOM     10  N   UNL     1       1.088   6.013   0.020  0.00  0.00    -0.302 N 
ATOM     11  C   UNL     1      -0.070   5.323   0.029  0.00  0.00    +0.245 C 
ATOM     12  O   UNL     1      -1.131   5.916   0.041  0.00  0.00    -0.270 OA
ATOM     13  H   UNL     1       1.934   5.539   0.010  0.00  0.00    +0.150 HD
BRANCH  11  14
ATOM     14  C   UNL     1      -0.050   3.845   0.022  0.00  0.00    +0.037 A 
ATOM     15  C   UNL     1       1.166   3.160   0.007  0.00  0.00    +0.013 A 
ATOM     16  C   UNL     1       1.178   1.781   0.000  0.00  0.00    +0.001 A 
ATOM     17  C   UNL     1      -0.013   1.076   0.008  0.00  0.00    +0.003 A 
ATOM     18  C   UNL     1      -1.222   1.748   0.017  0.00  0.00    -0.050 A 
ATOM     19  C   UNL     1      -1.247   3.128   0.030  0.00  0.00    +0.016 A 
ATOM     20  C   UNL     1      -2.513   0.972   0.020  0.00  0.00    +0.044 C 
ENDBRANCH  11  14
ENDBRANCH   8  10
ENDBRANCH   2   8
BRANCH   5  21
ATOM     21  S   UNL     1       4.530  10.281  -2.871  0.00  0.00    -0.077 S 
BRANCH  21  22
ATOM     22  C   UNL     1       6.271   9.830  -2.663  0.00  0.00    +0.173 C 
BRANCH  22  23
ATOM     23  C   UNL     1       7.125  10.706  -3.542  0.00  0.00    +0.229 C 
ATOM     24  O   UNL     1       6.608  11.552  -4.241  0.00  0.00    -0.275 OA
ATOM     25  N   UNL     1       8.464  10.550  -3.553  0.00  0.00    -0.264 N 
ATOM     26  C   UNL     1       9.252  11.357  -4.364  0.00  0.00    +0.165 A 
ATOM     27  N   UNL     1      10.563  11.363  -4.516  0.00  0.00    -0.224 NA
ATOM     28  C   UNL     1      11.156  12.211  -5.342  0.00  0.00    +0.083 A 
ATOM     29  C   UNL     1      10.396  13.098  -6.052  0.00  0.00    +0.016 A 
ATOM     30  S   UNL     1       8.758  12.659  -5.484  0.00  0.00    -0.057 S 
ATOM     31  C   UNL     1      10.820  14.151  -7.043  0.00  0.00    +0.054 C 
ATOM     32  H   UNL     1       8.877   9.873  -2.994  0.00  0.00    +0.157 HD
BRANCH  28  33
ATOM     33  C   UNL     1      12.631  12.198  -5.497  0.00  0.00    +0.001 A 
ATOM     34  C   UNL     1      13.207  12.463  -6.738  0.00  0.00    +0.010 A 
ATOM     35  C   UNL     1      14.580  12.455  -6.875  0.00  0.00    +0.001 A 
ATOM     36  C   UNL     1      15.384  12.173  -5.785  0.00  0.00    +0.000 A 
ATOM     37  C   UNL     1      14.818  11.903  -4.552  0.00  0.00    +0.001 A 
ATOM     38  C   UNL     1      13.446  11.914  -4.402  0.00  0.00    +0.010 A 
ENDBRANCH  28  33
ENDBRANCH  22  23
ENDBRANCH  21  22
ENDBRANCH   5  21
TORSDOF 8
