REMARK  Name = ZINC12190413
REMARK  15 active torsions:
REMARK  status: ('A' for Active; 'I' for Inactive)
REMARK    1  A    between atoms: C_1  and  C_2
REMARK    2  A    between atoms: C_2  and  C_3
REMARK    3  A    between atoms: C_2  and  C_4
REMARK    4  A    between atoms: C_4  and  C_5
REMARK    5  A    between atoms: C_5  and  C_6
REMARK    6  A    between atoms: C_6  and  C_17
REMARK    7  A    between atoms: N_9  and  C_13
REMARK    8  A    between atoms: C_13  and  C_14
REMARK    9  A    between atoms: C_14  and  N_73
REMARK   10  A    between atoms: C_15  and  N_73
REMARK   11  A    between atoms: C_16  and  N_73
REMARK   12  A    between atoms: C_23  and  C_25
REMARK   13  A    between atoms: C_28  and  C_31
REMARK   14  A    between atoms: C_31  and  O_33
REMARK   15  A    between atoms: O_33  and  C_34
REMARK                            x       y       z     vdW  Elec       q    Type
REMARK                         _______ _______ _______ _____ _____    ______ ____
ROOT
ATOM      1  C   UNL     1       4.719  -0.052  -1.236  0.00  0.00    +0.115 C 
ATOM      2  C   UNL     1       5.624  -0.581  -0.141  0.00  0.00    +0.247 C 
ATOM      3  O   UNL     1       5.937  -0.018   0.886  0.00  0.00    -0.273 OA
ATOM      4  N   UNL     1       6.007  -1.808  -0.546  0.00  0.00    -0.226 N 
ATOM      5  C   UNL     1       5.475  -2.124  -1.732  0.00  0.00    +0.309 C 
ATOM      6  O   UNL     1       5.675  -3.179  -2.303  0.00  0.00    -0.252 OA
ATOM      7  N   UNL     1       4.695  -1.145  -2.223  0.00  0.00    -0.285 N 
ATOM      8  H   UNL     1       4.210  -1.156  -3.063  0.00  0.00    +0.151 HD
ENDROOT
BRANCH   1   9
ATOM      9  C   UNL     1       3.313   0.213  -0.691  0.00  0.00    +0.024 C 
ATOM     10  C   UNL     1       2.419   0.730  -1.820  0.00  0.00    +0.025 C 
ATOM     11  C   UNL     1       1.022   1.026  -1.264  0.00  0.00    +0.108 C 
ATOM     12  N   UNL     1       0.514  -0.179  -0.595  0.00  0.00    -0.298 N 
ATOM     13  C   UNL     1       1.338  -0.811   0.444  0.00  0.00    +0.108 C 
ATOM     14  C   UNL     1       2.731  -1.087  -0.131  0.00  0.00    +0.025 C 
ATOM     15  C   UNL     1      -0.686  -0.695  -0.928  0.00  0.00    +0.247 C 
ATOM     16  O   UNL     1      -1.051  -1.748  -0.443  0.00  0.00    -0.270 OA
BRANCH  15  17
ATOM     17  C   UNL     1      -1.559   0.020  -1.886  0.00  0.00    +0.037 A 
ATOM     18  C   UNL     1      -1.594   1.415  -1.891  0.00  0.00    +0.014 A 
ATOM     19  C   UNL     1      -2.404   2.082  -2.785  0.00  0.00    +0.016 A 
ATOM     20  C   UNL     1      -3.196   1.361  -3.681  0.00  0.00    +0.059 A 
ATOM     21  C   UNL     1      -3.164  -0.035  -3.673  0.00  0.00    +0.016 A 
ATOM     22  C   UNL     1      -2.351  -0.701  -2.781  0.00  0.00    +0.014 A 
BRANCH  20  23
ATOM     23  C   UNL     1      -4.068   2.075  -4.638  0.00  0.00    +0.339 C 
ATOM     24  O   UNL     1      -4.756   1.448  -5.417  0.00  0.00    -0.245 OA
BRANCH  23  25
ATOM     25  O   UNL     1      -4.098   3.422  -4.646  0.00  0.00    -0.464 OA
ATOM     26  C   UNL     1      -4.977   4.056  -5.612  0.00  0.00    +0.280 C 
ENDBRANCH  23  25
ENDBRANCH  20  23
ENDBRANCH  15  17
ENDBRANCH   1   9
BRANCH   1  27
ATOM     27  C   UNL     1       5.304   1.221  -1.850  0.00  0.00    +0.036 C 
BRANCH  27  28
ATOM     28  C   UNL     1       6.654   0.901  -2.497  0.00  0.00    +0.005 C 
BRANCH  28  30
ATOM     29  C   UNL     1       7.551   3.179  -2.001  0.00  0.00    +0.007 C 
ATOM     30  C   UNL     1       7.240   2.173  -3.111  0.00  0.00    -0.017 C 
ATOM     31  C   UNL     1       8.527   1.830  -3.864  0.00  0.00    +0.007 C 
ENDBRANCH  28  30
ENDBRANCH  27  28
ENDBRANCH   1  27
BRANCH   4  32
ATOM     32  C   UNL     1       6.897  -2.686   0.218  0.00  0.00    +0.099 C 
BRANCH  32  33
ATOM     33  C   UNL     1       6.064  -3.568   1.150  0.00  0.00    -0.060 C 
BRANCH  33  36
ATOM     34  C   UNL     1       7.803  -3.673   2.832  0.00  0.00    -0.097 C 
ATOM     35  C   UNL     1       6.191  -5.470   2.644  0.00  0.00    -0.097 C 
ATOM     36  N   UNL     1       6.974  -4.463   1.898  0.00  0.00    +0.377 N 
ATOM     37  H   UNL     1       7.589  -4.945   1.232  0.00  0.00    -0.083 HD
ENDBRANCH  33  36
ENDBRANCH  32  33
ENDBRANCH   4  32
TORSDOF 10
