REMARK  Name = ZINC67454556
REMARK  5 active torsions:
REMARK  status: ('A' for Active; 'I' for Inactive)
REMARK    1  A    between atoms: C_1  and  C_2
REMARK    2  A    between atoms: C_2  and  N_3
REMARK    3  A    between atoms: C_4  and  C_16
REMARK    4  A    between atoms: C_19  and  O_25
REMARK    5  A    between atoms: C_20  and  N_22
REMARK                            x       y       z     vdW  Elec       q    Type
REMARK                         _______ _______ _______ _____ _____    ______ ____
ROOT
ATOM      1  N   UNL     1       0.777  -0.468  -1.134  0.00  0.00    -0.275 N 
ATOM      2  C   UNL     1       0.134  -0.671  -2.433  0.00  0.00    +0.193 C 
ATOM      3  N   UNL     1       0.805  -1.749  -3.169  0.00  0.00    -0.321 N 
ATOM      4  C   UNL     1       2.195  -1.775  -3.189  0.00  0.00    +0.041 A 
ATOM      5  C   UNL     1       2.903  -2.304  -4.255  0.00  0.00    +0.025 A 
ATOM      6  C   UNL     1       4.285  -2.302  -4.226  0.00  0.00    +0.022 A 
ATOM      7  C   UNL     1       4.967  -1.776  -3.139  0.00  0.00    +0.042 A 
ATOM      8  C   UNL     1       4.275  -1.247  -2.067  0.00  0.00    +0.035 A 
ATOM      9  C   UNL     1       2.883  -1.243  -2.084  0.00  0.00    +0.059 A 
ATOM     10  C   UNL     1       2.096  -0.694  -0.964  0.00  0.00    +0.250 C 
ATOM     11  O   UNL     1       2.629  -0.451   0.102  0.00  0.00    -0.270 OA
ATOM     12 CL   UNL     1       6.702  -1.785  -3.124  0.00  0.00    -0.084 Cl
ATOM     13  H   UNL     1       0.290  -2.429  -3.631  0.00  0.00    +0.148 HD
ENDROOT
BRANCH   2  14
ATOM     14  C   UNL     1       0.216   0.602  -3.235  0.00  0.00    -0.007 A 
ATOM     15  C   UNL     1       0.357   1.817  -2.589  0.00  0.00    +0.011 A 
ATOM     16  C   UNL     1       0.432   2.985  -3.322  0.00  0.00    +0.048 A 
ATOM     17  C   UNL     1       0.366   2.939  -4.707  0.00  0.00    +0.147 A 
ATOM     18  C   UNL     1       0.225   1.720  -5.352  0.00  0.00    +0.168 A 
ATOM     19  C   UNL     1       0.155   0.553  -4.615  0.00  0.00    +0.043 A 
BRANCH  18  20
ATOM     20  N   UNL     1       0.154   1.667  -6.830  0.00  0.00    +0.060 N 
ATOM     21  O   UNL     1       0.032   0.604  -7.392  0.00  0.00    -0.126 OA
ATOM     22  O   UNL     1       0.219   2.688  -7.475  0.00  0.00    -0.126 OA
ENDBRANCH  18  20
BRANCH  17  23
ATOM     23  O   UNL     1       0.439   4.088  -5.430  0.00  0.00    -0.504 OA
ATOM     24  H   UNL     1       1.339   4.340  -5.679  0.00  0.00    +0.292 HD
ENDBRANCH  17  23
ENDBRANCH   2  14
BRANCH   1  26
ATOM     25  C   UNL     1      -0.483  -1.207   0.827  0.00  0.00    +0.024 C 
ATOM     26  C   UNL     1      -0.025  -0.004   0.000  0.00  0.00    +0.107 C 
ENDBRANCH   1  26
TORSDOF 4
