REMARK  Name = ZINC35098381
REMARK  13 active torsions:
REMARK  status: ('A' for Active; 'I' for Inactive)
REMARK    1  A    between atoms: C_1  and  C_2
REMARK    2  A    between atoms: C_2  and  C_3
REMARK    3  A    between atoms: C_3  and  C_4
REMARK    4  A    between atoms: C_4  and  N_5
REMARK    5  A    between atoms: C_13  and  C_15
REMARK    6  A    between atoms: C_16  and  C_18
REMARK    7  A    between atoms: C_18  and  C_20
REMARK    8  A    between atoms: C_18  and  N_25
REMARK    9  A    between atoms: C_20  and  C_22
REMARK   10  A    between atoms: C_20  and  C_23
REMARK   11  A    between atoms: C_23  and  C_24
REMARK   12  A    between atoms: N_25  and  S_26
REMARK   13  A    between atoms: S_26  and  C_29
REMARK                            x       y       z     vdW  Elec       q    Type
REMARK                         _______ _______ _______ _____ _____    ______ ____
ROOT
ATOM      1  N   UNL     1      -4.286  -3.618  -3.685  0.00  0.00    -0.299 N 
ATOM      2  C   UNL     1      -4.658  -4.887  -3.425  0.00  0.00    +0.303 C 
ATOM      3  O   UNL     1      -4.045  -5.813  -3.919  0.00  0.00    -0.253 OA
ATOM      4  N   UNL     1      -5.709  -5.129  -2.617  0.00  0.00    -0.280 N 
ATOM      5  C   UNL     1      -6.529  -4.022  -2.104  0.00  0.00    +0.128 C 
ATOM      6  C   UNL     1      -6.568  -4.109  -0.574  0.00  0.00    +0.127 C 
ATOM      7  N   UNL     1      -6.915  -5.485  -0.190  0.00  0.00    -0.297 N 
ATOM      8  C   UNL     1      -6.095  -6.591  -0.702  0.00  0.00    +0.130 C 
ATOM      9  C   UNL     1      -6.059  -6.505  -2.238  0.00  0.00    +0.092 C 
ATOM     10  C   UNL     1      -5.008  -7.472  -2.784  0.00  0.00    +0.030 C 
ATOM     11  C   UNL     1      -7.966  -5.727   0.618  0.00  0.00    +0.235 C 
ATOM     12  O   UNL     1      -8.193  -6.857   0.995  0.00  0.00    -0.274 OA
ATOM     13  H   UNL     1      -4.818  -2.878  -3.351  0.00  0.00    +0.150 HD
ENDROOT
BRANCH   1  14
ATOM     14  C   UNL     1      -3.079  -3.354  -4.472  0.00  0.00    +0.106 C 
BRANCH  14  15
ATOM     15  C   UNL     1      -2.886  -1.844  -4.620  0.00  0.00    +0.018 C 
BRANCH  15  17
ATOM     16  C   UNL     1      -1.432  -0.059  -5.589  0.00  0.00    +0.004 C 
ATOM     17  C   UNL     1      -1.625  -1.569  -5.441  0.00  0.00    -0.002 C 
ENDBRANCH  15  17
ENDBRANCH  14  15
ENDBRANCH   1  14
BRANCH  11  18
ATOM     18  C   UNL     1      -8.859  -4.594   1.054  0.00  0.00    +0.165 C 
BRANCH  18  19
ATOM     19  C   UNL     1      -8.076  -3.651   1.970  0.00  0.00    +0.013 C 
ATOM     20  C   UNL     1      -8.932  -2.424   2.290  0.00  0.00    +0.009 C 
BRANCH  19  21
ATOM     21  C   UNL     1      -7.722  -4.379   3.268  0.00  0.00    +0.002 C 
ATOM     22  C   UNL     1      -6.834  -3.480   4.131  0.00  0.00    +0.004 C 
ENDBRANCH  19  21
ENDBRANCH  18  19
BRANCH  18  23
ATOM     23  N   UNL     1     -10.013  -5.132   1.778  0.00  0.00    -0.178 NA
ATOM     24  H   UNL     1      -9.878  -5.689   2.560  0.00  0.00    +0.149 HD
BRANCH  23  25
ATOM     25  S   UNL     1     -11.548  -4.788   1.262  0.00  0.00    +0.059 S 
ATOM     26  O   UNL     1     -12.434  -5.459   2.147  0.00  0.00    -0.153 OA
ATOM     27  O   UNL     1     -11.601  -3.383   1.052  0.00  0.00    -0.153 OA
BRANCH  25  28
ATOM     28  C   UNL     1     -11.748  -5.541  -0.319  0.00  0.00    +0.105 A 
ATOM     29  C   UNL     1     -11.420  -4.841  -1.464  0.00  0.00    +0.029 A 
ATOM     30  C   UNL     1     -11.576  -5.431  -2.704  0.00  0.00    +0.017 A 
ATOM     31  C   UNL     1     -12.060  -6.724  -2.798  0.00  0.00    +0.018 A 
ATOM     32  C   UNL     1     -12.388  -7.424  -1.652  0.00  0.00    +0.017 A 
ATOM     33  C   UNL     1     -12.226  -6.835  -0.412  0.00  0.00    +0.029 A 
ATOM     34 BR   UNL     1     -12.274  -7.532  -4.494  0.00  0.00    -0.050 Br
ENDBRANCH  25  28
ENDBRANCH  23  25
ENDBRANCH  18  23
ENDBRANCH  11  18
TORSDOF 9
