REMARK  Name = ZINC09449129
REMARK  7 active torsions:
REMARK  status: ('A' for Active; 'I' for Inactive)
REMARK    1  A    between atoms: C_1  and  C_2
REMARK    2  A    between atoms: C_5  and  C_8
REMARK    3  A    between atoms: C_13  and  S_17
REMARK    4  A    between atoms: S_17  and  C_18
REMARK    5  A    between atoms: C_18  and  C_19
REMARK    6  A    between atoms: N_21  and  C_22
REMARK    7  A    between atoms: C_31  and  C_34
REMARK                            x       y       z     vdW  Elec       q    Type
REMARK                         _______ _______ _______ _____ _____    ______ ____
ROOT
ATOM      1  C   UNL     1      -0.859  -2.545  -0.137  0.00  0.00    +0.171 C 
ENDROOT
BRANCH   1   2
ATOM      2  C   UNL     1      -1.197  -4.014  -0.164  0.00  0.00    +0.227 C 
ATOM      3  O   UNL     1      -0.310  -4.841  -0.165  0.00  0.00    -0.275 OA
ATOM      4  N   UNL     1      -2.486  -4.408  -0.188  0.00  0.00    -0.285 N 
ATOM      5  H   UNL     1      -3.195  -3.750  -0.118  0.00  0.00    +0.155 HD
BRANCH   4   6
ATOM      6  C   UNL     1      -2.800  -5.768  -0.312  0.00  0.00    +0.035 A 
ATOM      7  C   UNL     1      -3.924  -6.157  -1.028  0.00  0.00    +0.027 A 
ATOM      8  C   UNL     1      -4.236  -7.498  -1.158  0.00  0.00    +0.049 A 
ATOM      9  C   UNL     1      -3.432  -8.455  -0.564  0.00  0.00    +0.143 A 
ATOM     10  C   UNL     1      -2.306  -8.067   0.161  0.00  0.00    +0.077 A 
ATOM     11  C   UNL     1      -1.991  -6.724   0.286  0.00  0.00    +0.050 A 
ATOM     12  N   UNL     1      -1.502  -9.049   0.758  0.00  0.00    -0.279 N 
ATOM     13  C   UNL     1      -1.641 -10.335   0.367  0.00  0.00    +0.258 C 
ATOM     14  O   UNL     1      -0.978 -11.205   0.891  0.00  0.00    -0.271 OA
ATOM     15  C   UNL     1      -2.624 -10.684  -0.721  0.00  0.00    +0.256 C 
ATOM     16  O   UNL     1      -3.729  -9.778  -0.679  0.00  0.00    -0.478 OA
ATOM     17  C   UNL     1      -3.128 -12.113  -0.513  0.00  0.00    +0.062 C 
ATOM     18  H   UNL     1      -0.856  -8.809   1.440  0.00  0.00    +0.155 HD
ENDBRANCH   4   6
ENDBRANCH   1   2
BRANCH   1  19
ATOM     19  S   UNL     1       0.940  -2.341  -0.110  0.00  0.00    -0.096 S 
BRANCH  19  25
ATOM     20  C   UNL     1       3.653  -0.522  -0.046  0.00  0.00    +0.001 A 
ATOM     21  C   UNL     1       4.723   0.307  -0.019  0.00  0.00    +0.056 A 
ATOM     22  S   UNL     1       3.990   1.932  -0.004  0.00  0.00    -0.076 S 
ATOM     23  C   UNL     1       2.279   1.469  -0.034  0.00  0.00    +0.113 A 
ATOM     24  C   UNL     1       2.315   0.060  -0.055  0.00  0.00    +0.047 A 
ATOM     25  C   UNL     1       1.047  -0.583  -0.082  0.00  0.00    +0.109 A 
ATOM     26  N   UNL     1      -0.052   0.156  -0.085  0.00  0.00    -0.229 NA
ATOM     27  C   UNL     1      -0.011   1.476  -0.064  0.00  0.00    +0.223 A 
ATOM     28  N   UNL     1       1.136   2.128  -0.039  0.00  0.00    -0.228 NA
BRANCH  20  33
ATOM     29  C   UNL     1       4.371  -6.234  -0.126  0.00  0.00    +0.044 C 
ATOM     30  C   UNL     1       4.182  -4.739  -0.104  0.00  0.00    -0.050 A 
ATOM     31  C   UNL     1       3.488  -4.118  -1.127  0.00  0.00    +0.004 A 
ATOM     32  C   UNL     1       3.313  -2.749  -1.113  0.00  0.00    +0.009 A 
ATOM     33  C   UNL     1       3.837  -1.992  -0.066  0.00  0.00    -0.017 A 
ATOM     34  C   UNL     1       4.541  -2.623   0.959  0.00  0.00    +0.009 A 
ATOM     35  C   UNL     1       4.705  -3.993   0.937  0.00  0.00    +0.004 A 
ENDBRANCH  20  33
ENDBRANCH  19  25
ENDBRANCH   1  19
TORSDOF 5
