REMARK  Name = ZINC22325682
REMARK  11 active torsions:
REMARK  status: ('A' for Active; 'I' for Inactive)
REMARK    1  A    between atoms: C_1  and  C_2
REMARK    2  A    between atoms: C_5  and  S_8
REMARK    3  A    between atoms: S_8  and  N_11
REMARK    4  A    between atoms: N_11  and  C_12
REMARK    5  A    between atoms: N_11  and  C_30
REMARK    6  A    between atoms: C_12  and  C_13
REMARK    7  A    between atoms: N_15  and  C_16
REMARK    8  A    between atoms: C_19  and  C_28
REMARK    9  A    between atoms: C_19  and  C_29
REMARK   10  A    between atoms: C_25  and  C_27
REMARK   11  A    between atoms: C_35  and  C_36
REMARK                            x       y       z     vdW  Elec       q    Type
REMARK                         _______ _______ _______ _____ _____    ______ ____
ROOT
ATOM      1  N   UNL     1      -1.184   0.641   8.722  0.00  0.00    -0.194 N 
ENDROOT
BRANCH   1   2
ATOM      2  C   UNL     1      -1.384   1.972   9.094  0.00  0.00    +0.056 A 
ATOM      3  C   UNL     1      -2.417   2.707   8.524  0.00  0.00    +0.025 A 
ATOM      4  C   UNL     1      -2.613   4.023   8.895  0.00  0.00    +0.003 A 
ATOM      5  C   UNL     1      -1.782   4.611   9.831  0.00  0.00    +0.020 A 
ATOM      6  C   UNL     1      -0.753   3.882  10.401  0.00  0.00    +0.046 A 
ATOM      7  C   UNL     1      -0.555   2.563  10.039  0.00  0.00    -0.010 A 
ATOM      8  C   UNL     1       0.562   1.768  10.665  0.00  0.00    +0.047 C 
ATOM      9 CL   UNL     1       0.287   4.624  11.577  0.00  0.00    -0.083 Cl
ENDBRANCH   1   2
BRANCH   1  10
ATOM     10  S   UNL     1      -1.896  -0.577   9.589  0.00  0.00    +0.075 S 
ATOM     11  O   UNL     1      -2.926   0.023  10.362  0.00  0.00    -0.150 OA
ATOM     12  O   UNL     1      -2.148  -1.634   8.673  0.00  0.00    -0.150 OA
BRANCH  10  17
ATOM     13  C   UNL     1       2.220  -2.627  13.495  0.00  0.00    +0.044 C 
ATOM     14  C   UNL     1       1.192  -2.115  12.520  0.00  0.00    -0.050 A 
ATOM     15  C   UNL     1       0.260  -1.178  12.925  0.00  0.00    +0.005 A 
ATOM     16  C   UNL     1      -0.683  -0.709  12.030  0.00  0.00    +0.029 A 
ATOM     17  C   UNL     1      -0.694  -1.175  10.729  0.00  0.00    +0.109 A 
ATOM     18  C   UNL     1       0.235  -2.116  10.325  0.00  0.00    +0.029 A 
ATOM     19  C   UNL     1       1.181  -2.582  11.218  0.00  0.00    +0.005 A 
ENDBRANCH  10  17
ENDBRANCH   1  10
BRANCH   1  20
ATOM     20  C   UNL     1      -0.345   0.323   7.564  0.00  0.00    +0.227 C 
BRANCH  20  21
ATOM     21  C   UNL     1      -1.173   0.399   6.307  0.00  0.00    +0.233 C 
ATOM     22  O   UNL     1      -2.348   0.691   6.372  0.00  0.00    -0.274 OA
ATOM     23  N   UNL     1      -0.607   0.143   5.111  0.00  0.00    -0.307 N 
ATOM     24  H   UNL     1       0.459  -0.121   5.052  0.00  0.00    +0.149 HD
BRANCH  23  25
ATOM     25  C   UNL     1      -1.412   0.218   3.889  0.00  0.00    +0.110 C 
ATOM     26  C   UNL     1      -0.786  -0.672   2.812  0.00  0.00    +0.074 C 
ATOM     27  C   UNL     1      -1.461  -0.353   1.472  0.00  0.00    +0.107 C 
ATOM     28  O   UNL     1      -1.150   0.995   1.119  0.00  0.00    -0.486 OA
ATOM     29  C   UNL     1      -1.331   1.956   2.063  0.00  0.00    +0.126 A 
ATOM     30  C   UNL     1      -1.458   1.645   3.405  0.00  0.00    +0.015 A 
ATOM     31  C   UNL     1      -1.631   2.658   4.334  0.00  0.00    +0.009 A 
ATOM     32  C   UNL     1      -1.681   3.977   3.925  0.00  0.00    +0.004 A 
ATOM     33  C   UNL     1      -1.558   4.290   2.584  0.00  0.00    -0.047 A 
ATOM     34  C   UNL     1      -1.384   3.285   1.655  0.00  0.00    +0.049 A 
ATOM     35  C   UNL     1      -1.613   5.728   2.138  0.00  0.00    +0.044 C 
ATOM     36  C   UNL     1      -0.937  -1.302   0.392  0.00  0.00    +0.055 C 
ATOM     37  C   UNL     1      -2.977  -0.515   1.608  0.00  0.00    +0.055 C 
ENDBRANCH  23  25
ENDBRANCH  20  21
ENDBRANCH   1  20
TORSDOF 6
