REMARK  Name = ZINC33331927
REMARK  11 active torsions:
REMARK  status: ('A' for Active; 'I' for Inactive)
REMARK    1  A    between atoms: C_1  and  C_2
REMARK    2  A    between atoms: C_5  and  N_8
REMARK    3  A    between atoms: C_9  and  C_11
REMARK    4  A    between atoms: C_11  and  C_36
REMARK    5  A    between atoms: N_23  and  C_24
REMARK    6  A    between atoms: C_24  and  C_25
REMARK    7  A    between atoms: C_25  and  C_26
REMARK    8  A    between atoms: C_26  and  N_27
REMARK    9  A    between atoms: N_27  and  C_28
REMARK   10  A    between atoms: N_27  and  C_29
REMARK   11  A    between atoms: C_29  and  C_30
REMARK                            x       y       z     vdW  Elec       q    Type
REMARK                         _______ _______ _______ _____ _____    ______ ____
ROOT
ATOM      1  C   UNL     1       1.533   0.790   0.657  0.00  0.00    +0.128 C 
ATOM      2  C   UNL     1       0.263   1.225  -0.073  0.00  0.00    +0.157 C 
ATOM      3  N   UNL     1      -0.726   0.145  -0.002  0.00  0.00    -0.331 N 
ATOM      4  C   UNL     1      -2.087   0.203  -0.006  0.00  0.00    +0.088 A 
ATOM      5  C   UNL     1      -3.226   1.043  -0.047  0.00  0.00    +0.067 A 
ATOM      6  C   UNL     1      -4.310   0.248  -0.013  0.00  0.00    +0.198 A 
ATOM      7  O   UNL     1      -3.921  -1.036   0.046  0.00  0.00    -0.461 OA
ATOM      8  C   UNL     1      -2.572  -1.103   0.055  0.00  0.00    +0.153 A 
ATOM      9  C   UNL     1      -1.467  -1.965   0.102  0.00  0.00    +0.079 A 
ATOM     10  C   UNL     1      -0.344  -1.192   0.074  0.00  0.00    +0.109 A 
ATOM     11  C   UNL     1       1.075  -1.566   0.121  0.00  0.00    +0.264 C 
ATOM     12  O   UNL     1       1.437  -2.724   0.015  0.00  0.00    -0.268 OA
ATOM     13  N   UNL     1       1.959  -0.555   0.288  0.00  0.00    -0.281 N 
ATOM     14  C   UNL     1       1.273   0.831   2.164  0.00  0.00    +0.043 C 
ENDROOT
BRANCH   1  16
ATOM     15  N   UNL     1       3.669   1.921   1.182  0.00  0.00    -0.311 N 
ATOM     16  C   UNL     1       2.639   1.759   0.328  0.00  0.00    +0.238 C 
ATOM     17  O   UNL     1       2.603   2.392  -0.706  0.00  0.00    -0.273 OA
ATOM     18  H   UNL     1       3.745   1.289   2.079  0.00  0.00    +0.149 HD
BRANCH  15  23
ATOM     19  C   UNL     1       8.546   4.882   0.653  0.00  0.00    +0.007 C 
ATOM     20  C   UNL     1       7.483   3.817   0.930  0.00  0.00    -0.014 C 
ATOM     21  C   UNL     1       6.471   4.358   1.943  0.00  0.00    +0.005 C 
ATOM     22  C   UNL     1       5.408   3.293   2.220  0.00  0.00    +0.022 C 
ATOM     23  C   UNL     1       4.687   2.941   0.917  0.00  0.00    +0.073 C 
ATOM     24  C   UNL     1       5.699   2.400  -0.096  0.00  0.00    +0.022 C 
ATOM     25  C   UNL     1       6.762   3.465  -0.373  0.00  0.00    +0.005 C 
ENDBRANCH  15  23
ENDBRANCH   1  16
BRANCH  13  26
ATOM     26  C   UNL     1       3.387  -0.820   0.093  0.00  0.00    +0.107 C 
BRANCH  26  27
ATOM     27  C   UNL     1       3.728  -0.708  -1.394  0.00  0.00    +0.000 C 
BRANCH  27  28
ATOM     28  C   UNL     1       5.187  -1.112  -1.615  0.00  0.00    -0.077 C 
BRANCH  28  29
ATOM     29  N   UNL     1       5.539  -0.923  -3.028  0.00  0.00    +0.381 N 
ATOM     30  C   UNL     1       5.745   0.499  -3.334  0.00  0.00    -0.096 C 
ATOM     31  H   UNL     1       4.696  -1.281  -3.637  0.00  0.00    -0.082 HD
BRANCH  29  32
ATOM     32  C   UNL     1       6.723  -1.716  -3.386  0.00  0.00    -0.043 C 
BRANCH  32  33
ATOM     33  C   UNL     1       6.908  -1.694  -4.882  0.00  0.00    -0.064 A 
ATOM     34  C   UNL     1       6.314  -2.665  -5.666  0.00  0.00    +0.002 A 
ATOM     35  C   UNL     1       6.480  -2.643  -7.038  0.00  0.00    +0.000 A 
ATOM     36  C   UNL     1       7.249  -1.655  -7.625  0.00  0.00    +0.000 A 
ATOM     37  C   UNL     1       7.848  -0.687  -6.840  0.00  0.00    +0.000 A 
ATOM     38  C   UNL     1       7.678  -0.707  -5.469  0.00  0.00    +0.002 A 
ENDBRANCH  32  33
ENDBRANCH  29  32
ENDBRANCH  28  29
ENDBRANCH  27  28
ENDBRANCH  26  27
ENDBRANCH  13  26
TORSDOF 8
