REMARK  Name = ZINC05101005
REMARK  3 active torsions:
REMARK  status: ('A' for Active; 'I' for Inactive)
REMARK    1  A    between atoms: C_1  and  N_2
REMARK    2  A    between atoms: C_11  and  C_24
REMARK    3  A    between atoms: C_27  and  O_30
REMARK                            x       y       z     vdW  Elec       q    Type
REMARK                         _______ _______ _______ _____ _____    ______ ____
ROOT
ATOM      1  C   UNL     1      -0.429   4.065   0.028  0.00  0.00    +0.155 C 
ATOM      2  N   UNL     1       0.912   3.476   0.012  0.00  0.00    -0.281 N 
ATOM      3  C   UNL     1       1.061   2.099   0.003  0.00  0.00    +0.146 A 
ATOM      4  C   UNL     1       2.343   1.580  -0.013  0.00  0.00    +0.068 A 
ATOM      5  C   UNL     1       3.449   2.441  -0.021  0.00  0.00    +0.260 A 
ATOM      6  O   UNL     1       4.581   1.992  -0.034  0.00  0.00    -0.267 OA
ATOM      7  N   UNL     1       3.243   3.776  -0.009  0.00  0.00    -0.275 N 
ATOM      8  H   UNL     1       4.025   4.398  -0.011  0.00  0.00    +0.173 HD
ATOM      9  C   UNL     1       1.994   4.275   0.005  0.00  0.00    +0.331 A 
ATOM     10  O   UNL     1       1.839   5.481   0.013  0.00  0.00    -0.246 OA
ATOM     11  C   UNL     1       2.513   0.078  -0.022  0.00  0.00    +0.074 C 
ATOM     12  C   UNL     1       1.226  -0.726  -0.013  0.00  0.00    +0.121 C 
ATOM     13  C   UNL     1       0.980  -2.054  -0.018  0.00  0.00    +0.174 C 
ATOM     14  C   UNL     1      -0.483  -2.276  -0.005  0.00  0.00    +0.027 A 
ATOM     15  C   UNL     1      -1.270  -3.418  -0.005  0.00  0.00    +0.012 A 
ATOM     16  C   UNL     1      -2.653  -3.304   0.009  0.00  0.00    +0.001 A 
ATOM     17  C   UNL     1      -3.252  -2.060   0.022  0.00  0.00    +0.001 A 
ATOM     18  C   UNL     1      -2.475  -0.908   0.021  0.00  0.00    +0.010 A 
ATOM     19  C   UNL     1      -1.096  -1.009   0.008  0.00  0.00    +0.008 A 
ATOM     20  C   UNL     1       0.002  -0.004   0.002  0.00  0.00    +0.063 C 
ATOM     21  N   UNL     1      -0.016   1.308   0.009  0.00  0.00    -0.233 NA
ATOM     22  O   UNL     1       1.921  -3.026  -0.033  0.00  0.00    -0.291 OA
ENDROOT
BRANCH  11  23
ATOM     23  C   UNL     1       3.298  -0.302  -1.251  0.00  0.00    -0.038 A 
ATOM     24  C   UNL     1       2.750  -0.112  -2.506  0.00  0.00    +0.008 A 
ATOM     25  C   UNL     1       3.471  -0.454  -3.635  0.00  0.00    +0.045 A 
ATOM     26  C   UNL     1       4.740  -0.998  -3.507  0.00  0.00    +0.117 A 
ATOM     27  C   UNL     1       5.286  -1.192  -2.246  0.00  0.00    +0.045 A 
ATOM     28  C   UNL     1       4.564  -0.844  -1.121  0.00  0.00    +0.008 A 
BRANCH  26  29
ATOM     29  O   UNL     1       5.449  -1.339  -4.615  0.00  0.00    -0.507 OA
ATOM     30  H   UNL     1       5.304  -2.249  -4.910  0.00  0.00    +0.292 HD
ENDBRANCH  26  29
ENDBRANCH  11  23
TORSDOF 2
