REMARK  Name = ZINC09665710
REMARK  11 active torsions:
REMARK  status: ('A' for Active; 'I' for Inactive)
REMARK    1  A    between atoms: C_1  and  C_2
REMARK    2  A    between atoms: C_5  and  C_32
REMARK    3  A    between atoms: C_5  and  C_33
REMARK    4  A    between atoms: N_11  and  C_15
REMARK    5  A    between atoms: C_15  and  N_65
REMARK    6  A    between atoms: C_16  and  C_17
REMARK    7  A    between atoms: C_16  and  N_65
REMARK    8  A    between atoms: C_20  and  C_22
REMARK    9  A    between atoms: C_29  and  C_30
REMARK   10  A    between atoms: C_29  and  C_31
REMARK   11  A    between atoms: C_29  and  N_65
REMARK                            x       y       z     vdW  Elec       q    Type
REMARK                         _______ _______ _______ _____ _____    ______ ____
ROOT
ATOM      1  N   UNL     1      -1.681  -1.142  -1.436  0.00  0.00    +0.398 N 
ATOM      2  H   UNL     1      -1.023  -1.580  -2.091  0.00  0.00    -0.078 HD
ENDROOT
BRANCH   1   3
ATOM      3  C   UNL     1      -2.081   0.178  -1.968  0.00  0.00    -0.072 C 
ATOM      4  C   UNL     1      -2.430   1.131  -0.823  0.00  0.00    -0.013 C 
ATOM      5  C   UNL     1      -0.913   0.753  -2.772  0.00  0.00    -0.013 C 
ENDBRANCH   1   3
BRANCH   1   6
ATOM      6  C   UNL     1      -2.868  -2.011  -1.294  0.00  0.00    +0.044 C 
BRANCH   6  16
ATOM      7  C   UNL     1      -4.418  -0.964  -7.807  0.00  0.00    +0.007 C 
ATOM      8  C   UNL     1      -4.830  -1.569  -6.461  0.00  0.00    -0.011 C 
ATOM      9  C   UNL     1      -6.113  -2.377  -6.641  0.00  0.00    +0.009 C 
ATOM     10  C   UNL     1      -6.572  -2.973  -5.315  0.00  0.00    -0.032 C 
ATOM     11  C   UNL     1      -5.470  -3.748  -4.613  0.00  0.00    +0.041 C 
ATOM     12  C   UNL     1      -4.104  -3.094  -4.618  0.00  0.00    +0.113 C 
ATOM     13  C   UNL     1      -3.726  -2.507  -5.971  0.00  0.00    +0.038 C 
ATOM     14  C   UNL     1      -3.966  -2.059  -3.528  0.00  0.00    +0.245 C 
ATOM     15  O   UNL     1      -4.447  -0.947  -3.485  0.00  0.00    -0.273 OA
ATOM     16  N   UNL     1      -3.162  -2.615  -2.595  0.00  0.00    -0.241 N 
ATOM     17  C   UNL     1      -2.650  -3.775  -3.022  0.00  0.00    +0.308 C 
ATOM     18  O   UNL     1      -1.871  -4.449  -2.374  0.00  0.00    -0.252 OA
ATOM     19  N   UNL     1      -3.095  -4.112  -4.245  0.00  0.00    -0.285 N 
ATOM     20  C   UNL     1      -7.729  -3.951  -5.614  0.00  0.00    +0.011 C 
ATOM     21  C   UNL     1      -7.124  -1.872  -4.406  0.00  0.00    +0.011 C 
ATOM     22  H   UNL     1      -2.820  -4.865  -4.786  0.00  0.00    +0.151 HD
ENDBRANCH   6  16
ENDBRANCH   1   6
BRANCH   1  23
ATOM     23  C   UNL     1      -1.016  -0.978  -0.126  0.00  0.00    +0.023 C 
BRANCH  23  24
ATOM     24  C   UNL     1       0.338  -0.352  -0.344  0.00  0.00    +0.202 A 
ATOM     25  N   UNL     1       0.638   0.906  -0.185  0.00  0.00    -0.114 NA
ATOM     26  N   UNL     1       1.882   1.089  -0.458  0.00  0.00    -0.107 NA
ATOM     27  C   UNL     1       2.422  -0.056  -0.803  0.00  0.00    +0.248 A 
ATOM     28  O   UNL     1       1.453  -0.991  -0.737  0.00  0.00    -0.422 OA
BRANCH  27  29
ATOM     29  C   UNL     1       3.831  -0.280  -1.193  0.00  0.00    +0.039 A 
ATOM     30  C   UNL     1       4.269  -1.560  -1.532  0.00  0.00    +0.014 A 
ATOM     31  C   UNL     1       5.583  -1.762  -1.899  0.00  0.00    +0.021 A 
ATOM     32  C   UNL     1       6.470  -0.698  -1.921  0.00  0.00    +0.041 A 
ATOM     33  C   UNL     1       6.042   0.574  -1.580  0.00  0.00    +0.021 A 
ATOM     34  C   UNL     1       4.729   0.788  -1.216  0.00  0.00    +0.014 A 
ATOM     35 CL   UNL     1       8.124  -0.961  -2.377  0.00  0.00    -0.084 Cl
ENDBRANCH  27  29
ENDBRANCH  23  24
ENDBRANCH   1  23
TORSDOF 6
