REMARK  Name = ZINC09680333
REMARK  9 active torsions:
REMARK  status: ('A' for Active; 'I' for Inactive)
REMARK    1  A    between atoms: C_1  and  C_2
REMARK    2  A    between atoms: C_5  and  S_8
REMARK    3  A    between atoms: S_8  and  N_11
REMARK    4  A    between atoms: N_14  and  C_17
REMARK    5  A    between atoms: C_20  and  N_33
REMARK    6  A    between atoms: C_21  and  N_23
REMARK    7  A    between atoms: N_23  and  C_24
REMARK    8  A    between atoms: C_24  and  C_26
REMARK    9  A    between atoms: C_24  and  C_27
REMARK                            x       y       z     vdW  Elec       q    Type
REMARK                         _______ _______ _______ _____ _____    ______ ____
ROOT
ATOM      1  C   UNL     1       1.169  -2.168  -5.664  0.00  0.00    +0.032 A 
ATOM      2  C   UNL     1       2.068  -1.158  -5.984  0.00  0.00    +0.025 A 
ATOM      3  C   UNL     1       2.053  -0.593  -7.245  0.00  0.00    +0.036 A 
ATOM      4  C   UNL     1       1.145  -1.029  -8.191  0.00  0.00    +0.147 A 
ATOM      5  C   UNL     1       0.244  -2.039  -7.877  0.00  0.00    +0.060 A 
ATOM      6  C   UNL     1       0.259  -2.612  -6.613  0.00  0.00    +0.048 A 
ENDROOT
BRANCH   1  10
ATOM      7  N   UNL     1       0.995  -2.963  -1.618  0.00  0.00    -0.174 NA
ATOM      8  C   UNL     1      -0.126  -3.443  -2.441  0.00  0.00    +0.128 C 
ATOM      9  C   UNL     1      -0.137  -2.645  -3.754  0.00  0.00    +0.122 C 
ATOM     10  N   UNL     1       1.184  -2.739  -4.389  0.00  0.00    -0.327 N 
ATOM     11  C   UNL     1       2.224  -2.128  -3.551  0.00  0.00    +0.122 C 
ATOM     12  C   UNL     1       2.330  -2.899  -2.231  0.00  0.00    +0.128 C 
BRANCH   7  13
ATOM     13  S   UNL     1       0.761  -2.513  -0.042  0.00  0.00    +0.061 S 
ATOM     14  O   UNL     1       2.015  -2.654   0.611  0.00  0.00    -0.153 OA
ATOM     15  O   UNL     1      -0.410  -3.185   0.403  0.00  0.00    -0.153 OA
BRANCH  13  20
ATOM     16  C   UNL     1      -0.529   3.381  -0.041  0.00  0.00    +0.044 C 
ATOM     17  C   UNL     1      -0.207   1.909  -0.041  0.00  0.00    -0.050 A 
ATOM     18  C   UNL     1      -1.225   0.979  -0.142  0.00  0.00    +0.005 A 
ATOM     19  C   UNL     1      -0.929  -0.371  -0.142  0.00  0.00    +0.029 A 
ATOM     20  C   UNL     1       0.384  -0.791  -0.042  0.00  0.00    +0.105 A 
ATOM     21  C   UNL     1       1.402   0.139   0.058  0.00  0.00    +0.029 A 
ATOM     22  C   UNL     1       1.106   1.489   0.058  0.00  0.00    +0.005 A 
ENDBRANCH  13  20
ENDBRANCH   7  13
ENDBRANCH   1  10
BRANCH   4  23
ATOM     23  N   UNL     1       1.133  -0.420  -9.540  0.00  0.00    +0.058 N 
ATOM     24  O   UNL     1       2.181  -0.105 -10.075  0.00  0.00    -0.126 OA
ATOM     25  O   UNL     1       0.075  -0.234 -10.114  0.00  0.00    -0.126 OA
ENDBRANCH   4  23
BRANCH   5  26
ATOM     26  N   UNL     1      -0.673  -2.480  -8.834  0.00  0.00    -0.335 N 
ATOM     27  H   UNL     1      -0.629  -2.138  -9.741  0.00  0.00    +0.147 HD
BRANCH  26  28
ATOM     28  C   UNL     1      -1.700  -3.458  -8.468  0.00  0.00    +0.098 C 
ATOM     29  C   UNL     1      -2.903  -2.733  -7.863  0.00  0.00    +0.033 C 
BRANCH  28  30
ATOM     30  C   UNL     1      -2.135  -4.213  -9.697  0.00  0.00    -0.028 A 
ATOM     31  C   UNL     1      -2.298  -3.546 -10.897  0.00  0.00    +0.005 A 
ATOM     32  C   UNL     1      -2.693  -4.239 -12.025  0.00  0.00    +0.000 A 
ATOM     33  C   UNL     1      -2.933  -5.599 -11.953  0.00  0.00    +0.000 A 
ATOM     34  C   UNL     1      -2.775  -6.265 -10.752  0.00  0.00    +0.000 A 
ATOM     35  C   UNL     1      -2.376  -5.573  -9.624  0.00  0.00    +0.005 A 
ENDBRANCH  28  30
ENDBRANCH  26  28
ENDBRANCH   5  26
TORSDOF 7
