REMARK  Name = ZINC11217549
REMARK  4 active torsions:
REMARK  status: ('A' for Active; 'I' for Inactive)
REMARK    1  A    between atoms: C_4  and  C_7
REMARK    2  A    between atoms: C_13  and  C_15
REMARK    3  A    between atoms: N_20  and  S_21
REMARK    4  A    between atoms: S_21  and  C_24
REMARK                            x       y       z     vdW  Elec       q    Type
REMARK                         _______ _______ _______ _____ _____    ______ ____
ROOT
ATOM      1  C   UNL     1      -1.305   2.116   0.020  0.00  0.00    +0.134 A 
ATOM      2  N   UNL     1      -2.547   1.647   0.017  0.00  0.00    -0.140 NA
ATOM      3  N   UNL     1      -3.529   2.440   0.032  0.00  0.00    -0.125 NA
ATOM      4  C   UNL     1      -3.368   3.754   0.038  0.00  0.00    +0.188 A 
ATOM      5  S   UNL     1      -1.633   3.875   0.031  0.00  0.00    -0.030 S 
ATOM      6  N   UNL     1      -4.325   4.761   0.048  0.00  0.00    -0.262 N 
ATOM      7  C   UNL     1      -5.635   4.447   0.053  0.00  0.00    +0.238 C 
ATOM      8  O   UNL     1      -5.979   3.284   0.048  0.00  0.00    -0.274 OA
ATOM      9  H   UNL     1      -4.049   5.691   0.051  0.00  0.00    +0.157 HD
ENDROOT
BRANCH   1  13
ATOM     10  C   UNL     1       2.396   0.034  -0.020  0.00  0.00    +0.000 A 
ATOM     11  C   UNL     1       1.208  -0.674  -0.013  0.00  0.00    +0.001 A 
ATOM     12  C   UNL     1       0.002  -0.004   0.002  0.00  0.00    +0.010 A 
ATOM     13  C   UNL     1      -0.017   1.391   0.010  0.00  0.00    +0.009 A 
ATOM     14  C   UNL     1       1.186   2.100   0.002  0.00  0.00    +0.010 A 
ATOM     15  C   UNL     1       2.385   1.417  -0.012  0.00  0.00    +0.001 A 
ENDBRANCH   1  13
BRANCH   7  16
ATOM     16  C   UNL     1      -6.673   5.540   0.063  0.00  0.00    +0.166 C 
ATOM     17  C   UNL     1      -6.549   6.393  -1.217  0.00  0.00    +0.031 C 
ATOM     18  C   UNL     1      -7.632   5.784  -2.146  0.00  0.00    +0.019 C 
ATOM     19  C   UNL     1      -8.742   5.416  -1.131  0.00  0.00    +0.110 C 
ATOM     20  N   UNL     1      -8.020   4.950   0.067  0.00  0.00    -0.165 NA
BRANCH  20  21
ATOM     21  S   UNL     1      -8.624   3.932   1.224  0.00  0.00    +0.062 S 
ATOM     22  O   UNL     1      -9.662   3.184   0.604  0.00  0.00    -0.153 OA
ATOM     23  O   UNL     1      -7.506   3.313   1.845  0.00  0.00    -0.153 OA
BRANCH  21  24
ATOM     24  C   UNL     1      -9.392   4.935   2.452  0.00  0.00    +0.106 A 
ATOM     25  C   UNL     1      -8.658   5.387   3.533  0.00  0.00    +0.029 A 
ATOM     26  C   UNL     1      -9.258   6.178   4.494  0.00  0.00    +0.017 A 
ATOM     27  C   UNL     1     -10.596   6.510   4.379  0.00  0.00    +0.018 A 
ATOM     28  C   UNL     1     -11.332   6.054   3.300  0.00  0.00    +0.017 A 
ATOM     29  C   UNL     1     -10.729   5.267   2.337  0.00  0.00    +0.029 A 
ATOM     30 BR   UNL     1     -11.420   7.586   5.698  0.00  0.00    -0.050 Br
ENDBRANCH  21  24
ENDBRANCH  20  21
ENDBRANCH   7  16
TORSDOF 4
