REMARK  Name = ZINC41547402
REMARK  6 active torsions:
REMARK  status: ('A' for Active; 'I' for Inactive)
REMARK    1  A    between atoms: C_1  and  C_2
REMARK    2  A    between atoms: C_6  and  C_8
REMARK    3  A    between atoms: C_8  and  N_9
REMARK    4  A    between atoms: C_15  and  C_17
REMARK    5  A    between atoms: C_17  and  C_29
REMARK    6  A    between atoms: C_23  and  C_28
REMARK                            x       y       z     vdW  Elec       q    Type
REMARK                         _______ _______ _______ _____ _____    ______ ____
ROOT
ATOM      1  N   UNL     1       1.440  -3.073   2.903  0.00  0.00    -0.265 N 
ATOM      2  C   UNL     1       1.979  -2.730   4.092  0.00  0.00    +0.110 A 
ATOM      3  C   UNL     1       3.277  -3.111   4.085  0.00  0.00    +0.065 A 
ATOM      4  C   UNL     1       3.543  -3.711   2.843  0.00  0.00    +0.147 A 
ATOM      5  N   UNL     1       2.437  -3.691   2.137  0.00  0.00    -0.156 NA
ATOM      6  N   UNL     1       4.773  -4.241   2.432  0.00  0.00    -0.265 N 
ATOM      7  C   UNL     1       5.835  -4.201   3.261  0.00  0.00    +0.271 C 
ATOM      8  O   UNL     1       5.726  -3.706   4.363  0.00  0.00    -0.270 OA
ATOM      9  H   UNL     1       4.860  -4.637   1.551  0.00  0.00    +0.156 HD
ENDROOT
BRANCH   7  10
ATOM     10  C   UNL     1       7.158  -4.772   2.818  0.00  0.00    +0.258 C 
ATOM     11  C   UNL     1       7.964  -5.167   4.030  0.00  0.00    +0.270 C 
ATOM     12  O   UNL     1       8.752  -4.385   4.518  0.00  0.00    -0.271 OA
ATOM     13  N   UNL     1       7.805  -6.394   4.569  0.00  0.00    -0.279 N 
ATOM     14  C   UNL     1       6.986  -7.326   3.917  0.00  0.00    +0.076 A 
ATOM     15  C   UNL     1       6.619  -8.504   4.548  0.00  0.00    +0.030 A 
ATOM     16  C   UNL     1       5.799  -9.407   3.897  0.00  0.00    -0.048 A 
ATOM     17  C   UNL     1       5.345  -9.138   2.619  0.00  0.00    +0.007 A 
ATOM     18  C   UNL     1       5.712  -7.966   1.982  0.00  0.00    +0.048 A 
ATOM     19  C   UNL     1       6.537  -7.060   2.626  0.00  0.00    +0.144 A 
ATOM     20  O   UNL     1       6.930  -5.919   1.997  0.00  0.00    -0.465 OA
ATOM     21  C   UNL     1       5.400 -10.689   4.582  0.00  0.00    +0.044 C 
ATOM     22  C   UNL     1       7.925  -3.717   2.018  0.00  0.00    +0.076 C 
ATOM     23  H   UNL     1       8.253  -6.628   5.397  0.00  0.00    +0.155 HD
ENDBRANCH   7  10
BRANCH   1  24
ATOM     24  C   UNL     1       0.054  -2.845   2.489  0.00  0.00    +0.178 C 
BRANCH  24  30
ATOM     25  C   UNL     1      -0.018   1.503   0.010  0.00  0.00    +0.044 C 
ATOM     26  C   UNL     1       0.002  -0.004   0.002  0.00  0.00    -0.050 A 
ATOM     27  C   UNL     1       0.006  -0.689  -1.199  0.00  0.00    +0.003 A 
ATOM     28  C   UNL     1       0.025  -2.071  -1.207  0.00  0.00    +0.001 A 
ATOM     29  C   UNL     1       0.040  -2.768  -0.013  0.00  0.00    +0.005 A 
ATOM     30  C   UNL     1       0.037  -2.084   1.188  0.00  0.00    -0.026 A 
ATOM     31  C   UNL     1       0.023  -0.702   1.195  0.00  0.00    +0.008 A 
ENDBRANCH  24  30
ENDBRANCH   1  24
TORSDOF 3
