REMARK  Name = ZINC12523908
REMARK  4 active torsions:
REMARK  status: ('A' for Active; 'I' for Inactive)
REMARK    1  A    between atoms: C_1  and  C_2
REMARK    2  A    between atoms: N_18  and  S_19
REMARK    3  A    between atoms: S_19  and  C_22
REMARK    4  A    between atoms: C_26  and  N_28
REMARK                            x       y       z     vdW  Elec       q    Type
REMARK                         _______ _______ _______ _____ _____    ______ ____
ROOT
ATOM      1  C   UNL     1       3.790  -4.808  -0.231  0.00  0.00    +0.045 C 
ATOM      2  C   UNL     1       2.622  -3.998  -0.730  0.00  0.00    -0.034 A 
ATOM      3  C   UNL     1       1.675  -4.573  -1.566  0.00  0.00    +0.006 A 
ATOM      4  C   UNL     1       0.614  -3.792  -2.003  0.00  0.00    +0.018 A 
ATOM      5  C   UNL     1       0.532  -2.477  -1.596  0.00  0.00    +0.093 A 
ATOM      6  N   UNL     1       1.454  -1.957  -0.795  0.00  0.00    -0.305 N 
ATOM      7  C   UNL     1       2.484  -2.675  -0.364  0.00  0.00    +0.096 A 
ATOM      8  C   UNL     1       1.343  -0.641  -0.407  0.00  0.00    +0.180 A 
ATOM      9  C   UNL     1       0.089  -0.134   0.015  0.00  0.00    +0.182 A 
ATOM     10  N   UNL     1      -0.029   1.124   0.389  0.00  0.00    -0.226 NA
ATOM     11  C   UNL     1       1.043   1.928   0.369  0.00  0.00    +0.091 A 
ATOM     12  C   UNL     1       0.942   3.272   0.763  0.00  0.00    +0.030 A 
ATOM     13  C   UNL     1       2.045   4.070   0.735  0.00  0.00    +0.002 A 
ATOM     14  C   UNL     1       3.278   3.572   0.320  0.00  0.00    +0.002 A 
ATOM     15  C   UNL     1       3.414   2.274  -0.069  0.00  0.00    +0.030 A 
ATOM     16  C   UNL     1       2.297   1.421  -0.053  0.00  0.00    +0.092 A 
ATOM     17  N   UNL     1       2.405   0.141  -0.430  0.00  0.00    -0.224 NA
ATOM     18  N   UNL     1      -1.018  -0.966   0.035  0.00  0.00    -0.197 N 
ATOM     19  H   UNL     1      -0.904  -1.927  -0.035  0.00  0.00    +0.175 HD
ENDROOT
BRANCH  18  20
ATOM     20  S   UNL     1      -2.536  -0.320   0.179  0.00  0.00    +0.074 S 
ATOM     21  O   UNL     1      -3.446  -1.411   0.142  0.00  0.00    -0.150 OA
ATOM     22  O   UNL     1      -2.487   0.595   1.265  0.00  0.00    -0.150 OA
BRANCH  20  23
ATOM     23  C   UNL     1      -2.835   0.635  -1.271  0.00  0.00    +0.111 A 
ATOM     24  C   UNL     1      -3.414   0.045  -2.380  0.00  0.00    +0.029 A 
ATOM     25  C   UNL     1      -3.649   0.795  -3.517  0.00  0.00    +0.004 A 
ATOM     26  C   UNL     1      -3.305   2.134  -3.546  0.00  0.00    +0.033 A 
ATOM     27  C   UNL     1      -2.727   2.723  -2.438  0.00  0.00    +0.128 A 
ATOM     28  C   UNL     1      -2.497   1.974  -1.298  0.00  0.00    +0.061 A 
BRANCH  27  29
ATOM     29  N   UNL     1      -2.360   4.156  -2.469  0.00  0.00    +0.056 N 
ATOM     30  O   UNL     1      -2.567   4.817  -3.471  0.00  0.00    -0.126 OA
ATOM     31  O   UNL     1      -1.850   4.676  -1.492  0.00  0.00    -0.126 OA
ENDBRANCH  27  29
ENDBRANCH  20  23
ENDBRANCH  18  20
TORSDOF 3
