REMARK  Name = ZINC00995162
REMARK  5 active torsions:
REMARK  status: ('A' for Active; 'I' for Inactive)
REMARK    1  A    between atoms: C_1  and  S_2
REMARK    2  A    between atoms: S_2  and  C_3
REMARK    3  A    between atoms: C_6  and  C_9
REMARK    4  A    between atoms: C_21  and  S_24
REMARK    5  A    between atoms: S_24  and  C_25
REMARK                            x       y       z     vdW  Elec       q    Type
REMARK                         _______ _______ _______ _____ _____    ______ ____
ROOT
ATOM      1  C   UNL     1       0.464  -0.693  -1.199  0.00  0.00    +0.294 C 
ATOM      2  N   UNL     1      -0.008  -0.028   0.011  0.00  0.00    -0.305 N 
ATOM      3  C   UNL     1      -0.046   1.369   0.039  0.00  0.00    +0.039 A 
ATOM      4  C   UNL     1      -1.246   2.057   0.058  0.00  0.00    +0.024 A 
ATOM      5  C   UNL     1      -1.247   3.439   0.069  0.00  0.00    +0.002 A 
ATOM      6  C   UNL     1      -0.054   4.142   0.058  0.00  0.00    +0.001 A 
ATOM      7  C   UNL     1       1.152   3.470   0.044  0.00  0.00    +0.012 A 
ATOM      8  C   UNL     1       1.168   2.081   0.042  0.00  0.00    +0.028 A 
ATOM      9  C   UNL     1       2.436   1.321   0.053  0.00  0.00    +0.156 A 
ATOM     10  C   UNL     1       2.615   0.247  -0.849  0.00  0.00    +0.248 A 
ATOM     11  N   UNL     1       3.751  -0.428  -0.816  0.00  0.00    -0.184 NA
ATOM     12  C   UNL     1       4.691  -0.077   0.058  0.00  0.00    +0.212 A 
ATOM     13  N   UNL     1       4.505   0.938   0.893  0.00  0.00    -0.122 NA
ATOM     14  N   UNL     1       3.412   1.620   0.896  0.00  0.00    -0.141 NA
ATOM     15  O   UNL     1       1.631  -0.070  -1.724  0.00  0.00    -0.449 OA
ATOM     16  H   UNL     1      -0.289  -0.545   0.782  0.00  0.00    +0.150 HD
ENDROOT
BRANCH   1  20
ATOM     17  C   UNL     1      -2.626  -0.567  -4.150  0.00  0.00    +0.008 A 
ATOM     18  C   UNL     1      -1.299  -0.391  -4.523  0.00  0.00    +0.015 A 
ATOM     19  C   UNL     1      -0.304  -0.432  -3.567  0.00  0.00    +0.010 A 
ATOM     20  C   UNL     1      -0.626  -0.648  -2.240  0.00  0.00    +0.011 A 
ATOM     21  C   UNL     1      -1.945  -0.829  -1.865  0.00  0.00    +0.010 A 
ATOM     22  C   UNL     1      -2.946  -0.783  -2.815  0.00  0.00    +0.015 A 
BRANCH  17  24
ATOM     23  C   UNL     1      -5.423  -0.789  -4.419  0.00  0.00    +0.090 C 
ATOM     24  S   UNL     1      -3.900  -0.515  -5.367  0.00  0.00    -0.129 S 
ENDBRANCH  17  24
ENDBRANCH   1  20
BRANCH  12  25
ATOM     25  S   UNL     1       6.207  -0.973   0.106  0.00  0.00    -0.088 S 
ATOM     26  C   UNL     1       7.058  -0.080   1.432  0.00  0.00    +0.093 C 
ENDBRANCH  12  25
TORSDOF 3
