REMARK  Name = ZINC40133254
REMARK  5 active torsions:
REMARK  status: ('A' for Active; 'I' for Inactive)
REMARK    1  A    between atoms: C_3  and  C_6
REMARK    2  A    between atoms: N_8  and  C_9
REMARK    3  A    between atoms: C_9  and  C_10
REMARK    4  A    between atoms: C_13  and  C_16
REMARK    5  A    between atoms: N_18  and  C_19
REMARK                            x       y       z     vdW  Elec       q    Type
REMARK                         _______ _______ _______ _____ _____    ______ ____
ROOT
ATOM      1  C   UNL     1       6.993  -0.059  -0.065  0.00  0.00    -0.030 A 
ATOM      2  C   UNL     1       7.405  -0.626   1.128  0.00  0.00    +0.006 A 
ATOM      3  C   UNL     1       8.216  -1.742   1.121  0.00  0.00    +0.013 A 
ATOM      4  C   UNL     1       8.621  -2.300  -0.093  0.00  0.00    +0.037 A 
ATOM      5  C   UNL     1       8.202  -1.723  -1.293  0.00  0.00    +0.013 A 
ATOM      6  C   UNL     1       7.386  -0.610  -1.272  0.00  0.00    +0.006 A 
ENDROOT
BRANCH   4   7
ATOM      7  C   UNL     1       9.490  -3.495  -0.107  0.00  0.00    +0.244 C 
ATOM      8  O   UNL     1       9.854  -3.995   0.939  0.00  0.00    -0.270 OA
ATOM      9  N   UNL     1       9.880  -4.031  -1.281  0.00  0.00    -0.308 N 
ATOM     10  H   UNL     1       9.589  -3.632  -2.116  0.00  0.00    +0.149 HD
BRANCH   9  11
ATOM     11  C   UNL     1      10.741  -5.216  -1.296  0.00  0.00    +0.077 C 
ATOM     12  C   UNL     1       9.876  -6.503  -1.226  0.00  0.00    +0.026 C 
ATOM     13  C   UNL     1      10.477  -7.374  -2.406  0.00  0.00    -0.006 C 
ATOM     14  C   UNL     1      10.546  -6.197  -3.469  0.00  0.00    +0.009 C 
ATOM     15  C   UNL     1      11.527  -5.281  -2.621  0.00  0.00    +0.013 C 
ATOM     16  C   UNL     1      12.681  -6.271  -2.553  0.00  0.00    -0.003 C 
ATOM     17  C   UNL     1      11.888  -7.504  -1.919  0.00  0.00    -0.004 C 
ATOM     18  C   UNL     1      12.883  -8.557  -1.685  0.00  0.00    +0.004 C 
ATOM     19  C   UNL     1      14.157  -7.744  -1.273  0.00  0.00    +0.001 C 
ATOM     20  C   UNL     1      13.787  -6.168  -1.510  0.00  0.00    +0.004 C 
ENDBRANCH   9  11
ENDBRANCH   4   7
BRANCH   1  21
ATOM     21  C   UNL     1       6.107   1.160  -0.050  0.00  0.00    +0.139 C 
BRANCH  21  24
ATOM     22  C   UNL     1       3.725   1.670  -0.025  0.00  0.00    +0.251 C 
ATOM     23  O   UNL     1       4.008   2.853  -0.021  0.00  0.00    -0.270 OA
ATOM     24  N   UNL     1       4.703   0.743  -0.039  0.00  0.00    -0.307 N 
ATOM     25  H   UNL     1       4.477  -0.201  -0.042  0.00  0.00    +0.149 HD
BRANCH  22  28
ATOM     26  C   UNL     1      -0.016   1.352   0.009  0.00  0.00    +0.008 A 
ATOM     27  C   UNL     1       1.175   2.036   0.002  0.00  0.00    +0.021 A 
ATOM     28  C   UNL     1       2.320   1.253  -0.013  0.00  0.00    +0.074 A 
ATOM     29  S   UNL     1       1.636  -0.394  -0.016  0.00  0.00    -0.092 S 
ATOM     30  C   UNL     1       0.002  -0.004   0.002  0.00  0.00    +0.046 A 
ENDBRANCH  22  28
ENDBRANCH  21  24
ENDBRANCH   1  21
TORSDOF 5
