REMARK  Name = ZINC35378969
REMARK  7 active torsions:
REMARK  status: ('A' for Active; 'I' for Inactive)
REMARK    1  A    between atoms: C_1  and  C_2
REMARK    2  A    between atoms: C_7  and  S_8
REMARK    3  A    between atoms: S_8  and  N_11
REMARK    4  A    between atoms: C_15  and  C_18
REMARK    5  A    between atoms: N_20  and  C_21
REMARK    6  A    between atoms: C_21  and  C_22
REMARK    7  A    between atoms: C_22  and  N_23
REMARK                            x       y       z     vdW  Elec       q    Type
REMARK                         _______ _______ _______ _____ _____    ______ ____
ROOT
ATOM      1  N   UNL     1       1.449   1.022   2.801  0.00  0.00    -0.176 NA
ATOM      2  C   UNL     1       2.647   0.415   3.396  0.00  0.00    +0.109 C 
ATOM      3  C   UNL     1       3.188   1.352   4.481  0.00  0.00    +0.018 C 
ATOM      4  C   UNL     1       3.420   2.741   3.881  0.00  0.00    +0.015 C 
ATOM      5  C   UNL     1       2.091   3.306   3.372  0.00  0.00    +0.091 C 
ATOM      6  C   UNL     1       1.540   2.389   2.269  0.00  0.00    +0.122 C 
ENDROOT
BRANCH   5   7
ATOM      7  C   UNL     1       2.315   4.687   2.811  0.00  0.00    +0.217 C 
ATOM      8  O   UNL     1       2.055   4.919   1.649  0.00  0.00    -0.275 OA
ATOM      9  N   UNL     1       2.803   5.664   3.600  0.00  0.00    -0.317 N 
ATOM     10  H   UNL     1       3.011   5.479   4.529  0.00  0.00    +0.149 HD
BRANCH   9  11
ATOM     11  C   UNL     1       3.020   7.006   3.055  0.00  0.00    +0.085 C 
BRANCH  11  12
ATOM     12  C   UNL     1       3.576   7.918   4.150  0.00  0.00    -0.059 C 
BRANCH  12  13
ATOM     13  N   UNL     1       3.793   9.264   3.603  0.00  0.00    +0.384 N 
ATOM     14  C   UNL     1       4.428  10.113   4.623  0.00  0.00    -0.074 C 
ATOM     15  C   UNL     1       4.922  11.395   3.952  0.00  0.00    +0.017 C 
ATOM     16  C   UNL     1       3.807  12.011   3.146  0.00  0.00    -0.048 A 
ATOM     17  C   UNL     1       3.928  13.332   2.745  0.00  0.00    +0.004 A 
ATOM     18  C   UNL     1       2.928  13.929   2.003  0.00  0.00    +0.000 A 
ATOM     19  C   UNL     1       1.803  13.205   1.657  0.00  0.00    +0.000 A 
ATOM     20  C   UNL     1       1.681  11.889   2.057  0.00  0.00    +0.002 A 
ATOM     21  C   UNL     1       2.684  11.289   2.804  0.00  0.00    -0.061 A 
ATOM     22  C   UNL     1       2.506   9.854   3.225  0.00  0.00    -0.043 C 
ATOM     23  H   UNL     1       4.389   9.206   2.792  0.00  0.00    -0.081 HD
ENDBRANCH  12  13
ENDBRANCH  11  12
ENDBRANCH   9  11
ENDBRANCH   5   7
BRANCH   1  24
ATOM     24  S   UNL     1       0.026   0.179   2.724  0.00  0.00    +0.061 S 
ATOM     25  O   UNL     1      -1.013   1.145   2.639  0.00  0.00    -0.153 OA
ATOM     26  O   UNL     1       0.076  -0.798   3.754  0.00  0.00    -0.153 OA
BRANCH  24  33
ATOM     27  C   UNL     1      -0.018   1.503   0.010  0.00  0.00    +0.046 C 
ATOM     28  C   UNL     1       0.002  -0.004   0.002  0.00  0.00    -0.022 A 
ATOM     29  C   UNL     1       0.006  -0.687  -1.201  0.00  0.00    +0.032 A 
ATOM     30  C   UNL     1       0.024  -2.071  -1.206  0.00  0.00    +0.076 A 
ATOM     31  C   UNL     1       0.039  -2.773  -0.002  0.00  0.00    +0.144 A 
ATOM     32  C   UNL     1       0.037  -2.083   1.198  0.00  0.00    +0.076 A 
ATOM     33  C   UNL     1       0.023  -0.700   1.196  0.00  0.00    +0.112 A 
ATOM     34  O   UNL     1       0.053  -4.133  -0.019  0.00  0.00    -0.481 OA
ATOM     35  C   UNL     1      -0.637  -4.769  -1.098  0.00  0.00    +0.325 C 
ATOM     36  C   UNL     1      -0.271  -4.101  -2.398  0.00  0.00    +0.255 C 
ATOM     37  O   UNL     1      -0.244  -4.744  -3.427  0.00  0.00    -0.272 OA
ATOM     38  N   UNL     1       0.028  -2.784  -2.414  0.00  0.00    -0.280 N 
ATOM     39  H   UNL     1       0.241  -2.337  -3.249  0.00  0.00    +0.155 HD
ENDBRANCH  24  33
ENDBRANCH   1  24
TORSDOF 6
