REMARK  Name = ZINC67648949
REMARK  4 active torsions:
REMARK  status: ('A' for Active; 'I' for Inactive)
REMARK    1  A    between atoms: C_1  and  C_2
REMARK    2  A    between atoms: C_5  and  C_8
REMARK    3  A    between atoms: C_8  and  O_29
REMARK    4  A    between atoms: C_18  and  C_20
REMARK                            x       y       z     vdW  Elec       q    Type
REMARK                         _______ _______ _______ _____ _____    ______ ____
ROOT
ATOM      1  C   UNL     1       0.115  -4.228   0.213  0.00  0.00    +0.110 C 
ATOM      2  C   UNL     1      -1.192  -4.691  -0.434  0.00  0.00    +0.060 C 
ATOM      3  C   UNL     1      -1.211  -6.221  -0.501  0.00  0.00    +0.109 C 
ATOM      4  N   UNL     1      -0.985  -6.756   0.849  0.00  0.00    -0.315 N 
ATOM      5  C   UNL     1       0.197  -6.306   1.597  0.00  0.00    +0.109 C 
ATOM      6  C   UNL     1       0.200  -4.775   1.640  0.00  0.00    +0.060 C 
ATOM      7  C   UNL     1      -1.868  -7.667   1.405  0.00  0.00    +0.129 A 
ATOM      8  C   UNL     1      -1.674  -9.039   1.232  0.00  0.00    +0.014 A 
ATOM      9  C   UNL     1      -2.578  -9.913   1.803  0.00  0.00    +0.050 A 
ATOM     10  N   UNL     1      -3.598  -9.426   2.495  0.00  0.00    -0.232 NA
ATOM     11  C   UNL     1      -3.759  -8.119   2.644  0.00  0.00    +0.162 A 
ATOM     12  N   UNL     1      -2.910  -7.248   2.115  0.00  0.00    -0.212 NA
ATOM     13  C   UNL     1      -2.177 -11.338   1.492  0.00  0.00    +0.056 C 
ATOM     14  C   UNL     1      -1.185 -11.231   0.313  0.00  0.00    +0.011 C 
ATOM     15  C   UNL     1      -0.604  -9.812   0.498  0.00  0.00    +0.041 C 
ENDROOT
BRANCH   1  20
ATOM     16  C   UNL     1       0.263   1.498   0.449  0.00  0.00    +0.045 C 
ATOM     17  C   UNL     1       0.221  -0.005   0.349  0.00  0.00    -0.032 A 
ATOM     18  C   UNL     1       0.122  -0.624  -0.888  0.00  0.00    +0.007 A 
ATOM     19  C   UNL     1       0.087  -2.009  -0.933  0.00  0.00    +0.026 A 
ATOM     20  C   UNL     1       0.152  -2.722   0.249  0.00  0.00    +0.073 A 
ATOM     21  N   UNL     1       0.245  -2.100   1.409  0.00  0.00    -0.257 NA
ATOM     22  C   UNL     1       0.287  -0.784   1.488  0.00  0.00    +0.114 A 
ENDBRANCH   1  20
BRANCH  11  23
ATOM     23  C   UNL     1      -4.914  -7.617   3.426  0.00  0.00    +0.019 A 
ATOM     24  C   UNL     1      -5.106  -6.247   3.591  0.00  0.00    +0.011 A 
ATOM     25  C   UNL     1      -6.184  -5.785   4.319  0.00  0.00    +0.001 A 
ATOM     26  C   UNL     1      -7.072  -6.681   4.886  0.00  0.00    +0.000 A 
ATOM     27  C   UNL     1      -6.887  -8.043   4.726  0.00  0.00    +0.001 A 
ATOM     28  C   UNL     1      -5.816  -8.515   3.995  0.00  0.00    +0.011 A 
ENDBRANCH  11  23
BRANCH   1  29
ATOM     29  O   UNL     1       1.222  -4.714  -0.549  0.00  0.00    -0.382 OA
ATOM     30  H   UNL     1       1.232  -4.406  -1.466  0.00  0.00    +0.211 HD
ENDBRANCH   1  29
TORSDOF 3
