REMARK  Name = ZINC06507662
REMARK  5 active torsions:
REMARK  status: ('A' for Active; 'I' for Inactive)
REMARK    1  A    between atoms: C_4  and  C_7
REMARK    2  A    between atoms: C_7  and  C_8
REMARK    3  A    between atoms: C_7  and  C_14
REMARK    4  A    between atoms: N_16  and  N_17
REMARK    5  A    between atoms: C_18  and  C_20
REMARK                            x       y       z     vdW  Elec       q    Type
REMARK                         _______ _______ _______ _____ _____    ______ ____
ROOT
ATOM      1  C   UNL     1      -3.112   7.890  -0.228  0.00  0.00    +0.241 C 
ATOM      2  O   UNL     1      -1.908   7.760  -0.296  0.00  0.00    -0.273 OA
ATOM      3  N   UNL     1      -3.918   6.829  -0.433  0.00  0.00    -0.233 N 
ATOM      4  H   UNL     1      -4.881   6.934  -0.379  0.00  0.00    +0.173 HD
ENDROOT
BRANCH   3   5
ATOM      5  N   UNL     1      -3.364   5.576  -0.725  0.00  0.00    -0.230 N 
ATOM      6  C   UNL     1      -4.170   4.515  -0.930  0.00  0.00    +0.267 C 
ATOM      7  O   UNL     1      -5.378   4.646  -0.862  0.00  0.00    -0.268 OA
ATOM      8  H   UNL     1      -2.402   5.471  -0.779  0.00  0.00    +0.173 HD
BRANCH   6   9
ATOM      9  C   UNL     1      -3.591   3.203  -1.236  0.00  0.00    +0.076 A 
ATOM     10  C   UNL     1      -4.232   2.003  -1.483  0.00  0.00    +0.024 A 
ATOM     11  C   UNL     1      -3.453   0.888  -1.746  0.00  0.00    -0.036 A 
ATOM     12  C   UNL     1      -2.100   1.070  -1.750  0.00  0.00    -0.006 A 
ATOM     13  S   UNL     1      -1.875   2.740  -1.393  0.00  0.00    -0.088 S 
ATOM     14  C   UNL     1      -1.050   0.033  -2.009  0.00  0.00    +0.043 C 
ATOM     15  C   UNL     1      -1.703  -1.353  -1.905  0.00  0.00    +0.005 C 
ATOM     16  C   UNL     1      -2.997  -1.351  -2.722  0.00  0.00    +0.005 C 
ATOM     17  C   UNL     1      -4.051  -0.488  -2.027  0.00  0.00    +0.036 C 
ENDBRANCH   6   9
ENDBRANCH   3   5
BRANCH   1  18
ATOM     18  C   UNL     1      -3.708   9.239   0.086  0.00  0.00    +0.136 C 
BRANCH  18  22
ATOM     19  C   UNL     1      -6.007   8.978   3.677  0.00  0.00    +0.000 A 
ATOM     20  C   UNL     1      -6.564   9.529   2.538  0.00  0.00    +0.000 A 
ATOM     21  C   UNL     1      -5.819   9.614   1.376  0.00  0.00    +0.005 A 
ATOM     22  C   UNL     1      -4.519   9.147   1.353  0.00  0.00    -0.031 A 
ATOM     23  C   UNL     1      -3.963   8.591   2.491  0.00  0.00    +0.005 A 
ATOM     24  C   UNL     1      -4.706   8.511   3.654  0.00  0.00    +0.000 A 
ENDBRANCH  18  22
BRANCH  18  25
ATOM     25  C   UNL     1      -2.601  10.246   0.270  0.00  0.00    -0.031 A 
ATOM     26  C   UNL     1      -1.582   9.996   1.170  0.00  0.00    +0.005 A 
ATOM     27  C   UNL     1      -0.565  10.918   1.335  0.00  0.00    +0.000 A 
ATOM     28  C   UNL     1      -0.572  12.093   0.607  0.00  0.00    +0.000 A 
ATOM     29  C   UNL     1      -1.595  12.345  -0.289  0.00  0.00    +0.000 A 
ATOM     30  C   UNL     1      -2.609  11.421  -0.458  0.00  0.00    +0.005 A 
ENDBRANCH  18  25
ENDBRANCH   1  18
TORSDOF 5
