REMARK  Name = ZINC03584967
REMARK  15 active torsions:
REMARK  status: ('A' for Active; 'I' for Inactive)
REMARK    1  A    between atoms: C_1  and  C_2
REMARK    2  A    between atoms: C_2  and  C_3
REMARK    3  A    between atoms: C_2  and  C_4
REMARK    4  A    between atoms: C_4  and  N_5
REMARK    5  A    between atoms: C_6  and  N_32
REMARK    6  A    between atoms: C_7  and  N_14
REMARK    7  A    between atoms: N_14  and  C_15
REMARK    8  A    between atoms: C_15  and  C_16
REMARK    9  A    between atoms: C_16  and  C_17
REMARK   10  A    between atoms: C_16  and  C_18
REMARK   11  A    between atoms: C_19  and  C_21
REMARK   12  A    between atoms: C_21  and  N_63
REMARK   13  A    between atoms: C_22  and  N_63
REMARK   14  A    between atoms: C_23  and  C_24
REMARK   15  A    between atoms: C_23  and  N_63
REMARK                            x       y       z     vdW  Elec       q    Type
REMARK                         _______ _______ _______ _____ _____    ______ ____
ROOT
ATOM      1  N   UNL     1       1.337   2.200  -0.249  0.00  0.00    -0.266 N 
ATOM      2  C   UNL     1       0.124   1.616  -0.157  0.00  0.00    +0.203 C 
ATOM      3  O   UNL     1       0.038   0.435   0.108  0.00  0.00    -0.277 OA
ENDROOT
BRANCH   1   6
ATOM      4  N   UNL     1       4.434   1.100   1.396  0.00  0.00    -0.280 N 
ATOM      5  C   UNL     1       3.307   1.839   1.117  0.00  0.00    +0.127 A 
ATOM      6  C   UNL     1       2.500   1.464   0.062  0.00  0.00    +0.140 A 
ATOM      7  C   UNL     1       2.853   0.331  -0.694  0.00  0.00    +0.277 A 
ATOM      8  O   UNL     1       2.155  -0.026  -1.629  0.00  0.00    -0.266 OA
ATOM      9  N   UNL     1       3.971  -0.354  -0.383  0.00  0.00    -0.273 N 
ATOM     10  H   UNL     1       4.227  -1.155  -0.925  0.00  0.00    +0.173 HD
ATOM     11  C   UNL     1       4.745   0.025   0.649  0.00  0.00    +0.331 A 
ATOM     12  O   UNL     1       5.746  -0.614   0.911  0.00  0.00    -0.246 OA
BRANCH   5  13
ATOM     13  N   UNL     1       2.989   2.937   1.879  0.00  0.00    -0.343 N 
ATOM     14  H   UNL     1       2.150   3.401   1.735  0.00  0.00    +0.144 HD
ATOM     15  H   UNL     1       3.605   3.248   2.562  0.00  0.00    +0.144 HD
ENDBRANCH   5  13
BRANCH   4  16
ATOM     16  C   UNL     1       5.300   1.487   2.513  0.00  0.00    +0.131 C 
BRANCH  16  18
ATOM     17  C   UNL     1       5.020  -0.729   3.634  0.00  0.00    +0.009 C 
ATOM     18  C   UNL     1       4.832   0.782   3.788  0.00  0.00    +0.003 C 
ATOM     19  C   UNL     1       5.656   1.280   4.977  0.00  0.00    +0.009 C 
ENDBRANCH  16  18
ENDBRANCH   4  16
ENDBRANCH   1   6
BRANCH   1  20
ATOM     20  C   UNL     1       1.447   3.599  -0.671  0.00  0.00    +0.117 C 
BRANCH  20  21
ATOM     21  C   UNL     1       1.440   3.671  -2.200  0.00  0.00    +0.001 C 
ATOM     22  C   UNL     1       1.400   5.136  -2.640  0.00  0.00    +0.009 C 
ATOM     23  C   UNL     1       2.706   3.008  -2.747  0.00  0.00    +0.009 C 
ENDBRANCH  20  21
ENDBRANCH   1  20
BRANCH   2  24
ATOM     24  C   UNL     1      -1.123   2.430  -0.388  0.00  0.00    +0.019 C 
BRANCH  24  26
ATOM     25  C   UNL     1      -2.370   1.267   1.331  0.00  0.00    -0.095 C 
ATOM     26  N   UNL     1      -2.303   1.583  -0.111  0.00  0.00    +0.386 N 
ATOM     27  H   UNL     1      -2.217   0.708  -0.641  0.00  0.00    -0.081 HD
BRANCH  26  28
ATOM     28  C   UNL     1      -3.535   2.281  -0.534  0.00  0.00    -0.041 C 
BRANCH  28  29
ATOM     29  C   UNL     1      -4.692   1.319  -0.447  0.00  0.00    -0.044 A 
ATOM     30  C   UNL     1      -5.615   1.438   0.575  0.00  0.00    +0.003 A 
ATOM     31  C   UNL     1      -6.676   0.556   0.656  0.00  0.00    +0.002 A 
ATOM     32  C   UNL     1      -6.816  -0.446  -0.287  0.00  0.00    +0.021 A 
ATOM     33  C   UNL     1      -5.894  -0.566  -1.310  0.00  0.00    +0.059 A 
ATOM     34  C   UNL     1      -4.834   0.322  -1.395  0.00  0.00    +0.061 A 
ATOM     35 CL   UNL     1      -3.680   0.177  -2.683  0.00  0.00    -0.082 Cl
ATOM     36 CL   UNL     1      -6.069  -1.824  -2.494  0.00  0.00    -0.082 Cl
ENDBRANCH  28  29
ENDBRANCH  26  28
ENDBRANCH  24  26
ENDBRANCH   2  24
TORSDOF 10
