REMARK  Name = ZINC62275523
REMARK  5 active torsions:
REMARK  status: ('A' for Active; 'I' for Inactive)
REMARK    1  A    between atoms: C_1  and  C_2
REMARK    2  A    between atoms: C_2  and  C_3
REMARK    3  A    between atoms: C_9  and  C_11
REMARK    4  A    between atoms: C_11  and  C_13
REMARK    5  A    between atoms: C_11  and  C_14
REMARK                            x       y       z     vdW  Elec       q    Type
REMARK                         _______ _______ _______ _____ _____    ______ ____
ROOT
ATOM      1  C   UNL     1       0.685  -0.464  -0.618  0.00  0.00    +0.076 C 
ATOM      2  C   UNL     1       0.598  -1.889  -0.032  0.00  0.00    +0.024 C 
ATOM      3  C   UNL     1       1.966  -2.508  -0.422  0.00  0.00    +0.021 C 
ATOM      4  C   UNL     1       2.909  -1.286  -0.296  0.00  0.00    +0.108 C 
ATOM      5  N   UNL     1       2.110  -0.141  -0.780  0.00  0.00    -0.298 N 
ATOM      6  C   UNL     1       2.603   1.007  -1.286  0.00  0.00    +0.219 C 
ATOM      7  O   UNL     1       1.849   1.899  -1.612  0.00  0.00    -0.275 OA
ENDROOT
BRANCH   1   9
ATOM      8  C   UNL     1      -0.013   1.916  -0.315  0.00  0.00    +0.006 C 
ATOM      9  C   UNL     1       0.031   0.534   0.340  0.00  0.00    +0.019 C 
ENDBRANCH   1   9
BRANCH   6  10
ATOM     10  C   UNL     1       4.091   1.182  -1.447  0.00  0.00    +0.075 C 
ATOM     11  C   UNL     1       4.544   0.525  -2.752  0.00  0.00    +0.017 C 
BRANCH  10  12
ATOM     12  C   UNL     1       4.428   2.674  -1.484  0.00  0.00    +0.001 C 
ATOM     13  C   UNL     1       5.518   3.176  -0.535  0.00  0.00    +0.004 C 
ATOM     14  C   UNL     1       4.051   3.514  -0.261  0.00  0.00    +0.004 C 
ENDBRANCH  10  12
ENDBRANCH   6  10
TORSDOF 3
