REMARK  Name = ZINC20410725
REMARK  10 active torsions:
REMARK  status: ('A' for Active; 'I' for Inactive)
REMARK    1  A    between atoms: C_1  and  C_2
REMARK    2  A    between atoms: C_2  and  C_3
REMARK    3  A    between atoms: C_2  and  C_4
REMARK    4  A    between atoms: C_7  and  N_10
REMARK    5  A    between atoms: C_14  and  N_15
REMARK    6  A    between atoms: N_15  and  C_16
REMARK    7  A    between atoms: C_16  and  C_17
REMARK    8  A    between atoms: C_24  and  O_25
REMARK    9  A    between atoms: O_25  and  C_26
REMARK   10  A    between atoms: N_32  and  C_33
REMARK                            x       y       z     vdW  Elec       q    Type
REMARK                         _______ _______ _______ _____ _____    ______ ____
ROOT
ATOM      1  N   UNL     1      -4.719  -2.959   0.374  0.00  0.00    -0.217 N 
ATOM      2  C   UNL     1      -5.312  -3.421  -0.745  0.00  0.00    +0.263 C 
ATOM      3  O   UNL     1      -4.663  -3.648  -1.748  0.00  0.00    -0.269 OA
ATOM      4  C   UNL     1      -6.769  -3.645  -0.720  0.00  0.00    +0.113 C 
ATOM      5  C   UNL     1      -7.445  -4.117  -1.829  0.00  0.00    +0.086 C 
ATOM      6  C   UNL     1      -7.473  -3.343   0.539  0.00  0.00    +0.256 C 
ATOM      7  O   UNL     1      -8.675  -3.502   0.637  0.00  0.00    -0.270 OA
ATOM      8  N   UNL     1      -6.748  -2.885   1.581  0.00  0.00    -0.263 N 
ATOM      9  C   UNL     1      -5.422  -2.710   1.488  0.00  0.00    +0.150 C 
ATOM     10  S   UNL     1      -4.583  -2.131   2.864  0.00  0.00    -0.018 S 
ATOM     11  H   UNL     1      -7.195  -2.681   2.417  0.00  0.00    +0.157 HD
ENDROOT
BRANCH   1  15
ATOM     12  C   UNL     1      -0.603  -2.306   0.375  0.00  0.00    -0.045 A 
ATOM     13  C   UNL     1      -1.114  -3.486   0.883  0.00  0.00    +0.006 A 
ATOM     14  C   UNL     1      -2.478  -3.705   0.884  0.00  0.00    +0.024 A 
ATOM     15  C   UNL     1      -3.335  -2.739   0.375  0.00  0.00    +0.043 A 
ATOM     16  C   UNL     1      -2.819  -1.555  -0.135  0.00  0.00    +0.024 A 
ATOM     17  C   UNL     1      -1.454  -1.340  -0.128  0.00  0.00    +0.006 A 
BRANCH  12  19
ATOM     18  C   UNL     1       1.410  -2.119   1.811  0.00  0.00    +0.012 C 
ATOM     19  C   UNL     1       0.886  -2.070   0.374  0.00  0.00    +0.013 C 
ATOM     20  C   UNL     1       1.574  -3.155  -0.457  0.00  0.00    +0.012 C 
ENDBRANCH  12  19
ENDBRANCH   1  15
BRANCH   5  21
ATOM     21  N   UNL     1      -8.784  -4.272  -1.787  0.00  0.00    -0.347 N 
ATOM     22  H   UNL     1      -9.281  -3.986  -1.004  0.00  0.00    +0.146 HD
BRANCH  21  23
ATOM     23  C   UNL     1      -9.489  -4.870  -2.923  0.00  0.00    +0.124 C 
BRANCH  23  24
ATOM     24  C   UNL     1     -10.967  -5.047  -2.571  0.00  0.00    +0.107 C 
ATOM     25  C   UNL     1     -11.091  -5.976  -1.392  0.00  0.00    +0.020 A 
ATOM     26  C   UNL     1     -11.975  -5.730  -0.362  0.00  0.00    -0.034 A 
ATOM     27  C   UNL     1     -12.061  -6.615   0.702  0.00  0.00    +0.053 A 
ATOM     28  C   UNL     1     -11.262  -7.745   0.744  0.00  0.00    +0.170 A 
ATOM     29  C   UNL     1     -10.366  -7.994  -0.290  0.00  0.00    +0.208 A 
ATOM     30  C   UNL     1     -10.284  -7.108  -1.356  0.00  0.00    +0.170 A 
ATOM     31  O   UNL     1      -9.699  -9.155  -0.021  0.00  0.00    -0.449 OA
ATOM     32  C   UNL     1      -9.904  -9.399   1.384  0.00  0.00    +0.467 C 
ATOM     33  O   UNL     1     -11.159  -8.750   1.662  0.00  0.00    -0.452 OA
ATOM     34  C   UNL     1     -12.858  -4.509  -0.353  0.00  0.00    +0.051 C 
ATOM     35  C   UNL     1     -12.923  -3.901  -1.754  0.00  0.00    +0.089 C 
ATOM     36  N   UNL     1     -11.549  -3.739  -2.253  0.00  0.00    -0.297 NA
ATOM     37  C   UNL     1     -11.519  -2.851  -3.423  0.00  0.00    +0.105 C 
BRANCH  30  38
ATOM     38  O   UNL     1      -9.410  -7.349  -2.370  0.00  0.00    -0.491 OA
ATOM     39  C   UNL     1      -9.858  -8.207  -3.422  0.00  0.00    +0.277 C 
ENDBRANCH  30  38
ENDBRANCH  23  24
ENDBRANCH  21  23
ENDBRANCH   5  21
TORSDOF 6
