REMARK  Name = ZINC35513315
REMARK  6 active torsions:
REMARK  status: ('A' for Active; 'I' for Inactive)
REMARK    1  A    between atoms: C_1  and  C_2
REMARK    2  A    between atoms: C_3  and  C_33
REMARK    3  A    between atoms: C_8  and  C_24
REMARK    4  A    between atoms: C_28  and  N_30
REMARK    5  A    between atoms: C_33  and  O_35
REMARK    6  A    between atoms: O_35  and  C_36
REMARK                            x       y       z     vdW  Elec       q    Type
REMARK                         _______ _______ _______ _____ _____    ______ ____
ROOT
ATOM      1  C   UNL     1      -0.018   1.503   0.010  0.00  0.00    +0.067 C 
ATOM      2  C   UNL     1       0.002  -0.004   0.002  0.00  0.00    +0.062 A 
ATOM      3  C   UNL     1       0.006  -0.730  -1.182  0.00  0.00    +0.120 A 
ATOM      4  S   UNL     1       0.032  -2.398  -0.545  0.00  0.00    -0.045 S 
ATOM      5  C   UNL     1       0.035  -2.021   1.095  0.00  0.00    +0.169 A 
ATOM      6  N   UNL     1       0.022  -0.700   1.110  0.00  0.00    -0.229 NA
ATOM      7  N   UNL     1       0.051  -2.888   2.172  0.00  0.00    -0.232 N 
ATOM      8  C   UNL     1       0.077  -4.357   2.099  0.00  0.00    +0.151 C 
ATOM      9  C   UNL     1       0.086  -4.835   3.513  0.00  0.00    +0.072 A 
ATOM     10  C   UNL     1       0.100  -6.189   4.076  0.00  0.00    +0.199 A 
ATOM     11  O   UNL     1       0.283  -7.189   3.404  0.00  0.00    -0.287 OA
ATOM     12  C   UNL     1      -0.131  -6.226   5.542  0.00  0.00    +0.067 A 
ATOM     13  C   UNL     1      -0.345  -7.442   6.192  0.00  0.00    +0.053 A 
ATOM     14  C   UNL     1      -0.563  -7.457   7.554  0.00  0.00    +0.124 A 
ATOM     15  C   UNL     1      -0.570  -6.266   8.271  0.00  0.00    +0.042 A 
ATOM     16  C   UNL     1      -0.359  -5.062   7.638  0.00  0.00    +0.050 A 
ATOM     17  C   UNL     1      -0.133  -5.021   6.263  0.00  0.00    +0.140 A 
ATOM     18  O   UNL     1       0.082  -3.824   5.669  0.00  0.00    -0.450 OA
ATOM     19  C   UNL     1       0.072  -3.736   4.324  0.00  0.00    +0.199 A 
ATOM     20  C   UNL     1       0.053  -2.534   3.474  0.00  0.00    +0.289 C 
ATOM     21  O   UNL     1       0.039  -1.391   3.884  0.00  0.00    -0.266 OA
ATOM     22  F   UNL     1      -0.770  -8.630   8.191  0.00  0.00    -0.205 F 
ENDROOT
BRANCH   8  23
ATOM     23  C   UNL     1      -1.150  -4.864   1.385  0.00  0.00    -0.020 A 
ATOM     24  C   UNL     1      -2.372  -4.251   1.590  0.00  0.00    +0.006 A 
ATOM     25  C   UNL     1      -3.497  -4.715   0.935  0.00  0.00    +0.003 A 
ATOM     26  C   UNL     1      -3.400  -5.792   0.074  0.00  0.00    +0.033 A 
ATOM     27  C   UNL     1      -2.178  -6.405  -0.132  0.00  0.00    +0.127 A 
ATOM     28  C   UNL     1      -1.052  -5.938   0.520  0.00  0.00    +0.038 A 
BRANCH  27  29
ATOM     29  N   UNL     1      -2.075  -7.559  -1.054  0.00  0.00    +0.056 N 
ATOM     30  O   UNL     1      -3.059  -7.965  -1.626  0.00  0.00    -0.126 OA
ATOM     31  O   UNL     1      -1.006  -8.094  -1.234  0.00  0.00    -0.126 OA
ENDBRANCH  27  29
ENDBRANCH   8  23
BRANCH   3  32
ATOM     32  C   UNL     1      -0.008  -0.260  -2.566  0.00  0.00    +0.347 C 
ATOM     33  O   UNL     1      -0.025   0.934  -2.803  0.00  0.00    -0.244 OA
BRANCH  32  34
ATOM     34  O   UNL     1      -0.000  -1.149  -3.581  0.00  0.00    -0.464 OA
ATOM     35  C   UNL     1      -0.015  -0.619  -4.908  0.00  0.00    +0.280 C 
ENDBRANCH  32  34
ENDBRANCH   3  32
TORSDOF 4
