REMARK  Name = ZINC39666450
REMARK  7 active torsions:
REMARK  status: ('A' for Active; 'I' for Inactive)
REMARK    1  A    between atoms: C_1  and  C_2
REMARK    2  A    between atoms: C_2  and  C_4
REMARK    3  A    between atoms: C_2  and  O_28
REMARK    4  A    between atoms: C_4  and  N_5
REMARK    5  A    between atoms: C_6  and  C_8
REMARK    6  A    between atoms: C_19  and  C_21
REMARK    7  A    between atoms: O_28  and  C_29
REMARK                            x       y       z     vdW  Elec       q    Type
REMARK                         _______ _______ _______ _____ _____    ______ ____
ROOT
ATOM      1  C   UNL     1       2.835  -2.181   3.168  0.00  0.00    +0.100 C 
ATOM      2  C   UNL     1       1.492  -2.908   3.402  0.00  0.00    +0.121 C 
ATOM      3  N   UNL     1       1.774  -3.874   4.490  0.00  0.00    -0.296 N 
ATOM      4  C   UNL     1       2.666  -3.136   5.417  0.00  0.00    +0.115 C 
ATOM      5  C   UNL     1       3.602  -2.332   4.493  0.00  0.00    -0.004 C 
ATOM      6  C   UNL     1       3.888  -0.960   5.097  0.00  0.00    -0.010 C 
ATOM      7  C   UNL     1       4.702  -1.133   6.383  0.00  0.00    -0.082 C 
ATOM      8  N   UNL     1       5.959  -1.828   6.079  0.00  0.00    +0.379 N 
ATOM      9  C   UNL     1       5.676  -3.182   5.585  0.00  0.00    -0.082 C 
ATOM     10  C   UNL     1       4.904  -3.095   4.266  0.00  0.00    -0.010 C 
ATOM     11  C   UNL     1       1.323  -5.138   4.610  0.00  0.00    +0.247 C 
ATOM     12  O   UNL     1       0.682  -5.643   3.709  0.00  0.00    -0.270 OA
ATOM     13  H   UNL     1       6.464  -1.313   5.373  0.00  0.00    -0.086 HD
ATOM     14  H   UNL     1       6.520  -1.887   6.915  0.00  0.00    -0.086 HD
ENDROOT
BRANCH  11  15
ATOM     15  C   UNL     1       1.605  -5.911   5.838  0.00  0.00    +0.038 A 
ATOM     16  C   UNL     1       1.924  -5.248   7.025  0.00  0.00    +0.013 A 
ATOM     17  C   UNL     1       2.187  -5.974   8.168  0.00  0.00    +0.002 A 
ATOM     18  C   UNL     1       2.135  -7.357   8.141  0.00  0.00    +0.020 A 
ATOM     19  C   UNL     1       1.820  -8.021   6.968  0.00  0.00    +0.042 A 
ATOM     20  C   UNL     1       1.550  -7.305   5.818  0.00  0.00    +0.033 A 
ATOM     21 CL   UNL     1       1.758  -9.755   6.943  0.00  0.00    -0.084 Cl
ENDBRANCH  11  15
BRANCH   1  23
ATOM     22  N   UNL     1       3.465  -0.048   2.085  0.00  0.00    -0.312 N 
ATOM     23  C   UNL     1       2.597  -0.724   2.863  0.00  0.00    +0.218 C 
ATOM     24  O   UNL     1       1.624  -0.161   3.318  0.00  0.00    -0.275 OA
ATOM     25  H   UNL     1       4.243  -0.499   1.721  0.00  0.00    +0.149 HD
BRANCH  22  26
ATOM     26  C   UNL     1       3.233   1.368   1.788  0.00  0.00    +0.148 C 
BRANCH  26  28
ATOM     27  C   UNL     1       4.115   3.370   0.582  0.00  0.00    +0.053 C 
ATOM     28  C   UNL     1       4.357   1.891   0.891  0.00  0.00    +0.187 C 
BRANCH  28  29
ATOM     29  O   UNL     1       5.610   1.744   1.563  0.00  0.00    -0.486 OA
BRANCH  29  30
ATOM     30  C   UNL     1       6.720   1.654   0.784  0.00  0.00    +0.139 A 
ATOM     31  C   UNL     1       6.622   1.821  -0.589  0.00  0.00    +0.047 A 
ATOM     32  C   UNL     1       7.752   1.729  -1.378  0.00  0.00    +0.004 A 
ATOM     33  C   UNL     1       8.981   1.470  -0.800  0.00  0.00    +0.002 A 
ATOM     34  C   UNL     1       9.083   1.302   0.568  0.00  0.00    +0.023 A 
ATOM     35  C   UNL     1       7.956   1.399   1.363  0.00  0.00    +0.083 A 
ATOM     36 CL   UNL     1       8.085   1.195   3.082  0.00  0.00    -0.080 Cl
ENDBRANCH  29  30
ENDBRANCH  28  29
ENDBRANCH  26  28
ENDBRANCH  22  26
ENDBRANCH   1  23
TORSDOF 6
