REMARK  Name = ZINC38610333
REMARK  10 active torsions:
REMARK  status: ('A' for Active; 'I' for Inactive)
REMARK    1  A    between atoms: C_1  and  C_2
REMARK    2  A    between atoms: C_2  and  C_4
REMARK    3  A    between atoms: C_2  and  N_23
REMARK    4  A    between atoms: N_6  and  C_7
REMARK    5  A    between atoms: N_6  and  C_8
REMARK    6  A    between atoms: C_16  and  C_18
REMARK    7  A    between atoms: C_18  and  O_20
REMARK    8  A    between atoms: O_20  and  C_21
REMARK    9  A    between atoms: C_27  and  C_29
REMARK   10  A    between atoms: C_27  and  C_30
REMARK                            x       y       z     vdW  Elec       q    Type
REMARK                         _______ _______ _______ _____ _____    ______ ____
ROOT
ATOM      1  C   UNL     1       0.257  -0.474  -2.782  0.00  0.00    +0.206 C 
ATOM      2  O   UNL     1       0.794  -1.465  -2.335  0.00  0.00    -0.277 OA
ATOM      3  N   UNL     1       0.879   0.262  -3.725  0.00  0.00    -0.276 N 
ATOM      4  C   UNL     1       0.287   1.523  -4.179  0.00  0.00    +0.138 C 
ENDROOT
BRANCH   3   5
ATOM      5  C   UNL     1       2.058  -0.168  -4.257  0.00  0.00    +0.055 C 
ATOM      6  C   UNL     1       2.882   0.523  -5.128  0.00  0.00    +0.019 A 
ATOM      7  C   UNL     1       2.788   1.808  -5.715  0.00  0.00    +0.031 A 
ATOM      8  C   UNL     1       3.766   2.238  -6.551  0.00  0.00    +0.042 A 
ATOM      9  C   UNL     1       4.875   1.441  -6.853  0.00  0.00    +0.022 A 
ATOM     10  C   UNL     1       5.029   0.202  -6.328  0.00  0.00    +0.027 A 
ATOM     11  C   UNL     1       4.049  -0.318  -5.444  0.00  0.00    +0.045 A 
ATOM     12  N   UNL     1       3.968  -1.472  -4.812  0.00  0.00    -0.367 N 
ATOM     13  C   UNL     1       2.739  -1.496  -4.013  0.00  0.00    +0.234 C 
ATOM     14 CL   UNL     1       3.638   3.816  -7.264  0.00  0.00    -0.084 Cl
ATOM     15  H   UNL     1       4.620  -2.189  -4.865  0.00  0.00    +0.161 HD
BRANCH  13  16
ATOM     16  C   UNL     1       1.851  -2.626  -4.466  0.00  0.00    +0.335 C 
ATOM     17  O   UNL     1       1.801  -2.924  -5.636  0.00  0.00    -0.248 OA
BRANCH  16  18
ATOM     18  O   UNL     1       1.114  -3.301  -3.570  0.00  0.00    -0.466 OA
ATOM     19  C   UNL     1       0.295  -4.360  -4.070  0.00  0.00    +0.280 C 
ENDBRANCH  16  18
ENDBRANCH  13  16
ENDBRANCH   3   5
BRANCH   1  21
ATOM     20  C   UNL     1      -0.949   0.851  -1.068  0.00  0.00    -0.004 C 
ATOM     21  C   UNL     1      -1.105  -0.065  -2.284  0.00  0.00    +0.017 C 
BRANCH  21  22
ATOM     22  N   UNL     1      -1.866  -1.261  -1.901  0.00  0.00    +0.387 N 
ATOM     23  C   UNL     1      -1.312  -1.817  -0.661  0.00  0.00    -0.078 C 
ATOM     24  C   UNL     1      -2.049  -3.109  -0.302  0.00  0.00    -0.018 C 
ATOM     25  C   UNL     1      -3.536  -2.804  -0.106  0.00  0.00    +0.003 C 
ATOM     26  C   UNL     1      -4.087  -2.156  -1.380  0.00  0.00    -0.050 C 
ATOM     27  C   UNL     1      -3.274  -0.900  -1.699  0.00  0.00    -0.071 C 
ATOM     28  C   UNL     1      -3.978  -3.144  -2.543  0.00  0.00    +0.009 C 
ATOM     29  C   UNL     1      -5.553  -1.776  -1.167  0.00  0.00    +0.009 C 
ATOM     30  H   UNL     1      -1.799  -1.950  -2.636  0.00  0.00    -0.081 HD
ENDBRANCH  21  22
ENDBRANCH   1  21
TORSDOF 5
