REMARK  Name = ZINC30513852
REMARK  8 active torsions:
REMARK  status: ('A' for Active; 'I' for Inactive)
REMARK    1  A    between atoms: C_1  and  C_2
REMARK    2  A    between atoms: C_2  and  C_4
REMARK    3  A    between atoms: C_2  and  N_16
REMARK    4  A    between atoms: N_6  and  C_7
REMARK    5  A    between atoms: C_10  and  C_13
REMARK    6  A    between atoms: N_16  and  C_17
REMARK    7  A    between atoms: C_17  and  C_18
REMARK    8  A    between atoms: C_18  and  N_23
REMARK                            x       y       z     vdW  Elec       q    Type
REMARK                         _______ _______ _______ _____ _____    ______ ____
ROOT
ATOM      1  C   UNL     1      -0.897   1.551  -1.299  0.00  0.00    -0.004 C 
ATOM      2  C   UNL     1      -0.059   1.231  -0.059  0.00  0.00    +0.013 C 
ENDROOT
BRANCH   2   3
ATOM      3  C   UNL     1      -0.780   1.713   1.173  0.00  0.00    +0.203 C 
ATOM      4  O   UNL     1      -0.262   2.537   1.896  0.00  0.00    -0.277 OA
ATOM      5  N   UNL     1      -2.002   1.228   1.472  0.00  0.00    -0.287 N 
ATOM      6  H   UNL     1      -2.509   0.546   0.773  0.00  0.00    +0.155 HD
BRANCH   5   7
ATOM      7  C   UNL     1      -2.623   1.589   2.667  0.00  0.00    +0.033 A 
ATOM      8  C   UNL     1      -1.857   1.812   3.807  0.00  0.00    +0.024 A 
ATOM      9  C   UNL     1      -2.466   2.174   4.987  0.00  0.00    +0.015 A 
ATOM     10  C   UNL     1      -3.856   2.307   5.042  0.00  0.00    +0.037 A 
ATOM     11  C   UNL     1      -4.623   2.076   3.897  0.00  0.00    +0.015 A 
ATOM     12  C   UNL     1      -4.007   1.720   2.718  0.00  0.00    +0.024 A 
BRANCH  10  13
ATOM     13  C   UNL     1      -4.513   2.689   6.307  0.00  0.00    +0.242 C 
ATOM     14  O   UNL     1      -5.722   2.804   6.354  0.00  0.00    -0.270 OA
ATOM     15  N   UNL     1      -3.772   2.911   7.411  0.00  0.00    -0.325 N 
ATOM     16  H   UNL     1      -4.262   3.196   8.354  0.00  0.00    +0.145 HD
ATOM     17  H   UNL     1      -2.678   2.807   7.369  0.00  0.00    +0.145 HD
ENDBRANCH  10  13
ENDBRANCH   5   7
ENDBRANCH   2   3
BRANCH   2  18
ATOM     18  N   UNL     1       1.242   1.906  -0.161  0.00  0.00    +0.388 N 
ATOM     19  H   UNL     1       1.113   2.877  -0.661  0.00  0.00    -0.085 HD
ATOM     20  H   UNL     1       1.652   2.065   0.848  0.00  0.00    -0.085 HD
BRANCH  18  21
ATOM     21  C   UNL     1       2.195   1.100  -0.935  0.00  0.00    -0.059 C 
BRANCH  21  22
ATOM     22  C   UNL     1       3.534   1.834  -1.018  0.00  0.00    +0.007 C 
ATOM     23  C   UNL     1       3.357   3.176  -1.757  0.00  0.00    +0.020 C 
ATOM     24  C   UNL     1       4.655   3.328  -2.588  0.00  0.00    +0.002 C 
ATOM     25  C   UNL     1       4.934   1.877  -3.054  0.00  0.00    +0.002 C 
ATOM     26  C   UNL     1       4.537   1.008  -1.843  0.00  0.00    +0.020 C 
BRANCH  22  27
ATOM     27  N   UNL     1       4.064   2.068   0.332  0.00  0.00    -0.297 NA
ATOM     28  C   UNL     1       4.424   0.805   0.980  0.00  0.00    +0.095 C 
ATOM     29  C   UNL     1       5.373   1.075   2.153  0.00  0.00    +0.084 C 
ATOM     30  S   UNL     1       4.508   2.125   3.361  0.00  0.00    -0.158 S 
ATOM     31  C   UNL     1       3.867   3.480   2.328  0.00  0.00    +0.084 C 
ATOM     32  C   UNL     1       3.132   2.867   1.130  0.00  0.00    +0.095 C 
ENDBRANCH  22  27
ENDBRANCH  21  22
ENDBRANCH  18  21
ENDBRANCH   2  18
TORSDOF 7
