REMARK  Name = ZINC04236894
REMARK  10 active torsions:
REMARK  status: ('A' for Active; 'I' for Inactive)
REMARK    1  A    between atoms: C_1  and  C_2
REMARK    2  A    between atoms: C_7  and  C_40
REMARK    3  A    between atoms: C_12  and  O_26
REMARK    4  A    between atoms: C_14  and  C_16
REMARK    5  A    between atoms: C_16  and  C_17
REMARK    6  A    between atoms: N_19  and  C_20
REMARK    7  A    between atoms: C_20  and  C_21
REMARK    8  A    between atoms: C_29  and  C_32
REMARK    9  A    between atoms: C_32  and  O_33
REMARK   10  A    between atoms: O_33  and  C_34
REMARK                            x       y       z     vdW  Elec       q    Type
REMARK                         _______ _______ _______ _____ _____    ______ ____
ROOT
ATOM      1  C   UNL     1      -2.298   1.657   6.148  0.00  0.00    +0.012 C 
ATOM      2  C   UNL     1      -0.785   1.871   6.165  0.00  0.00    -0.023 C 
ATOM      3  C   UNL     1      -0.500   3.359   6.400  0.00  0.00    +0.010 C 
ATOM      4  C   UNL     1      -0.912   3.750   7.820  0.00  0.00    +0.033 C 
ATOM      5  C   UNL     1      -0.061   2.972   8.821  0.00  0.00    +0.130 C 
ATOM      6  C   UNL     1      -0.290   1.467   8.658  0.00  0.00    +0.021 C 
ATOM      7  C   UNL     1      -0.084   1.034   7.224  0.00  0.00    +0.006 C 
ATOM      8  C   UNL     1      -0.387  -0.448   7.005  0.00  0.00    +0.007 C 
ATOM      9  C   UNL     1       0.260  -0.852   5.673  0.00  0.00    +0.032 C 
ATOM     10  C   UNL     1      -0.317  -0.022   4.532  0.00  0.00    +0.119 C 
ATOM     11  C   UNL     1      -0.222   1.476   4.791  0.00  0.00    +0.032 C 
ATOM     12  C   UNL     1      -1.661   1.081   9.207  0.00  0.00    +0.172 C 
ATOM     13  O   UNL     1      -1.742   1.543  10.568  0.00  0.00    -0.347 OA
ATOM     14  C   UNL     1      -1.634   2.969  10.656  0.00  0.00    +0.288 C 
ATOM     15  O   UNL     1      -0.367   3.381  10.151  0.00  0.00    -0.344 OA
ATOM     16  C   UNL     1       0.775   0.763   9.531  0.00  0.00    +0.016 C 
ENDROOT
BRANCH  10  17
ATOM     17  O   UNL     1      -1.659  -0.418   4.258  0.00  0.00    -0.391 OA
ATOM     18  H   UNL     1      -1.762  -1.365   4.088  0.00  0.00    +0.210 HD
ENDBRANCH  10  17
BRANCH  11  19
ATOM     19  C   UNL     1      -0.998   2.217   3.696  0.00  0.00    +0.102 C 
BRANCH  19  20
ATOM     20  C   UNL     1      -0.329   1.991   2.365  0.00  0.00    +0.214 C 
ATOM     21  O   UNL     1       0.670   1.306   2.297  0.00  0.00    -0.276 OA
ATOM     22  N   UNL     1      -0.839   2.551   1.250  0.00  0.00    -0.311 N 
ATOM     23  H   UNL     1      -1.638   3.099   1.304  0.00  0.00    +0.149 HD
BRANCH  22  24
ATOM     24  C   UNL     1      -0.188   2.331  -0.044  0.00  0.00    +0.146 C 
BRANCH  24  25
ATOM     25  C   UNL     1      -0.951   3.060  -1.120  0.00  0.00    +0.007 A 
ATOM     26  C   UNL     1      -0.790   4.328  -1.571  0.00  0.00    +0.013 A 
ATOM     27  C   UNL     1      -1.612   4.789  -2.582  0.00  0.00    +0.008 A 
ATOM     28  C   UNL     1      -2.562   3.963  -3.085  0.00  0.00    +0.045 A 
ATOM     29  S   UNL     1      -2.306   2.479  -2.127  0.00  0.00    -0.100 S 
ENDBRANCH  24  25
ENDBRANCH  22  24
ENDBRANCH  19  20
ENDBRANCH  11  19
BRANCH  14  30
ATOM     30  C   UNL     1      -1.769   3.395  12.120  0.00  0.00    +0.290 C 
BRANCH  30  31
ATOM     31  O   UNL     1      -0.731   2.786  12.890  0.00  0.00    -0.487 OA
BRANCH  31  32
ATOM     32  C   UNL     1      -0.707   3.064  14.220  0.00  0.00    +0.121 A 
ATOM     33  C   UNL     1      -1.659   3.908  14.772  0.00  0.00    +0.045 A 
ATOM     34  C   UNL     1      -1.636   4.184  16.125  0.00  0.00    +0.004 A 
ATOM     35  C   UNL     1      -0.657   3.628  16.928  0.00  0.00    +0.000 A 
ATOM     36  C   UNL     1       0.296   2.790  16.381  0.00  0.00    +0.004 A 
ATOM     37  C   UNL     1       0.274   2.507  15.029  0.00  0.00    +0.045 A 
ENDBRANCH  31  32
ENDBRANCH  30  31
ENDBRANCH  14  30
TORSDOF 8
