REMARK  Name = ZINC09101520
REMARK  11 active torsions:
REMARK  status: ('A' for Active; 'I' for Inactive)
REMARK    1  A    between atoms: C_1  and  C_2
REMARK    2  A    between atoms: C_2  and  C_4
REMARK    3  A    between atoms: C_2  and  N_55
REMARK    4  A    between atoms: C_7  and  S_16
REMARK    5  A    between atoms: N_8  and  C_9
REMARK    6  A    between atoms: S_16  and  C_17
REMARK    7  A    between atoms: C_17  and  C_19
REMARK    8  A    between atoms: C_17  and  C_20
REMARK    9  A    between atoms: C_20  and  C_22
REMARK   10  A    between atoms: C_32  and  N_55
REMARK   11  A    between atoms: C_33  and  N_55
REMARK                            x       y       z     vdW  Elec       q    Type
REMARK                         _______ _______ _______ _____ _____    ______ ____
ROOT
ATOM      1  C   UNL     1       3.640   0.150   2.992  0.00  0.00    +0.125 A 
ATOM      2  N   UNL     1       2.456  -0.377   3.120  0.00  0.00    -0.135 NA
ATOM      3  N   UNL     1       1.677   0.052   2.191  0.00  0.00    -0.122 NA
ATOM      4  C   UNL     1       2.330   0.877   1.406  0.00  0.00    +0.197 A 
ATOM      5  N   UNL     1       3.605   0.969   1.894  0.00  0.00    -0.275 N 
ENDROOT
BRANCH   5   6
ATOM      6  C   UNL     1       4.656   1.742   1.379  0.00  0.00    +0.050 A 
ATOM      7  C   UNL     1       5.788   1.123   0.866  0.00  0.00    +0.028 A 
ATOM      8  C   UNL     1       6.819   1.885   0.355  0.00  0.00    +0.022 A 
ATOM      9  C   UNL     1       6.730   3.266   0.363  0.00  0.00    +0.041 A 
ATOM     10  C   UNL     1       5.605   3.886   0.878  0.00  0.00    +0.022 A 
ATOM     11  C   UNL     1       4.569   3.127   1.386  0.00  0.00    +0.028 A 
ATOM     12 CL   UNL     1       8.031   4.223  -0.275  0.00  0.00    -0.084 Cl
ENDBRANCH   5   6
BRANCH   1  14
ATOM     13  C   UNL     1       4.640   0.655   5.204  0.00  0.00    -0.005 C 
ATOM     14  C   UNL     1       4.829  -0.096   3.884  0.00  0.00    -0.003 C 
BRANCH  14  17
ATOM     15  C   UNL     1       5.039  -2.299   2.901  0.00  0.00    -0.096 C 
ATOM     16  C   UNL     1       6.101  -1.813   5.022  0.00  0.00    -0.096 C 
ATOM     17  N   UNL     1       4.926  -1.543   4.167  0.00  0.00    +0.382 N 
ATOM     18  H   UNL     1       4.078  -1.845   4.661  0.00  0.00    -0.082 HD
ENDBRANCH  14  17
ENDBRANCH   1  14
BRANCH   4  19
ATOM     19  S   UNL     1       1.685   1.712  -0.005  0.00  0.00    -0.075 S 
BRANCH  19  20
ATOM     20  C   UNL     1      -0.013   1.086   0.008  0.00  0.00    +0.122 C 
ATOM     21  C   UNL     1      -0.729   1.579   1.267  0.00  0.00    +0.028 C 
BRANCH  20  22
ATOM     22  C   UNL     1      -0.742   1.585  -1.213  0.00  0.00    +0.178 C 
ATOM     23  O   UNL     1      -0.381   2.607  -1.759  0.00  0.00    -0.291 OA
BRANCH  22  24
ATOM     24  C   UNL     1      -1.848   0.861  -1.723  0.00  0.00    +0.043 A 
ATOM     25  C   UNL     1      -2.372  -0.312  -1.223  0.00  0.00    +0.095 A 
ATOM     26  N   UNL     1      -3.422  -0.695  -1.974  0.00  0.00    -0.360 N 
ATOM     27  H   UNL     1      -3.954  -1.490  -1.813  0.00  0.00    +0.165 HD
ATOM     28  C   UNL     1      -3.635   0.196  -3.006  0.00  0.00    +0.047 A 
ATOM     29  C   UNL     1      -2.667   1.208  -2.901  0.00  0.00    +0.010 A 
ATOM     30  C   UNL     1      -2.644   2.251  -3.821  0.00  0.00    +0.011 A 
ATOM     31  C   UNL     1      -3.577   2.287  -4.836  0.00  0.00    +0.001 A 
ATOM     32  C   UNL     1      -4.534   1.289  -4.941  0.00  0.00    +0.002 A 
ATOM     33  C   UNL     1      -4.567   0.250  -4.037  0.00  0.00    +0.026 A 
ENDBRANCH  22  24
ENDBRANCH  20  22
ENDBRANCH  19  20
ENDBRANCH   4  19
TORSDOF 7
