REMARK  Name = ZINC39750322
REMARK  10 active torsions:
REMARK  status: ('A' for Active; 'I' for Inactive)
REMARK    1  A    between atoms: C_1  and  C_2
REMARK    2  A    between atoms: C_2  and  N_3
REMARK    3  A    between atoms: C_4  and  C_24
REMARK    4  A    between atoms: C_8  and  S_10
REMARK    5  A    between atoms: S_10  and  C_11
REMARK    6  A    between atoms: C_11  and  C_12
REMARK    7  A    between atoms: C_27  and  C_30
REMARK    8  A    between atoms: C_30  and  C_31
REMARK    9  A    between atoms: C_30  and  C_32
REMARK   10  A    between atoms: C_30  and  C_33
REMARK                            x       y       z     vdW  Elec       q    Type
REMARK                         _______ _______ _______ _____ _____    ______ ____
ROOT
ATOM      1  N   UNL     1       0.544  -0.512  -0.984  0.00  0.00    +0.410 N 
ATOM      2  C   UNL     1       0.851  -1.956  -1.169  0.00  0.00    +0.049 C 
ATOM      3  N   UNL     1       1.065  -2.062  -2.636  0.00  0.00    -0.267 NA
ATOM      4  N   UNL     1       0.074  -1.153  -3.218  0.00  0.00    -0.262 NA
ATOM      5  C   UNL     1      -0.261  -0.161  -2.176  0.00  0.00    +0.077 C 
ATOM      6  H   UNL     1       0.919  -3.008  -2.955  0.00  0.00    +0.139 HD
ATOM      7  H   UNL     1      -0.748  -1.657  -3.515  0.00  0.00    +0.140 HD
ATOM      8  H   UNL     1       1.394   0.031  -0.958  0.00  0.00    -0.075 HD
ENDROOT
BRANCH   2   9
ATOM      9  C   UNL     1       2.099  -2.337  -0.414  0.00  0.00    -0.046 A 
ATOM     10  C   UNL     1       2.022  -3.215   0.651  0.00  0.00    +0.003 A 
ATOM     11  C   UNL     1       3.167  -3.564   1.342  0.00  0.00    +0.004 A 
ATOM     12  C   UNL     1       4.388  -3.036   0.969  0.00  0.00    -0.042 A 
ATOM     13  C   UNL     1       4.466  -2.159  -0.097  0.00  0.00    +0.004 A 
ATOM     14  C   UNL     1       3.322  -1.813  -0.791  0.00  0.00    +0.003 A 
BRANCH  12  15
ATOM     15  C   UNL     1       5.636  -3.417   1.724  0.00  0.00    -0.013 C 
ATOM     16  C   UNL     1       5.845  -4.930   1.635  0.00  0.00    +0.015 C 
ATOM     17  C   UNL     1       6.841  -2.699   1.112  0.00  0.00    +0.015 C 
ATOM     18  C   UNL     1       5.489  -3.007   3.191  0.00  0.00    +0.015 C 
ENDBRANCH  12  15
ENDBRANCH   2   9
BRANCH   1  20
ATOM     19  C   UNL     1      -0.530   1.186   0.416  0.00  0.00    -0.017 C 
ATOM     20  C   UNL     1      -0.236  -0.305   0.244  0.00  0.00    -0.076 C 
ENDBRANCH   1  20
BRANCH   5  21
ATOM     21  S   UNL     1       0.167   1.507  -2.745  0.00  0.00    -0.152 S 
BRANCH  21  22
ATOM     22  C   UNL     1       1.936   1.399  -3.132  0.00  0.00    +0.143 C 
BRANCH  22  23
ATOM     23  C   UNL     1       2.426   2.736  -3.623  0.00  0.00    +0.120 A 
ATOM     24  N   UNL     1       3.734   2.856  -3.971  0.00  0.00    -0.310 N 
ATOM     25  H   UNL     1       4.323   2.088  -3.898  0.00  0.00    +0.170 HD
ATOM     26  C   UNL     1       4.223   4.035  -4.418  0.00  0.00    +0.259 A 
ATOM     27  O   UNL     1       5.393   4.156  -4.734  0.00  0.00    -0.267 OA
ATOM     28  C   UNL     1       3.287   5.166  -4.509  0.00  0.00    +0.065 A 
ATOM     29  C   UNL     1       3.690   6.423  -4.956  0.00  0.00    +0.015 A 
ATOM     30  C   UNL     1       2.771   7.447  -5.021  0.00  0.00    +0.001 A 
ATOM     31  C   UNL     1       1.450   7.236  -4.644  0.00  0.00    +0.002 A 
ATOM     32  C   UNL     1       1.033   6.002  -4.199  0.00  0.00    +0.028 A 
ATOM     33  C   UNL     1       1.946   4.948  -4.125  0.00  0.00    +0.078 A 
ATOM     34  N   UNL     1       1.576   3.715  -3.697  0.00  0.00    -0.233 NA
ENDBRANCH  22  23
ENDBRANCH  21  22
ENDBRANCH   5  21
TORSDOF 6
