REMARK  Name = ZINC23130411
REMARK  11 active torsions:
REMARK  status: ('A' for Active; 'I' for Inactive)
REMARK    1  A    between atoms: C_1  and  C_2
REMARK    2  A    between atoms: C_2  and  N_3
REMARK    3  A    between atoms: N_3  and  C_4
REMARK    4  A    between atoms: C_4  and  C_5
REMARK    5  A    between atoms: C_6  and  C_8
REMARK    6  A    between atoms: N_13  and  C_15
REMARK    7  A    between atoms: C_15  and  C_16
REMARK    8  A    between atoms: C_19  and  C_24
REMARK    9  A    between atoms: N_26  and  C_27
REMARK   10  A    between atoms: C_27  and  C_28
REMARK   11  A    between atoms: C_28  and  N_34
REMARK                            x       y       z     vdW  Elec       q    Type
REMARK                         _______ _______ _______ _____ _____    ______ ____
ROOT
ATOM      1  C   UNL     1      -0.372  -0.356   0.488  0.00  0.00    +0.003 A 
ATOM      2  C   UNL     1      -0.702  -1.274  -0.455  0.00  0.00    +0.020 A 
ATOM      3  C   UNL     1      -1.669  -2.241  -0.183  0.00  0.00    +0.020 A 
ATOM      4  C   UNL     1      -2.293  -2.239   1.063  0.00  0.00    +0.101 A 
ATOM      5  C   UNL     1      -1.918  -1.255   2.014  0.00  0.00    +0.261 A 
ATOM      6  O   UNL     1      -2.450  -1.232   3.111  0.00  0.00    -0.267 OA
ATOM      7  N   UNL     1      -0.974  -0.348   1.701  0.00  0.00    -0.327 N 
ATOM      8  H   UNL     1      -0.694   0.409   2.449  0.00  0.00    +0.169 HD
ENDROOT
BRANCH   4   9
ATOM      9  C   UNL     1      -3.322  -3.239   1.386  0.00  0.00    +0.249 C 
ATOM     10  O   UNL     1      -3.932  -3.167   2.437  0.00  0.00    -0.270 OA
ATOM     11  N   UNL     1      -3.590  -4.235   0.519  0.00  0.00    -0.309 N 
ATOM     12  H   UNL     1      -3.099  -4.254  -0.465  0.00  0.00    +0.149 HD
BRANCH  11  13
ATOM     13  C   UNL     1      -4.535  -5.293   0.887  0.00  0.00    +0.126 C 
BRANCH  13  14
ATOM     14  C   UNL     1      -4.533  -6.377  -0.193  0.00  0.00    +0.038 C 
ATOM     15  C   UNL     1      -4.753  -5.732  -1.563  0.00  0.00    +0.024 C 
ATOM     16  C   UNL     1      -6.098  -5.004  -1.574  0.00  0.00    +0.002 C 
ATOM     17  C   UNL     1      -7.222  -6.005  -1.295  0.00  0.00    +0.000 C 
ATOM     18  C   UNL     1      -7.002  -6.649   0.076  0.00  0.00    +0.002 C 
ATOM     19  C   UNL     1      -5.656  -7.377   0.086  0.00  0.00    +0.024 C 
BRANCH  14  20
ATOM     20  N   UNL     1      -3.241  -7.076  -0.182  0.00  0.00    -0.291 NA
ATOM     21  C   UNL     1      -3.048  -7.808   1.078  0.00  0.00    +0.113 C 
ATOM     22  C   UNL     1      -1.720  -8.568   1.022  0.00  0.00    +0.175 C 
ATOM     23  O   UNL     1      -0.658  -7.645   0.764  0.00  0.00    -0.377 OA
ATOM     24  C   UNL     1      -0.814  -6.915  -0.456  0.00  0.00    +0.175 C 
ATOM     25  C   UNL     1      -2.132  -6.138  -0.415  0.00  0.00    +0.113 C 
ENDBRANCH  14  20
ENDBRANCH  13  14
ENDBRANCH  11  13
ENDBRANCH   4   9
BRANCH   1  26
ATOM     26  C   UNL     1       0.680   0.678   0.178  0.00  0.00    -0.025 C 
BRANCH  26  31
ATOM     27  C   UNL     1      -0.911   3.846   1.447  0.00  0.00    +0.059 C 
ATOM     28  C   UNL     1      -2.049   3.960   0.428  0.00  0.00    +0.009 C 
ATOM     29  C   UNL     1      -1.544   3.502  -0.943  0.00  0.00    -0.018 C 
ATOM     30  C   UNL     1      -1.024   2.066  -0.836  0.00  0.00    -0.078 C 
ATOM     31  N   UNL     1       0.064   2.011   0.150  0.00  0.00    +0.384 N 
ATOM     32  C   UNL     1      -0.409   2.401   1.484  0.00  0.00    -0.066 C 
ATOM     33  H   UNL     1       0.833   2.734  -0.159  0.00  0.00    -0.081 HD
BRANCH  27  35
ATOM     34  N   UNL     1      -1.608   5.539   3.110  0.00  0.00    -0.302 N 
ATOM     35  C   UNL     1      -1.415   4.239   2.811  0.00  0.00    +0.217 C 
ATOM     36  O   UNL     1      -1.649   3.385   3.640  0.00  0.00    -0.275 OA
BRANCH  34  38
ATOM     37  C   UNL     1      -0.697   6.198   5.282  0.00  0.00    +0.024 C 
ATOM     38  C   UNL     1      -1.969   5.932   4.474  0.00  0.00    +0.104 C 
ENDBRANCH  34  38
BRANCH  34  39
ATOM     39  C   UNL     1      -1.455   6.560   2.070  0.00  0.00    +0.104 C 
ATOM     40  C   UNL     1      -2.830   6.920   1.503  0.00  0.00    +0.024 C 
ENDBRANCH  34  39
ENDBRANCH  27  35
ENDBRANCH  26  31
ENDBRANCH   1  26
TORSDOF 9
