REMARK  Name = ZINC63804177
REMARK  11 active torsions:
REMARK  status: ('A' for Active; 'I' for Inactive)
REMARK    1  A    between atoms: C_1  and  C_2
REMARK    2  A    between atoms: C_7  and  C_8
REMARK    3  A    between atoms: C_8  and  C_9
REMARK    4  A    between atoms: C_8  and  N_24
REMARK    5  A    between atoms: C_9  and  C_10
REMARK    6  A    between atoms: N_12  and  C_13
REMARK    7  A    between atoms: C_13  and  C_14
REMARK    8  A    between atoms: C_14  and  C_15
REMARK    9  A    between atoms: C_14  and  N_21
REMARK   10  A    between atoms: N_21  and  C_22
REMARK   11  A    between atoms: N_21  and  C_23
REMARK                            x       y       z     vdW  Elec       q    Type
REMARK                         _______ _______ _______ _____ _____    ______ ____
ROOT
ATOM      1  C   UNL     1      -1.718   1.952   2.589  0.00  0.00    +0.123 C 
ENDROOT
BRANCH   1   2
ATOM      2  C   UNL     1      -1.903   2.405   4.014  0.00  0.00    +0.215 C 
ATOM      3  O   UNL     1      -0.954   2.432   4.769  0.00  0.00    -0.276 OA
ATOM      4  N   UNL     1      -3.122   2.779   4.450  0.00  0.00    -0.317 N 
ATOM      5  H   UNL     1      -3.881   2.757   3.846  0.00  0.00    +0.149 HD
BRANCH   4   6
ATOM      6  C   UNL     1      -3.301   3.220   5.835  0.00  0.00    +0.089 C 
BRANCH   6   7
ATOM      7  C   UNL     1      -4.793   3.408   6.122  0.00  0.00    -0.049 C 
BRANCH   7   8
ATOM      8  C   UNL     1      -4.968   4.116   7.467  0.00  0.00    -0.023 C 
ATOM      9  C   UNL     1      -6.457   4.198   7.809  0.00  0.00    +0.002 C 
ATOM     10  C   UNL     1      -6.633   4.906   9.154  0.00  0.00    +0.000 C 
ATOM     11  C   UNL     1      -6.051   6.318   9.068  0.00  0.00    +0.000 C 
ATOM     12  C   UNL     1      -4.562   6.236   8.725  0.00  0.00    +0.000 C 
ATOM     13  C   UNL     1      -4.386   5.528   7.380  0.00  0.00    +0.002 C 
ENDBRANCH   7   8
BRANCH   7  14
ATOM     14  N   UNL     1      -5.452   2.096   6.169  0.00  0.00    +0.379 N 
ATOM     15  C   UNL     1      -5.271   1.411   4.882  0.00  0.00    -0.096 C 
ATOM     16  C   UNL     1      -4.857   1.288   7.242  0.00  0.00    -0.096 C 
ATOM     17  H   UNL     1      -6.437   2.221   6.348  0.00  0.00    -0.082 HD
ENDBRANCH   7  14
ENDBRANCH   6   7
ENDBRANCH   4   6
ENDBRANCH   1   2
BRANCH   1  18
ATOM     18  C   UNL     1      -0.251   1.585   2.356  0.00  0.00    +0.114 C 
BRANCH  18  25
ATOM     19  C   UNL     1       2.426   1.418   1.283  0.00  0.00    +0.044 C 
ATOM     20  C   UNL     1       1.239   1.170   0.389  0.00  0.00    -0.045 A 
ATOM     21  C   UNL     1       1.431   0.857  -0.944  0.00  0.00    +0.004 A 
ATOM     22  C   UNL     1       0.342   0.629  -1.765  0.00  0.00    +0.000 A 
ATOM     23  C   UNL     1      -0.939   0.715  -1.253  0.00  0.00    +0.000 A 
ATOM     24  C   UNL     1      -1.131   1.027   0.080  0.00  0.00    +0.006 A 
ATOM     25  C   UNL     1      -0.042   1.250   0.902  0.00  0.00    -0.024 A 
ENDBRANCH  18  25
BRANCH  18  26
ATOM     26  N   UNL     1       0.099   0.426   3.180  0.00  0.00    -0.292 N 
ATOM     27  C   UNL     1      -0.524  -0.753   2.984  0.00  0.00    +0.298 C 
ATOM     28  O   UNL     1      -1.312  -0.879   2.067  0.00  0.00    -0.253 OA
ATOM     29  N   UNL     1      -0.274  -1.792   3.805  0.00  0.00    -0.313 N 
ATOM     30  H   UNL     1       0.780   0.506   3.866  0.00  0.00    +0.151 HD
ATOM     31  H   UNL     1       0.355  -1.692   4.537  0.00  0.00    +0.146 HD
ATOM     32  H   UNL     1      -0.722  -2.641   3.664  0.00  0.00    +0.146 HD
ENDBRANCH  18  26
ENDBRANCH   1  18
TORSDOF 8
