REMARK  Name = ZINC13065619
REMARK  11 active torsions:
REMARK  status: ('A' for Active; 'I' for Inactive)
REMARK    1  A    between atoms: C_1  and  C_2
REMARK    2  A    between atoms: C_2  and  O_3
REMARK    3  A    between atoms: O_3  and  C_4
REMARK    4  A    between atoms: C_11  and  C_16
REMARK    5  A    between atoms: C_16  and  N_58
REMARK    6  A    between atoms: C_17  and  C_18
REMARK    7  A    between atoms: C_17  and  N_58
REMARK    8  A    between atoms: C_23  and  C_24
REMARK    9  A    between atoms: C_23  and  N_58
REMARK   10  A    between atoms: N_28  and  C_29
REMARK   11  A    between atoms: C_29  and  C_30
REMARK                            x       y       z     vdW  Elec       q    Type
REMARK                         _______ _______ _______ _____ _____    ______ ____
ROOT
ATOM      1  N   UNL     1      -0.873   1.590  -0.976  0.00  0.00    +0.390 N 
ATOM      2  H   UNL     1      -1.885   1.437  -0.887  0.00  0.00    -0.080 HD
ENDROOT
BRANCH   1   3
ATOM      3  C   UNL     1      -0.373   0.829  -2.140  0.00  0.00    -0.036 C 
BRANCH   3  11
ATOM      4  C   UNL     1      -4.530  -3.543  -3.564  0.00  0.00    +0.121 A 
ATOM      5  C   UNL     1      -3.935  -4.562  -2.823  0.00  0.00    +0.047 A 
ATOM      6  C   UNL     1      -2.781  -4.329  -2.108  0.00  0.00    +0.030 A 
ATOM      7  C   UNL     1      -2.199  -3.065  -2.122  0.00  0.00    +0.049 A 
ATOM      8  C   UNL     1      -2.797  -2.033  -2.869  0.00  0.00    +0.002 A 
ATOM      9  C   UNL     1      -3.969  -2.283  -3.591  0.00  0.00    +0.055 A 
ATOM     10  C   UNL     1      -2.177  -0.707  -2.870  0.00  0.00    +0.017 A 
ATOM     11  C   UNL     1      -1.039  -0.522  -2.156  0.00  0.00    +0.001 A 
ATOM     12  C   UNL     1      -0.479  -1.591  -1.423  0.00  0.00    +0.251 A 
ATOM     13  O   UNL     1       0.542  -1.403  -0.785  0.00  0.00    -0.268 OA
ATOM     14  N   UNL     1      -1.043  -2.811  -1.412  0.00  0.00    -0.322 N 
ATOM     15  H   UNL     1      -0.632  -3.523  -0.898  0.00  0.00    +0.169 HD
BRANCH   4  16
ATOM     16  O   UNL     1      -5.669  -3.792  -4.263  0.00  0.00    -0.492 OA
BRANCH  16  18
ATOM     17  C   UNL     1      -7.471  -5.205  -5.036  0.00  0.00    +0.048 C 
ATOM     18  C   UNL     1      -6.197  -5.118  -4.192  0.00  0.00    +0.225 C 
ENDBRANCH  16  18
ENDBRANCH   4  16
ENDBRANCH   3  11
ENDBRANCH   1   3
BRANCH   1  19
ATOM     19  C   UNL     1      -0.621   3.033  -1.169  0.00  0.00    -0.035 C 
BRANCH  19  20
ATOM     20  C   UNL     1      -1.580   3.557  -2.207  0.00  0.00    -0.027 A 
ATOM     21  C   UNL     1      -2.862   3.971  -2.054  0.00  0.00    +0.009 A 
ATOM     22  C   UNL     1      -3.558   4.421  -3.160  0.00  0.00    +0.008 A 
ATOM     23  C   UNL     1      -2.941   4.425  -4.368  0.00  0.00    +0.045 A 
ATOM     24  S   UNL     1      -1.325   3.787  -3.959  0.00  0.00    -0.103 S 
ENDBRANCH  19  20
ENDBRANCH   1  19
BRANCH   1  25
ATOM     25  C   UNL     1      -0.206   1.121   0.258  0.00  0.00    +0.001 C 
BRANCH  25  26
ATOM     26  C   UNL     1      -0.886   1.751   1.446  0.00  0.00    +0.136 A 
ATOM     27  N   UNL     1      -0.561   2.880   2.027  0.00  0.00    -0.115 NA
ATOM     28  N   UNL     1      -1.379   3.076   3.003  0.00  0.00    -0.023 NA
ATOM     29  N   UNL     1      -2.212   2.097   3.065  0.00  0.00    -0.044 NA
ATOM     30  N   UNL     1      -1.941   1.259   2.122  0.00  0.00    -0.224 N 
BRANCH  30  31
ATOM     31  C   UNL     1      -2.649   0.008   1.839  0.00  0.00    +0.221 C 
BRANCH  31  32
ATOM     32  C   UNL     1      -2.011  -1.117   2.613  0.00  0.00    +0.126 A 
ATOM     33  C   UNL     1      -2.348  -1.508   3.855  0.00  0.00    +0.046 A 
ATOM     34  C   UNL     1      -1.501  -2.590   4.188  0.00  0.00    +0.041 A 
ATOM     35  C   UNL     1      -0.691  -2.790   3.132  0.00  0.00    +0.195 A 
ATOM     36  O   UNL     1      -1.005  -1.895   2.181  0.00  0.00    -0.466 OA
ENDBRANCH  31  32
ENDBRANCH  30  31
ENDBRANCH  25  26
ENDBRANCH   1  25
TORSDOF 10
