REMARK  Name = ZINC20815493
REMARK  13 active torsions:
REMARK  status: ('A' for Active; 'I' for Inactive)
REMARK    1  A    between atoms: C_1  and  C_2
REMARK    2  A    between atoms: C_2  and  C_3
REMARK    3  A    between atoms: C_3  and  C_4
REMARK    4  A    between atoms: C_4  and  C_5
REMARK    5  A    between atoms: C_5  and  N_6
REMARK    6  A    between atoms: C_15  and  C_26
REMARK    7  A    between atoms: N_17  and  C_18
REMARK    8  A    between atoms: C_18  and  C_19
REMARK    9  A    between atoms: C_19  and  N_20
REMARK   10  A    between atoms: C_26  and  C_27
REMARK   11  A    between atoms: C_26  and  C_28
REMARK   12  A    between atoms: C_26  and  C_29
REMARK   13  A    between atoms: N_30  and  C_33
REMARK                            x       y       z     vdW  Elec       q    Type
REMARK                         _______ _______ _______ _____ _____    ______ ____
ROOT
ATOM      1  N   UNL     1       0.168   0.180   4.523  0.00  0.00    -0.259 N 
ATOM      2  C   UNL     1       0.297   0.266   3.176  0.00  0.00    +0.282 A 
ATOM      3  O   UNL     1       1.094  -0.422   2.563  0.00  0.00    -0.265 OA
ATOM      4  C   UNL     1      -0.539   1.193   2.522  0.00  0.00    +0.153 A 
ATOM      5  C   UNL     1      -1.448   1.973   3.257  0.00  0.00    +0.170 A 
ATOM      6  N   UNL     1      -2.098   2.749   2.405  0.00  0.00    -0.195 NA
ATOM      7  C   UNL     1      -1.671   2.519   1.186  0.00  0.00    +0.221 A 
ATOM      8  N   UNL     1      -0.695   1.556   1.213  0.00  0.00    -0.299 N 
ATOM      9  C   UNL     1      -0.013   1.086   0.008  0.00  0.00    +0.178 C 
ATOM     10  C   UNL     1      -0.738   1.583  -1.212  0.00  0.00    +0.062 C 
ATOM     11  N   UNL     1      -1.641   2.474  -1.191  0.00  0.00    -0.184 NA
ATOM     12  N   UNL     1      -2.070   3.093  -0.005  0.00  0.00    -0.191 N 
ATOM     13  N   UNL     1      -1.527   1.833   4.636  0.00  0.00    -0.280 N 
ATOM     14  C   UNL     1      -0.704   0.929   5.215  0.00  0.00    +0.333 A 
ATOM     15  O   UNL     1      -0.756   0.789   6.422  0.00  0.00    -0.246 OA
ATOM     16  C   UNL     1      -2.465   2.630   5.431  0.00  0.00    +0.155 C 
ENDROOT
BRANCH  10  17
ATOM     17  C   UNL     1      -0.368   0.985  -2.545  0.00  0.00    +0.004 C 
ATOM     18  C   UNL     1      -1.218   1.625  -3.644  0.00  0.00    +0.017 C 
ATOM     19  C   UNL     1       1.113   1.245  -2.827  0.00  0.00    +0.017 C 
ATOM     20  C   UNL     1      -0.624  -0.524  -2.515  0.00  0.00    +0.017 C 
ENDBRANCH  10  17
BRANCH   1  21
ATOM     21  C   UNL     1       1.013  -0.769   5.252  0.00  0.00    +0.130 C 
BRANCH  21  22
ATOM     22  C   UNL     1       0.302  -2.120   5.343  0.00  0.00    +0.022 C 
BRANCH  22  23
ATOM     23  C   UNL     1       1.185  -3.111   6.104  0.00  0.00    +0.001 C 
BRANCH  23  25
ATOM     24  C   UNL     1       1.357  -5.453   6.957  0.00  0.00    +0.004 C 
ATOM     25  C   UNL     1       0.473  -4.463   6.196  0.00  0.00    -0.003 C 
ENDBRANCH  23  25
ENDBRANCH  22  23
ENDBRANCH  21  22
ENDBRANCH   1  21
BRANCH  12  26
ATOM     26  C   UNL     1      -2.905   4.297  -0.031  0.00  0.00    +0.150 C 
BRANCH  26  27
ATOM     27  C   UNL     1      -2.010   5.538  -0.040  0.00  0.00    +0.105 C 
BRANCH  27  28
ATOM     28  N   UNL     1      -2.848   6.745  -0.066  0.00  0.00    -0.296 NA
ATOM     29  C   UNL     1      -3.587   6.846  -1.333  0.00  0.00    +0.112 C 
ATOM     30  C   UNL     1      -4.490   8.082  -1.293  0.00  0.00    +0.175 C 
ATOM     31  O   UNL     1      -3.691   9.241  -1.039  0.00  0.00    -0.377 OA
ATOM     32  C   UNL     1      -2.957   9.177   0.187  0.00  0.00    +0.175 C 
ATOM     33  C   UNL     1      -2.039   7.952   0.163  0.00  0.00    +0.112 C 
ENDBRANCH  27  28
ENDBRANCH  26  27
ENDBRANCH  12  26
TORSDOF 8
