REMARK  Name = ZINC34945442
REMARK  7 active torsions:
REMARK  status: ('A' for Active; 'I' for Inactive)
REMARK    1  A    between atoms: C_10  and  N_12
REMARK    2  A    between atoms: C_13  and  C_15
REMARK    3  A    between atoms: C_15  and  C_16
REMARK    4  A    between atoms: C_16  and  N_17
REMARK    5  A    between atoms: N_17  and  C_18
REMARK    6  A    between atoms: C_18  and  C_19
REMARK    7  A    between atoms: N_26  and  C_27
REMARK                            x       y       z     vdW  Elec       q    Type
REMARK                         _______ _______ _______ _____ _____    ______ ____
ROOT
ATOM      1  N   UNL     1       7.795   3.723  -1.662  0.00  0.00    -0.278 N 
ATOM      2  C   UNL     1       9.085   3.347  -1.768  0.00  0.00    +0.307 C 
ATOM      3  O   UNL     1       9.507   2.426  -1.096  0.00  0.00    -0.252 OA
ATOM      4  N   UNL     1       9.906   3.991  -2.620  0.00  0.00    -0.268 N 
ATOM      5  H   UNL     1       9.552   4.670  -3.215  0.00  0.00    +0.156 HD
ENDROOT
BRANCH   4   6
ATOM      6  C   UNL     1      11.272   3.680  -2.647  0.00  0.00    +0.053 A 
ATOM      7  C   UNL     1      11.882   3.135  -1.525  0.00  0.00    +0.026 A 
ATOM      8  C   UNL     1      13.229   2.828  -1.554  0.00  0.00    +0.022 A 
ATOM      9  C   UNL     1      13.970   3.064  -2.699  0.00  0.00    +0.042 A 
ATOM     10  C   UNL     1      13.365   3.607  -3.818  0.00  0.00    +0.041 A 
ATOM     11  C   UNL     1      12.016   3.910  -3.797  0.00  0.00    +0.064 A 
ATOM     12 CL   UNL     1      11.255   4.585  -5.204  0.00  0.00    -0.082 Cl
ATOM     13 CL   UNL     1      15.662   2.678  -2.730  0.00  0.00    -0.083 Cl
ENDBRANCH   4   6
BRANCH   1  14
ATOM     14  C   UNL     1       6.902   3.023  -0.736  0.00  0.00    +0.119 C 
BRANCH  14  15
ATOM     15  C   UNL     1       6.233   1.852  -1.459  0.00  0.00    +0.115 C 
BRANCH  15  17
ATOM     16  N   UNL     1       4.614   0.059  -0.927  0.00  0.00    -0.308 N 
ATOM     17  C   UNL     1       5.314   1.132  -0.507  0.00  0.00    +0.215 C 
ATOM     18  O   UNL     1       5.205   1.517   0.638  0.00  0.00    -0.276 OA
ATOM     19  H   UNL     1       4.702  -0.249  -1.843  0.00  0.00    +0.149 HD
BRANCH  16  29
ATOM     20  C   UNL     1      -0.018   1.435   0.061  0.00  0.00    +0.000 A 
ATOM     21  C   UNL     1       1.177   2.129   0.049  0.00  0.00    +0.000 A 
ATOM     22  C   UNL     1       2.371   1.438   0.027  0.00  0.00    +0.006 A 
ATOM     23  C   UNL     1       2.382   0.049   0.016  0.00  0.00    -0.024 A 
ATOM     24  C   UNL     1       1.192  -0.642   0.023  0.00  0.00    -0.042 A 
ATOM     25  C   UNL     1      -0.009   0.055   0.049  0.00  0.00    +0.004 A 
ATOM     26  C   UNL     1       1.128  -2.147  -0.005  0.00  0.00    +0.035 C 
ATOM     27  C   UNL     1       2.473  -2.749   0.399  0.00  0.00    +0.007 C 
ATOM     28  C   UNL     1       3.570  -2.094  -0.448  0.00  0.00    +0.027 C 
ATOM     29  C   UNL     1       3.721  -0.641  -0.001  0.00  0.00    +0.103 C 
ENDBRANCH  16  29
ENDBRANCH  15  17
ENDBRANCH  14  15
ENDBRANCH   1  14
BRANCH   1  30
ATOM     30  C   UNL     1       7.286   4.833  -2.472  0.00  0.00    +0.183 C 
BRANCH  30  31
ATOM     31  C   UNL     1       7.464   6.127  -1.719  0.00  0.00    +0.122 A 
ATOM     32  C   UNL     1       8.541   6.930  -1.779  0.00  0.00    +0.046 A 
ATOM     33  C   UNL     1       8.285   8.024  -0.921  0.00  0.00    +0.041 A 
ATOM     34  C   UNL     1       7.066   7.824  -0.388  0.00  0.00    +0.195 A 
ATOM     35  O   UNL     1       6.571   6.676  -0.880  0.00  0.00    -0.466 OA
ENDBRANCH  30  31
ENDBRANCH   1  30
TORSDOF 7
