REMARK  Name = ZINC63361855
REMARK  9 active torsions:
REMARK  status: ('A' for Active; 'I' for Inactive)
REMARK    1  A    between atoms: C_1  and  C_2
REMARK    2  A    between atoms: C_8  and  O_13
REMARK    3  A    between atoms: O_13  and  C_14
REMARK    4  A    between atoms: N_21  and  C_24
REMARK    5  A    between atoms: C_24  and  C_25
REMARK    6  A    between atoms: C_25  and  O_26
REMARK    7  A    between atoms: C_25  and  O_28
REMARK    8  A    between atoms: O_26  and  C_27
REMARK    9  A    between atoms: O_28  and  C_29
REMARK                            x       y       z     vdW  Elec       q    Type
REMARK                         _______ _______ _______ _____ _____    ______ ____
ROOT
ATOM      1  C   UNL     1      -0.303   1.516   0.131  0.00  0.00    +0.044 C 
ATOM      2  C   UNL     1      -0.076   0.043   0.479  0.00  0.00    +0.135 C 
ATOM      3  C   UNL     1       0.396  -0.595  -0.790  0.00  0.00    +0.139 C 
ATOM      4  C   UNL     1       1.621  -1.448  -0.506  0.00  0.00    -0.034 C 
ATOM      5  C   UNL     1       1.390  -2.634  -1.048  0.00  0.00    +0.003 A 
ATOM      6  C   UNL     1       2.224  -3.839  -1.178  0.00  0.00    +0.055 A 
ATOM      7  C   UNL     1       1.657  -4.910  -1.799  0.00  0.00    +0.121 A 
ATOM      8  C   UNL     1       0.350  -4.921  -2.307  0.00  0.00    +0.047 A 
ATOM      9  C   UNL     1      -0.502  -3.865  -2.246  0.00  0.00    +0.029 A 
ATOM     10  C   UNL     1      -0.000  -2.644  -1.603  0.00  0.00    +0.043 A 
ATOM     11  N   UNL     1      -0.566  -1.506  -1.408  0.00  0.00    -0.375 N 
ATOM     12  C   UNL     1       2.759  -0.918   0.331  0.00  0.00    +0.052 C 
ATOM     13  C   UNL     1       2.156  -0.558   1.691  0.00  0.00    +0.113 C 
ATOM     14  N   UNL     1       0.845   0.058   1.601  0.00  0.00    -0.284 N 
ATOM     15  C   UNL     1       0.378   0.698   2.724  0.00  0.00    +0.234 C 
ATOM     16  O   UNL     1       1.084   0.876   3.694  0.00  0.00    -0.274 OA
ATOM     17  C   UNL     1      -1.060   1.171   2.691  0.00  0.00    +0.203 C 
ATOM     18  N   UNL     1      -1.891   0.112   2.090  0.00  0.00    -0.286 N 
ATOM     19  C   UNL     1      -1.419  -0.458   0.940  0.00  0.00    +0.242 C 
ATOM     20  O   UNL     1      -2.038  -1.307   0.335  0.00  0.00    -0.273 OA
ATOM     21  H   UNL     1      -1.483  -1.292  -1.642  0.00  0.00    +0.160 HD
ENDROOT
BRANCH   7  22
ATOM     22  O   UNL     1       2.404  -6.037  -1.935  0.00  0.00    -0.495 OA
ATOM     23  C   UNL     1       1.789  -7.148  -2.589  0.00  0.00    +0.277 C 
ENDBRANCH   7  22
BRANCH  18  24
ATOM     24  C   UNL     1      -3.159  -0.307   2.693  0.00  0.00    +0.169 C 
BRANCH  24  25
ATOM     25  C   UNL     1      -4.300   0.538   2.124  0.00  0.00    +0.266 C 
BRANCH  25  26
ATOM     26  O   UNL     1      -4.064   1.917   2.420  0.00  0.00    -0.353 OA
ATOM     27  C   UNL     1      -5.214   2.750   2.258  0.00  0.00    +0.197 C 
ENDBRANCH  25  26
BRANCH  25  28
ATOM     28  O   UNL     1      -4.364   0.359   0.708  0.00  0.00    -0.353 OA
ATOM     29  C   UNL     1      -5.602   0.772   0.125  0.00  0.00    +0.197 C 
ENDBRANCH  25  28
ENDBRANCH  24  25
ENDBRANCH  18  24
TORSDOF 5
