REMARK  Name = ZINC09312115
REMARK  7 active torsions:
REMARK  status: ('A' for Active; 'I' for Inactive)
REMARK    1  A    between atoms: C_1  and  O_2
REMARK    2  A    between atoms: O_2  and  C_3
REMARK    3  A    between atoms: C_6  and  N_9
REMARK    4  A    between atoms: C_17  and  C_37
REMARK    5  A    between atoms: C_20  and  C_26
REMARK    6  A    between atoms: C_26  and  C_28
REMARK    7  A    between atoms: C_32  and  N_34
REMARK                            x       y       z     vdW  Elec       q    Type
REMARK                         _______ _______ _______ _____ _____    ______ ____
ROOT
ATOM      1  N   UNL     1       4.107   3.048  -3.496  0.00  0.00    -0.210 N 
ATOM      2  C   UNL     1       4.909   1.945  -3.405  0.00  0.00    +0.232 C 
ATOM      3  O   UNL     1       5.843   1.655  -4.121  0.00  0.00    -0.274 OA
ATOM      4  C   UNL     1       4.386   1.165  -2.224  0.00  0.00    +0.113 C 
ATOM      5  C   UNL     1       5.327   0.513  -1.251  0.00  0.00    +0.093 C 
ATOM      6  C   UNL     1       6.787   0.713  -1.416  0.00  0.00    +0.013 C 
ATOM      7  C   UNL     1       7.574   0.669  -0.321  0.00  0.00    +0.051 C 
ATOM      8  C   UNL     1       7.000   0.480   1.024  0.00  0.00    +0.032 C 
ATOM      9  C   UNL     1       5.671   0.618   1.228  0.00  0.00    +0.054 C 
ATOM     10  C   UNL     1       3.766   1.858  -0.024  0.00  0.00    +0.141 C 
ATOM     11  C   UNL     1       4.028   2.447  -1.356  0.00  0.00    +0.116 C 
ATOM     12  C   UNL     1       3.394   3.283  -2.345  0.00  0.00    +0.232 C 
ATOM     13  O   UNL     1       2.447   4.025  -2.195  0.00  0.00    -0.274 OA
ATOM     14  N   UNL     1       4.723   0.685   0.036  0.00  0.00    -0.384 NA
ATOM     15  H   UNL     1       4.123  -0.140   0.156  0.00  0.00    +0.127 HD
ENDROOT
BRANCH   1  19
ATOM     16  C   UNL     1       3.849   5.442  -6.903  0.00  0.00    +0.120 A 
ATOM     17  C   UNL     1       4.689   4.338  -6.894  0.00  0.00    +0.047 A 
ATOM     18  C   UNL     1       4.775   3.545  -5.766  0.00  0.00    +0.027 A 
ATOM     19  C   UNL     1       4.020   3.853  -4.642  0.00  0.00    +0.044 A 
ATOM     20  C   UNL     1       3.175   4.955  -4.655  0.00  0.00    +0.027 A 
ATOM     21  C   UNL     1       3.095   5.750  -5.781  0.00  0.00    +0.047 A 
BRANCH  16  23
ATOM     22  C   UNL     1       2.881   7.343  -7.954  0.00  0.00    +0.277 C 
ATOM     23  O   UNL     1       3.766   6.222  -8.013  0.00  0.00    -0.495 OA
ENDBRANCH  16  23
ENDBRANCH   1  19
BRANCH  10  24
ATOM     24  C   UNL     1       2.475   1.081  -0.016  0.00  0.00    +0.183 C 
ATOM     25  O   UNL     1       2.497  -0.132  -0.022  0.00  0.00    -0.290 OA
BRANCH  24  26
ATOM     26  C   UNL     1       1.188   1.793   0.000  0.00  0.00    +0.021 A 
ATOM     27  C   UNL     1       1.158   3.192   0.008  0.00  0.00    +0.011 A 
ATOM     28  C   UNL     1      -0.052   3.852   0.022  0.00  0.00    +0.003 A 
ATOM     29  C   UNL     1      -1.236   3.135   0.030  0.00  0.00    +0.033 A 
ATOM     30  C   UNL     1      -1.215   1.751   0.017  0.00  0.00    +0.127 A 
ATOM     31  C   UNL     1      -0.013   1.076   0.008  0.00  0.00    +0.044 A 
BRANCH  30  32
ATOM     32  N   UNL     1      -2.487   0.994   0.019  0.00  0.00    +0.056 N 
ATOM     33  O   UNL     1      -2.470  -0.224   0.013  0.00  0.00    -0.126 OA
ATOM     34  O   UNL     1      -3.550   1.588   0.027  0.00  0.00    -0.126 OA
ENDBRANCH  30  32
ENDBRANCH  24  26
ENDBRANCH  10  24
BRANCH   7  35
ATOM     35  C   UNL     1       8.991   0.821  -0.464  0.00  0.00    +0.099 C 
ATOM     36  N   UNL     1      10.115   0.942  -0.577  0.00  0.00    -0.191 NA
ENDBRANCH   7  35
TORSDOF 6
