REMARK  Name = ZINC39834785
REMARK  9 active torsions:
REMARK  status: ('A' for Active; 'I' for Inactive)
REMARK    1  A    between atoms: C_1  and  C_2
REMARK    2  A    between atoms: C_2  and  O_3
REMARK    3  A    between atoms: O_3  and  C_4
REMARK    4  A    between atoms: C_7  and  N_10
REMARK    5  A    between atoms: N_12  and  C_31
REMARK    6  A    between atoms: C_13  and  C_16
REMARK    7  A    between atoms: C_19  and  S_22
REMARK    8  A    between atoms: S_22  and  N_25
REMARK    9  A    between atoms: C_31  and  C_32
REMARK                            x       y       z     vdW  Elec       q    Type
REMARK                         _______ _______ _______ _____ _____    ______ ____
ROOT
ATOM      1  N   UNL     1       1.645  -5.902   1.717  0.00  0.00    -0.295 N 
ATOM      2  C   UNL     1       2.142  -6.538   2.844  0.00  0.00    +0.143 A 
ATOM      3  N   UNL     1       2.065  -7.811   3.186  0.00  0.00    -0.320 N 
ATOM      4  C   UNL     1       2.606  -8.253   4.319  0.00  0.00    +0.058 A 
ATOM      5  C   UNL     1       3.251  -7.372   5.140  0.00  0.00    +0.074 A 
ATOM      6  S   UNL     1       3.062  -5.854   4.215  0.00  0.00    -0.062 S 
ATOM      7  H   UNL     1       1.080  -6.387   1.096  0.00  0.00    +0.154 HD
ENDROOT
BRANCH   1  11
ATOM      8  C   UNL     1       2.579  -1.903   0.998  0.00  0.00    +0.121 A 
ATOM      9  C   UNL     1       3.454  -2.701   1.721  0.00  0.00    +0.047 A 
ATOM     10  C   UNL     1       3.146  -4.025   1.960  0.00  0.00    +0.027 A 
ATOM     11  C   UNL     1       1.958  -4.559   1.476  0.00  0.00    +0.033 A 
ATOM     12  C   UNL     1       1.083  -3.760   0.753  0.00  0.00    +0.027 A 
ATOM     13  C   UNL     1       1.390  -2.434   0.520  0.00  0.00    +0.047 A 
BRANCH   8  14
ATOM     14  O   UNL     1       2.884  -0.599   0.764  0.00  0.00    -0.492 OA
BRANCH  14  16
ATOM     15  C   UNL     1       4.292   1.359   0.924  0.00  0.00    +0.048 C 
ATOM     16  C   UNL     1       4.124  -0.119   1.286  0.00  0.00    +0.225 C 
ENDBRANCH  14  16
ENDBRANCH   8  14
ENDBRANCH   1  11
BRANCH   4  17
ATOM     17  C   UNL     1       2.509  -9.687   4.686  0.00  0.00    -0.001 A 
ATOM     18  C   UNL     1       2.518 -10.665   3.694  0.00  0.00    +0.012 A 
ATOM     19  C   UNL     1       2.428 -11.998   4.042  0.00  0.00    +0.029 A 
ATOM     20  C   UNL     1       2.328 -12.363   5.372  0.00  0.00    +0.106 A 
ATOM     21  C   UNL     1       2.318 -11.396   6.362  0.00  0.00    +0.029 A 
ATOM     22  C   UNL     1       2.414 -10.060   6.026  0.00  0.00    +0.012 A 
BRANCH  20  23
ATOM     23  S   UNL     1       2.213 -14.066   5.809  0.00  0.00    +0.061 S 
ATOM     24  O   UNL     1       1.581 -14.117   7.081  0.00  0.00    -0.153 OA
ATOM     25  O   UNL     1       1.694 -14.742   4.672  0.00  0.00    -0.153 OA
BRANCH  23  26
ATOM     26  N   UNL     1       3.758 -14.621   6.026  0.00  0.00    -0.177 NA
ATOM     27  C   UNL     1       4.516 -15.184   4.901  0.00  0.00    +0.109 C 
ATOM     28  C   UNL     1       5.858 -14.451   4.794  0.00  0.00    +0.017 C 
ATOM     29  C   UNL     1       6.583 -14.525   6.140  0.00  0.00    +0.003 C 
ATOM     30  C   UNL     1       5.739 -13.835   7.214  0.00  0.00    +0.017 C 
ATOM     31  C   UNL     1       4.399 -14.555   7.347  0.00  0.00    +0.109 C 
ENDBRANCH  23  26
ENDBRANCH  20  23
ENDBRANCH   4  17
BRANCH   3  32
ATOM     32  C   UNL     1       1.373  -8.754   2.303  0.00  0.00    +0.155 C 
BRANCH  32  33
ATOM     33  C   UNL     1       2.301  -9.151   1.153  0.00  0.00    +0.138 C 
ATOM     34  C   UNL     1       1.621 -10.215   0.256  0.00  0.00    +0.035 C 
ATOM     35  C   UNL     1       2.365  -9.986  -1.088  0.00  0.00    +0.031 C 
ATOM     36  C   UNL     1       2.610  -8.462  -1.072  0.00  0.00    +0.160 C 
ATOM     37  O   UNL     1       2.537  -8.026   0.292  0.00  0.00    -0.375 OA
ENDBRANCH  32  33
ENDBRANCH   3  32
TORSDOF 8
