REMARK  Name = ZINC09816765
REMARK  9 active torsions:
REMARK  status: ('A' for Active; 'I' for Inactive)
REMARK    1  A    between atoms: C_1  and  C_2
REMARK    2  A    between atoms: N_7  and  S_9
REMARK    3  A    between atoms: S_9  and  C_12
REMARK    4  A    between atoms: C_15  and  C_18
REMARK    5  A    between atoms: C_24  and  C_26
REMARK    6  A    between atoms: C_30  and  S_32
REMARK    7  A    between atoms: S_32  and  C_33
REMARK    8  A    between atoms: C_33  and  C_34
REMARK    9  A    between atoms: C_33  and  C_35
REMARK                            x       y       z     vdW  Elec       q    Type
REMARK                         _______ _______ _______ _____ _____    ______ ____
ROOT
ATOM      1  C   UNL     1      -1.967   9.194  -0.813  0.00  0.00    +0.252 C 
ATOM      2  O   UNL     1      -0.779   9.431  -0.915  0.00  0.00    -0.270 OA
ATOM      3  N   UNL     1      -2.388   7.928  -0.623  0.00  0.00    -0.234 N 
ATOM      4  C   UNL     1      -1.468   6.897  -0.545  0.00  0.00    +0.315 A 
ATOM      5  N   UNL     1      -0.165   7.011  -0.639  0.00  0.00    -0.092 NA
ATOM      6  N   UNL     1       0.376   5.849  -0.520  0.00  0.00    -0.106 NA
ATOM      7  C   UNL     1      -0.560   4.949  -0.346  0.00  0.00    +0.250 A 
ATOM      8  O   UNL     1      -1.748   5.593  -0.363  0.00  0.00    -0.405 OA
ATOM      9  H   UNL     1      -3.336   7.740  -0.542  0.00  0.00    +0.160 HD
ENDROOT
BRANCH   1  13
ATOM     10  C   UNL     1      -4.789  12.359  -1.055  0.00  0.00    +0.106 A 
ATOM     11  C   UNL     1      -3.438  12.631  -1.171  0.00  0.00    +0.029 A 
ATOM     12  C   UNL     1      -2.516  11.608  -1.093  0.00  0.00    +0.015 A 
ATOM     13  C   UNL     1      -2.949  10.296  -0.897  0.00  0.00    +0.037 A 
ATOM     14  C   UNL     1      -4.314  10.027  -0.785  0.00  0.00    +0.015 A 
ATOM     15  C   UNL     1      -5.225  11.060  -0.860  0.00  0.00    +0.029 A 
BRANCH  10  16
ATOM     16  S   UNL     1      -5.960  13.671  -1.156  0.00  0.00    +0.061 S 
ATOM     17  O   UNL     1      -7.125  13.230  -0.472  0.00  0.00    -0.153 OA
ATOM     18  O   UNL     1      -5.270  14.860  -0.795  0.00  0.00    -0.153 OA
BRANCH  16  24
ATOM     19  C   UNL     1      -4.501  14.896  -5.861  0.00  0.00    +0.009 C 
ATOM     20  C   UNL     1      -5.168  13.945  -4.865  0.00  0.00    +0.002 C 
ATOM     21  C   UNL     1      -6.381  13.284  -5.524  0.00  0.00    +0.006 C 
ATOM     22  C   UNL     1      -7.030  12.308  -4.540  0.00  0.00    +0.017 C 
ATOM     23  C   UNL     1      -7.511  13.077  -3.306  0.00  0.00    +0.109 C 
ATOM     24  N   UNL     1      -6.379  13.832  -2.750  0.00  0.00    -0.176 NA
ATOM     25  C   UNL     1      -5.631  14.737  -3.633  0.00  0.00    +0.112 C 
ENDBRANCH  16  24
ENDBRANCH  10  16
ENDBRANCH   1  13
BRANCH   7  26
ATOM     26  C   UNL     1      -0.356   3.496  -0.171  0.00  0.00    +0.040 A 
ATOM     27  C   UNL     1      -1.453   2.650   0.005  0.00  0.00    +0.013 A 
ATOM     28  C   UNL     1      -1.259   1.292   0.163  0.00  0.00    +0.002 A 
ATOM     29  C   UNL     1       0.019   0.766   0.160  0.00  0.00    +0.015 A 
ATOM     30  C   UNL     1       1.118   1.600  -0.015  0.00  0.00    +0.009 A 
ATOM     31  C   UNL     1       0.934   2.965  -0.180  0.00  0.00    +0.028 A 
BRANCH  30  32
ATOM     32  S   UNL     1       2.745   0.922  -0.026  0.00  0.00    -0.122 S 
BRANCH  32  33
ATOM     33  C   UNL     1       3.194   0.831   1.729  0.00  0.00    +0.045 C 
ATOM     34  C   UNL     1       4.524   0.088   1.877  0.00  0.00    +0.019 C 
ATOM     35  C   UNL     1       3.335   2.246   2.293  0.00  0.00    +0.019 C 
ENDBRANCH  32  33
ENDBRANCH  30  32
ENDBRANCH   7  26
TORSDOF 6
