REMARK  Name = ZINC09660432
REMARK  6 active torsions:
REMARK  status: ('A' for Active; 'I' for Inactive)
REMARK    1  A    between atoms: C_1  and  O_2
REMARK    2  A    between atoms: O_2  and  C_3
REMARK    3  A    between atoms: C_6  and  C_9
REMARK    4  A    between atoms: C_14  and  C_22
REMARK    5  A    between atoms: C_26  and  O_28
REMARK    6  A    between atoms: O_28  and  C_29
REMARK                            x       y       z     vdW  Elec       q    Type
REMARK                         _______ _______ _______ _____ _____    ______ ____
ROOT
ATOM      1  C   UNL     1       4.685  -3.214  -1.689  0.00  0.00    +0.032 C 
ATOM      2  C   UNL     1       3.543  -3.281  -0.672  0.00  0.00    +0.060 C 
ATOM      3  C   UNL     1       3.072  -1.883  -0.346  0.00  0.00    +0.020 C 
ATOM      4  C   UNL     1       3.931  -0.842  -0.362  0.00  0.00    +0.041 C 
ATOM      5  C   UNL     1       3.496   0.566  -0.018  0.00  0.00    +0.177 C 
ATOM      6  N   UNL     1       2.043   0.649  -0.012  0.00  0.00    -0.201 N 
ATOM      7  C   UNL     1       1.229  -0.439  -0.014  0.00  0.00    +0.240 A 
ATOM      8  N   UNL     1       0.002  -0.004   0.002  0.00  0.00    -0.092 NA
ATOM      9  N   UNL     1      -0.015   1.285   0.009  0.00  0.00    -0.021 NA
ATOM     10  N   UNL     1       1.191   1.752   0.000  0.00  0.00    -0.042 NA
ATOM     11  N   UNL     1       1.743  -1.724  -0.033  0.00  0.00    -0.286 N 
ATOM     12  C   UNL     1       5.282  -1.026  -0.708  0.00  0.00    +0.164 C 
ATOM     13  O   UNL     1       6.033  -0.070  -0.701  0.00  0.00    -0.292 OA
ATOM     14  C   UNL     1       5.819  -2.378  -1.086  0.00  0.00    +0.088 C 
ATOM     15  H   UNL     1       1.182  -2.489   0.168  0.00  0.00    +0.155 HD
ENDROOT
BRANCH   1  19
ATOM     16  C   UNL     1       6.097  -7.158  -2.533  0.00  0.00    +0.120 A 
ATOM     17  C   UNL     1       5.606  -6.362  -3.558  0.00  0.00    +0.046 A 
ATOM     18  C   UNL     1       5.150  -5.087  -3.282  0.00  0.00    +0.007 A 
ATOM     19  C   UNL     1       5.183  -4.605  -1.986  0.00  0.00    -0.043 A 
ATOM     20  C   UNL     1       5.676  -5.395  -0.965  0.00  0.00    +0.007 A 
ATOM     21  C   UNL     1       6.128  -6.673  -1.234  0.00  0.00    +0.046 A 
BRANCH  16  23
ATOM     22  C   UNL     1       7.037  -9.176  -1.698  0.00  0.00    +0.277 C 
ATOM     23  O   UNL     1       6.546  -8.412  -2.802  0.00  0.00    -0.495 OA
ENDBRANCH  16  23
ENDBRANCH   1  19
BRANCH   5  24
ATOM     24  C   UNL     1       4.024   0.935   1.344  0.00  0.00    -0.015 A 
ATOM     25  C   UNL     1       3.659   0.191   2.451  0.00  0.00    +0.006 A 
ATOM     26  C   UNL     1       4.142   0.526   3.702  0.00  0.00    +0.004 A 
ATOM     27  C   UNL     1       4.992   1.605   3.849  0.00  0.00    +0.045 A 
ATOM     28  C   UNL     1       5.359   2.353   2.740  0.00  0.00    +0.120 A 
ATOM     29  C   UNL     1       4.877   2.012   1.485  0.00  0.00    +0.051 A 
BRANCH  28  30
ATOM     30  O   UNL     1       6.195   3.415   2.882  0.00  0.00    -0.495 OA
ATOM     31  C   UNL     1       6.658   3.704   4.203  0.00  0.00    +0.277 C 
ENDBRANCH  28  30
ENDBRANCH   5  24
TORSDOF 4
