REMARK  Name = ZINC38908176
REMARK  5 active torsions:
REMARK  status: ('A' for Active; 'I' for Inactive)
REMARK    1  A    between atoms: C_9  and  C_11
REMARK    2  A    between atoms: C_11  and  N_12
REMARK    3  A    between atoms: N_15  and  S_18
REMARK    4  A    between atoms: S_18  and  C_21
REMARK    5  A    between atoms: C_25  and  N_27
REMARK                            x       y       z     vdW  Elec       q    Type
REMARK                         _______ _______ _______ _____ _____    ______ ____
ROOT
ATOM      1  N   UNL     1       4.111  -3.661  -1.437  0.00  0.00    -0.293 NA
ATOM      2  C   UNL     1       5.007  -2.650  -2.014  0.00  0.00    +0.102 C 
ATOM      3  C   UNL     1       5.206  -2.940  -3.506  0.00  0.00    +0.125 C 
ATOM      4  N   UNL     1       5.659  -4.331  -3.655  0.00  0.00    -0.174 NA
ATOM      5  C   UNL     1       4.887  -5.390  -2.988  0.00  0.00    +0.125 C 
ATOM      6  C   UNL     1       4.701  -5.004  -1.517  0.00  0.00    +0.102 C 
ENDROOT
BRANCH   4   7
ATOM      7  S   UNL     1       7.004  -4.696  -4.550  0.00  0.00    +0.061 S 
ATOM      8  O   UNL     1       6.862  -6.048  -4.964  0.00  0.00    -0.153 OA
ATOM      9  O   UNL     1       7.177  -3.631  -5.475  0.00  0.00    -0.153 OA
BRANCH   7  10
ATOM     10  C   UNL     1       8.386  -4.645  -3.459  0.00  0.00    +0.108 A 
ATOM     11  C   UNL     1       9.076  -3.461  -3.272  0.00  0.00    +0.028 A 
ATOM     12  C   UNL     1      10.161  -3.421  -2.417  0.00  0.00    +0.004 A 
ATOM     13  C   UNL     1      10.555  -4.565  -1.747  0.00  0.00    +0.033 A 
ATOM     14  C   UNL     1       9.865  -5.747  -1.933  0.00  0.00    +0.128 A 
ATOM     15  C   UNL     1       8.777  -5.786  -2.785  0.00  0.00    +0.061 A 
BRANCH  14  16
ATOM     16  N   UNL     1      10.287  -6.972  -1.216  0.00  0.00    +0.056 N 
ATOM     17  O   UNL     1      11.236  -6.937  -0.468  0.00  0.00    -0.126 OA
ATOM     18  O   UNL     1       9.683  -8.006  -1.378  0.00  0.00    -0.126 OA
ENDBRANCH  14  16
ENDBRANCH   7  10
ENDBRANCH   4   7
BRANCH   1  19
ATOM     19  C   UNL     1       3.757  -3.322  -0.052  0.00  0.00    +0.158 C 
BRANCH  19  28
ATOM     20  C   UNL     1      -0.017   1.374   0.010  0.00  0.00    +0.002 A 
ATOM     21  C   UNL     1       1.170   2.094   0.002  0.00  0.00    +0.002 A 
ATOM     22  C   UNL     1       2.375   1.450  -0.013  0.00  0.00    +0.030 A 
ATOM     23  C   UNL     1       2.418   0.054  -0.021  0.00  0.00    +0.089 A 
ATOM     24  C   UNL     1       1.217  -0.675  -0.013  0.00  0.00    +0.066 A 
ATOM     25  C   UNL     1       0.002  -0.004   0.002  0.00  0.00    +0.028 A 
ATOM     26  N   UNL     1       1.580  -2.007  -0.024  0.00  0.00    -0.341 N 
ATOM     27  H   UNL     1       0.977  -2.767  -0.022  0.00  0.00    +0.167 HD
ATOM     28  C   UNL     1       2.939  -2.056  -0.038  0.00  0.00    +0.122 A 
ATOM     29  N   UNL     1       3.430  -0.852  -0.036  0.00  0.00    -0.231 NA
ENDBRANCH  19  28
ENDBRANCH   1  19
TORSDOF 5
