REMARK  Name = ZINC13127502
REMARK  6 active torsions:
REMARK  status: ('A' for Active; 'I' for Inactive)
REMARK    1  A    between atoms: C_1  and  O_2
REMARK    2  A    between atoms: O_2  and  C_3
REMARK    3  A    between atoms: C_8  and  C_9
REMARK    4  A    between atoms: C_15  and  C_18
REMARK    5  A    between atoms: C_21  and  O_25
REMARK    6  A    between atoms: C_22  and  O_24
REMARK                            x       y       z     vdW  Elec       q    Type
REMARK                         _______ _______ _______ _____ _____    ______ ____
ROOT
ATOM      1  C   UNL     1       0.066  -2.829  -0.059  0.00  0.00    +0.189 A 
ATOM      2  N   UNL     1      -0.555  -2.389   1.018  0.00  0.00    -0.126 NA
ATOM      3  N   UNL     1      -0.955  -3.382   1.740  0.00  0.00    -0.120 NA
ATOM      4  C   UNL     1      -0.619  -4.495   1.171  0.00  0.00    +0.213 A 
ATOM      5  N   UNL     1       0.047  -4.193  -0.000  0.00  0.00    -0.186 N 
ATOM      6  N   UNL     1       0.556  -5.165  -0.854  0.00  0.00    -0.166 NA
ATOM      7  C   UNL     1       0.191  -6.396  -0.849  0.00  0.00    +0.080 C 
ATOM      8  C   UNL     1      -0.864  -7.009   0.025  0.00  0.00    +0.135 C 
ATOM      9  S   UNL     1      -0.884  -6.174   1.649  0.00  0.00    -0.078 S 
ENDROOT
BRANCH   1  15
ATOM     10  C   UNL     1       0.606  -0.607  -1.055  0.00  0.00    +0.131 A 
ATOM     11  C   UNL     1       1.172   0.158  -2.061  0.00  0.00    +0.046 A 
ATOM     12  C   UNL     1       1.786  -0.456  -3.137  0.00  0.00    +0.004 A 
ATOM     13  C   UNL     1       1.840  -1.837  -3.217  0.00  0.00    +0.001 A 
ATOM     14  C   UNL     1       1.280  -2.613  -2.223  0.00  0.00    +0.015 A 
ATOM     15  C   UNL     1       0.662  -2.004  -1.129  0.00  0.00    +0.063 A 
BRANCH  10  17
ATOM     16  C   UNL     1      -0.017   1.425   0.010  0.00  0.00    +0.277 C 
ATOM     17  O   UNL     1       0.002  -0.004   0.002  0.00  0.00    -0.494 OA
ENDBRANCH  10  17
ENDBRANCH   1  15
BRANCH   7  18
ATOM     18  C   UNL     1       0.875  -7.296  -1.795  0.00  0.00    +0.002 A 
ATOM     19  C   UNL     1       0.527  -8.648  -1.851  0.00  0.00    +0.013 A 
ATOM     20  C   UNL     1       1.168  -9.488  -2.737  0.00  0.00    +0.050 A 
ATOM     21  C   UNL     1       2.159  -8.994  -3.573  0.00  0.00    +0.158 A 
ATOM     22  C   UNL     1       2.511  -7.647  -3.522  0.00  0.00    +0.159 A 
ATOM     23  C   UNL     1       1.868  -6.797  -2.642  0.00  0.00    +0.059 A 
BRANCH  22  24
ATOM     24  O   UNL     1       3.484  -7.167  -4.343  0.00  0.00    -0.503 OA
ATOM     25  H   UNL     1       3.157  -6.846  -5.194  0.00  0.00    +0.292 HD
ENDBRANCH  22  24
BRANCH  21  26
ATOM     26  O   UNL     1       2.788  -9.827  -4.444  0.00  0.00    -0.503 OA
ATOM     27  H   UNL     1       2.361  -9.886  -5.310  0.00  0.00    +0.292 HD
ENDBRANCH  21  26
ENDBRANCH   7  18
TORSDOF 5
