REMARK  Name = ZINC22451712
REMARK  5 active torsions:
REMARK  status: ('A' for Active; 'I' for Inactive)
REMARK    1  A    between atoms: C_1  and  C_2
REMARK    2  A    between atoms: C_5  and  C_26
REMARK    3  A    between atoms: C_16  and  C_18
REMARK    4  A    between atoms: C_21  and  O_24
REMARK    5  A    between atoms: O_24  and  C_25
REMARK                            x       y       z     vdW  Elec       q    Type
REMARK                         _______ _______ _______ _____ _____    ______ ____
ROOT
ATOM      1  C   UNL     1       5.149  -4.744   0.341  0.00  0.00    +0.009 C 
ATOM      2  C   UNL     1       4.538  -4.357  -1.007  0.00  0.00    +0.004 C 
ATOM      3  C   UNL     1       3.125  -4.937  -1.113  0.00  0.00    +0.009 C 
ATOM      4  C   UNL     1       2.249  -4.329  -0.014  0.00  0.00    +0.004 C 
ATOM      5  C   UNL     1       2.247  -2.805  -0.155  0.00  0.00    +0.111 C 
ATOM      6  N   UNL     1       3.621  -2.300  -0.046  0.00  0.00    -0.301 N 
ATOM      7  C   UNL     1       4.470  -2.833  -1.119  0.00  0.00    +0.111 C 
ATOM      8  C   UNL     1       3.642  -0.930  -0.038  0.00  0.00    +0.199 A 
ATOM      9  N   UNL     1       4.838  -0.282  -0.046  0.00  0.00    -0.295 N 
ATOM     10  H   UNL     1       5.775  -0.858  -0.059  0.00  0.00    +0.172 HD
ATOM     11  C   UNL     1       4.879   1.067  -0.040  0.00  0.00    +0.253 A 
ATOM     12  O   UNL     1       5.948   1.655  -0.048  0.00  0.00    -0.268 OA
ATOM     13  C   UNL     1       3.672   1.780  -0.029  0.00  0.00    +0.098 A 
ATOM     14  C   UNL     1       2.479   1.071  -0.016  0.00  0.00    +0.080 A 
ATOM     15  N   UNL     1       2.504  -0.270  -0.023  0.00  0.00    -0.216 NA
ATOM     16  C   UNL     1       0.820  -4.857  -0.149  0.00  0.00    +0.009 C 
ENDROOT
BRANCH  14  17
ATOM     17  C   UNL     1       1.186   1.791   0.000  0.00  0.00    +0.001 A 
ATOM     18  C   UNL     1      -0.013   1.076   0.008  0.00  0.00    +0.013 A 
ATOM     19  C   UNL     1      -1.215   1.749   0.017  0.00  0.00    +0.046 A 
ATOM     20  C   UNL     1      -1.234   3.138   0.030  0.00  0.00    +0.120 A 
ATOM     21  C   UNL     1      -0.043   3.853   0.022  0.00  0.00    +0.046 A 
ATOM     22  C   UNL     1       1.162   3.186   0.008  0.00  0.00    +0.013 A 
BRANCH  20  23
ATOM     23  O   UNL     1      -2.421   3.799   0.044  0.00  0.00    -0.495 OA
ATOM     24  C   UNL     1      -3.607   3.002   0.051  0.00  0.00    +0.277 C 
ENDBRANCH  20  23
ENDBRANCH  14  17
TORSDOF 2
