REMARK  Name = ZINC39695729
REMARK  8 active torsions:
REMARK  status: ('A' for Active; 'I' for Inactive)
REMARK    1  A    between atoms: C_1  and  C_2
REMARK    2  A    between atoms: C_2  and  C_3
REMARK    3  A    between atoms: C_6  and  C_9
REMARK    4  A    between atoms: C_13  and  C_22
REMARK    5  A    between atoms: N_24  and  C_25
REMARK    6  A    between atoms: C_25  and  C_27
REMARK    7  A    between atoms: C_25  and  C_28
REMARK    8  A    between atoms: C_34  and  C_38
REMARK                            x       y       z     vdW  Elec       q    Type
REMARK                         _______ _______ _______ _____ _____    ______ ____
ROOT
ATOM      1  C   UNL     1       2.791  -1.915   4.667  0.00  0.00    +0.247 C 
ATOM      2  O   UNL     1       3.970  -2.201   4.599  0.00  0.00    -0.270 OA
ATOM      3  N   UNL     1       2.128  -2.063   5.832  0.00  0.00    -0.296 N 
ATOM      4  C   UNL     1       0.677  -1.892   6.079  0.00  0.00    +0.121 C 
ATOM      5  C   UNL     1       0.312  -3.027   7.062  0.00  0.00    +0.100 C 
ATOM      6  C   UNL     1       1.634  -3.376   7.766  0.00  0.00    -0.004 C 
ATOM      7  C   UNL     1       2.685  -2.439   7.153  0.00  0.00    +0.115 C 
ATOM      8  C   UNL     1       2.009  -4.830   7.495  0.00  0.00    -0.010 C 
ATOM      9  C   UNL     1       3.296  -5.169   8.251  0.00  0.00    -0.082 C 
ATOM     10  N   UNL     1       3.092  -4.956   9.689  0.00  0.00    +0.379 N 
ATOM     11  C   UNL     1       2.822  -3.537   9.952  0.00  0.00    -0.082 C 
ATOM     12  C   UNL     1       1.515  -3.128   9.267  0.00  0.00    -0.010 C 
ATOM     13  H   UNL     1       2.308  -5.509  10.002  0.00  0.00    -0.086 HD
ATOM     14  H   UNL     1       3.921  -5.238  10.191  0.00  0.00    -0.086 HD
ENDROOT
BRANCH   1  18
ATOM     15  C   UNL     1       0.757  -0.451   1.237  0.00  0.00    -0.048 A 
ATOM     16  C   UNL     1       1.888  -1.234   1.086  0.00  0.00    +0.004 A 
ATOM     17  C   UNL     1       2.553  -1.713   2.196  0.00  0.00    +0.013 A 
ATOM     18  C   UNL     1       2.083  -1.405   3.474  0.00  0.00    +0.037 A 
ATOM     19  C   UNL     1       0.942  -0.615   3.619  0.00  0.00    +0.013 A 
ATOM     20  C   UNL     1       0.290  -0.138   2.501  0.00  0.00    +0.004 A 
BRANCH  15  22
ATOM     21  C   UNL     1       0.620   1.426  -0.378  0.00  0.00    +0.009 C 
ATOM     22  C   UNL     1       0.036   0.069   0.021  0.00  0.00    +0.032 C 
ENDBRANCH  15  22
ENDBRANCH   1  18
BRANCH   5  23
ATOM     23  C   UNL     1      -0.217  -4.222   6.312  0.00  0.00    +0.219 C 
ATOM     24  O   UNL     1       0.232  -4.500   5.220  0.00  0.00    -0.275 OA
ATOM     25  N   UNL     1      -1.190  -4.981   6.854  0.00  0.00    -0.305 N 
ATOM     26  H   UNL     1      -1.549  -4.759   7.727  0.00  0.00    +0.149 HD
BRANCH  25  27
ATOM     27  C   UNL     1      -1.704  -6.143   6.124  0.00  0.00    +0.136 C 
ATOM     28  C   UNL     1      -2.799  -5.693   5.155  0.00  0.00    +0.036 C 
BRANCH  27  29
ATOM     29  C   UNL     1      -2.277  -7.137   7.102  0.00  0.00    +0.128 A 
ATOM     30  H   UNL     1      -2.134  -8.945   6.069  0.00  0.00    +0.167 HD
ATOM     31  N   UNL     1      -2.733  -6.841   8.284  0.00  0.00    -0.231 NA
ATOM     32  C   UNL     1      -3.172  -7.970   8.899  0.00  0.00    +0.089 A 
ATOM     33  C   UNL     1      -3.744  -8.226  10.147  0.00  0.00    +0.030 A 
ATOM     34  C   UNL     1      -4.091  -9.503  10.488  0.00  0.00    +0.005 A 
ATOM     35  C   UNL     1      -3.881 -10.553   9.605  0.00  0.00    -0.048 A 
ATOM     36  C   UNL     1      -3.317 -10.323   8.368  0.00  0.00    +0.031 A 
ATOM     37  C   UNL     1      -2.959  -9.033   8.004  0.00  0.00    +0.067 A 
ATOM     38  N   UNL     1      -2.397  -8.473   6.875  0.00  0.00    -0.340 N 
ATOM     39  C   UNL     1      -4.271 -11.953  10.002  0.00  0.00    +0.044 C 
ENDBRANCH  27  29
ENDBRANCH  25  27
ENDBRANCH   5  23
TORSDOF 5
