REMARK  Name = ZINC35853270
REMARK  8 active torsions:
REMARK  status: ('A' for Active; 'I' for Inactive)
REMARK    1  A    between atoms: C_4  and  N_7
REMARK    2  A    between atoms: N_7  and  C_8
REMARK    3  A    between atoms: N_7  and  S_25
REMARK    4  A    between atoms: N_11  and  C_14
REMARK    5  A    between atoms: C_14  and  C_15
REMARK    6  A    between atoms: C_18  and  O_24
REMARK    7  A    between atoms: C_19  and  N_21
REMARK    8  A    between atoms: S_25  and  C_28
REMARK                            x       y       z     vdW  Elec       q    Type
REMARK                         _______ _______ _______ _____ _____    ______ ____
ROOT
ATOM      1  C   UNL     1       3.709  -1.943   0.615  0.00  0.00    +0.095 C 
ATOM      2  C   UNL     1       2.832  -2.956  -0.126  0.00  0.00    +0.006 C 
ATOM      3  C   UNL     1       2.876  -4.297   0.609  0.00  0.00    -0.077 C 
ATOM      4  N   UNL     1       2.377  -4.125   1.979  0.00  0.00    +0.382 N 
ATOM      5  C   UNL     1       3.255  -3.210   2.718  0.00  0.00    -0.077 C 
ATOM      6  C   UNL     1       3.225  -1.827   2.064  0.00  0.00    +0.006 C 
ATOM      7  H   UNL     1       1.444  -3.743   1.950  0.00  0.00    -0.081 HD
ENDROOT
BRANCH   1   8
ATOM      8  N   UNL     1       3.611  -0.637  -0.040  0.00  0.00    -0.200 N 
BRANCH   8  12
ATOM      9  C   UNL     1      -0.119   1.101  -0.672  0.00  0.00    +0.000 A 
ATOM     10  C   UNL     1       0.402   1.033   0.607  0.00  0.00    +0.002 A 
ATOM     11  C   UNL     1       1.639   0.457   0.820  0.00  0.00    +0.025 A 
ATOM     12  C   UNL     1       2.360  -0.054  -0.252  0.00  0.00    +0.052 A 
ATOM     13  C   UNL     1       1.833   0.016  -1.536  0.00  0.00    +0.025 A 
ATOM     14  C   UNL     1       0.595   0.593  -1.742  0.00  0.00    +0.002 A 
ENDBRANCH   8  12
BRANCH   8  15
ATOM     15  S   UNL     1       4.984   0.149  -0.530  0.00  0.00    +0.075 S 
ATOM     16  O   UNL     1       5.935  -0.857  -0.850  0.00  0.00    -0.150 OA
ATOM     17  O   UNL     1       4.575   1.137  -1.466  0.00  0.00    -0.150 OA
BRANCH  15  18
ATOM     18  C   UNL     1       5.617   1.013   0.869  0.00  0.00    +0.109 A 
ATOM     19  C   UNL     1       5.278   2.338   1.074  0.00  0.00    +0.030 A 
ATOM     20  C   UNL     1       5.774   3.016   2.171  0.00  0.00    +0.022 A 
ATOM     21  C   UNL     1       6.610   2.369   3.065  0.00  0.00    +0.041 A 
ATOM     22  C   UNL     1       6.948   1.044   2.859  0.00  0.00    +0.022 A 
ATOM     23  C   UNL     1       6.447   0.365   1.764  0.00  0.00    +0.030 A 
ATOM     24 CL   UNL     1       7.234   3.221   4.443  0.00  0.00    -0.084 Cl
ENDBRANCH  15  18
ENDBRANCH   8  15
ENDBRANCH   1   8
BRANCH   4  25
ATOM     25  C   UNL     1       2.349  -5.428   2.656  0.00  0.00    -0.043 C 
BRANCH  25  26
ATOM     26  C   UNL     1       1.722  -5.274   4.018  0.00  0.00    -0.062 A 
ATOM     27  C   UNL     1       2.514  -4.976   5.112  0.00  0.00    +0.005 A 
ATOM     28  C   UNL     1       1.942  -4.834   6.361  0.00  0.00    +0.048 A 
ATOM     29  C   UNL     1       0.572  -4.989   6.517  0.00  0.00    +0.147 A 
ATOM     30  C   UNL     1      -0.220  -5.287   5.418  0.00  0.00    +0.168 A 
ATOM     31  C   UNL     1       0.356  -5.424   4.170  0.00  0.00    +0.038 A 
BRANCH  30  32
ATOM     32  N   UNL     1      -1.681  -5.455   5.582  0.00  0.00    +0.060 N 
ATOM     33  O   UNL     1      -2.371  -5.714   4.623  0.00  0.00    -0.126 OA
ATOM     34  O   UNL     1      -2.185  -5.331   6.674  0.00  0.00    -0.126 OA
ENDBRANCH  30  32
BRANCH  29  35
ATOM     35  O   UNL     1       0.007  -4.850   7.746  0.00  0.00    -0.504 OA
ATOM     36  H   UNL     1      -0.272  -3.947   7.950  0.00  0.00    +0.292 HD
ENDBRANCH  29  35
ENDBRANCH  25  26
ENDBRANCH   4  25
TORSDOF 8
