REMARK  Name = ZINC03840811
REMARK  8 active torsions:
REMARK  status: ('A' for Active; 'I' for Inactive)
REMARK    1  A    between atoms: C_1  and  C_2
REMARK    2  A    between atoms: C_10  and  C_12
REMARK    3  A    between atoms: C_18  and  C_37
REMARK    4  A    between atoms: C_21  and  O_36
REMARK    5  A    between atoms: C_23  and  C_27
REMARK    6  A    between atoms: C_27  and  C_29
REMARK    7  A    between atoms: C_27  and  C_30
REMARK    8  A    between atoms: N_32  and  C_33
REMARK                            x       y       z     vdW  Elec       q    Type
REMARK                         _______ _______ _______ _____ _____    ______ ____
ROOT
ATOM      1  C   UNL     1       0.614   0.946  -2.651  0.00  0.00    +0.014 C 
ATOM      2  C   UNL     1      -0.171   1.461  -1.443  0.00  0.00    +0.042 C 
ATOM      3  C   UNL     1      -0.270   2.965  -1.525  0.00  0.00    +0.057 A 
ATOM      4  C   UNL     1       0.525   3.743  -0.747  0.00  0.00    +0.015 A 
ATOM      5  S   UNL     1       0.023   5.383  -1.197  0.00  0.00    -0.057 S 
ATOM      6  C   UNL     1      -1.183   4.924  -2.362  0.00  0.00    +0.165 A 
ATOM      7  N   UNL     1      -1.117   3.609  -2.324  0.00  0.00    -0.229 NA
ATOM      8  N   UNL     1      -2.005   5.735  -3.133  0.00  0.00    -0.260 N 
ATOM      9  C   UNL     1      -1.920   7.076  -3.026  0.00  0.00    +0.256 C 
ATOM     10  O   UNL     1      -1.124   7.576  -2.254  0.00  0.00    -0.269 OA
ATOM     11  C   UNL     1       1.556   3.305   0.234  0.00  0.00    +0.051 C 
ATOM     12  C   UNL     1       1.870   1.817  -0.007  0.00  0.00    -0.022 C 
ATOM     13  C   UNL     1       0.548   1.057  -0.160  0.00  0.00    +0.033 C 
ATOM     14  C   UNL     1      -0.339   1.343   1.051  0.00  0.00    +0.123 C 
ATOM     15  C   UNL     1       0.366   0.848   2.317  0.00  0.00    +0.029 C 
ATOM     16  C   UNL     1       1.714   1.554   2.468  0.00  0.00    +0.007 C 
ATOM     17  C   UNL     1       2.586   1.279   1.241  0.00  0.00    +0.008 C 
ATOM     18  C   UNL     1       2.736   1.646  -1.256  0.00  0.00    +0.012 C 
ATOM     19  H   UNL     1      -2.640   5.337  -3.749  0.00  0.00    +0.157 HD
ENDROOT
BRANCH   9  20
ATOM     20  C   UNL     1      -2.788   7.932  -3.840  0.00  0.00    +0.074 A 
ATOM     21  C   UNL     1      -2.863   9.316  -3.878  0.00  0.00    +0.021 A 
ATOM     22  C   UNL     1      -3.772   9.869  -4.745  0.00  0.00    +0.008 A 
ATOM     23  C   UNL     1      -4.548   9.051  -5.504  0.00  0.00    +0.046 A 
ATOM     24  S   UNL     1      -4.027   7.465  -5.035  0.00  0.00    -0.092 S 
ENDBRANCH   9  20
BRANCH  15  25
ATOM     25  C   UNL     1      -0.506   1.149   3.537  0.00  0.00    +0.077 C 
ATOM     26  C   UNL     1      -0.603   2.664   3.732  0.00  0.00    +0.017 C 
BRANCH  25  27
ATOM     27  C   UNL     1       0.109   0.523   4.761  0.00  0.00    +0.216 C 
ATOM     28  O   UNL     1       1.160  -0.076   4.673  0.00  0.00    -0.276 OA
ATOM     29  N   UNL     1      -0.509   0.628   5.955  0.00  0.00    -0.312 N 
ATOM     30  H   UNL     1      -1.349   1.107   6.025  0.00  0.00    +0.149 HD
BRANCH  29  31
ATOM     31  C   UNL     1       0.090   0.019   7.145  0.00  0.00    +0.073 C 
ATOM     32  C   UNL     1      -0.839  -0.746   8.090  0.00  0.00    +0.024 C 
ATOM     33  C   UNL     1      -0.279   0.617   8.505  0.00  0.00    +0.024 C 
ENDBRANCH  29  31
ENDBRANCH  25  27
ENDBRANCH  15  25
BRANCH  14  34
ATOM     34  O   UNL     1      -1.587   0.663   0.901  0.00  0.00    -0.391 OA
ATOM     35  H   UNL     1      -2.173   0.744   1.666  0.00  0.00    +0.210 HD
ENDBRANCH  14  34
TORSDOF 5
