REMARK  Name = ZINC36389825
REMARK  8 active torsions:
REMARK  status: ('A' for Active; 'I' for Inactive)
REMARK    1  A    between atoms: C_1  and  C_2
REMARK    2  A    between atoms: C_7  and  C_8
REMARK    3  A    between atoms: C_7  and  C_9
REMARK    4  A    between atoms: C_11  and  N_13
REMARK    5  A    between atoms: C_14  and  C_16
REMARK    6  A    between atoms: C_16  and  N_17
REMARK    7  A    between atoms: C_20  and  C_24
REMARK    8  A    between atoms: C_20  and  C_25
REMARK                            x       y       z     vdW  Elec       q    Type
REMARK                         _______ _______ _______ _____ _____    ______ ____
ROOT
ATOM      1  N   UNL     1       0.341  -0.621  -6.037  0.00  0.00    -0.215 N 
ATOM      2  C   UNL     1       0.696   0.529  -6.643  0.00  0.00    +0.251 C 
ATOM      3  O   UNL     1       0.408   1.656  -6.301  0.00  0.00    -0.272 OA
ATOM      4  C   UNL     1       1.531   0.120  -7.840  0.00  0.00    +0.135 C 
ATOM      5  N   UNL     1       1.551  -1.351  -7.763  0.00  0.00    -0.281 N 
ATOM      6  C   UNL     1       0.835  -1.688  -6.675  0.00  0.00    +0.310 C 
ATOM      7  O   UNL     1       0.654  -2.835  -6.315  0.00  0.00    -0.252 OA
ATOM      8  C   UNL     1       0.869   0.581  -9.141  0.00  0.00    +0.047 C 
ATOM      9  H   UNL     1       1.997  -1.957  -8.374  0.00  0.00    +0.152 HD
ENDROOT
BRANCH   4  10
ATOM     10  C   UNL     1       2.927   0.677  -7.728  0.00  0.00    -0.012 A 
ATOM     11  C   UNL     1       3.143   1.866  -7.057  0.00  0.00    +0.010 A 
ATOM     12  C   UNL     1       4.422   2.381  -6.951  0.00  0.00    +0.050 A 
ATOM     13  C   UNL     1       5.490   1.705  -7.518  0.00  0.00    +0.166 A 
ATOM     14  C   UNL     1       5.272   0.507  -8.194  0.00  0.00    +0.167 A 
ATOM     15  C   UNL     1       3.989  -0.005  -8.292  0.00  0.00    +0.055 A 
ATOM     16  O   UNL     1       6.470   0.043  -8.656  0.00  0.00    -0.453 OA
ATOM     17  C   UNL     1       7.363   1.171  -8.611  0.00  0.00    +0.466 C 
ATOM     18  O   UNL     1       6.824   1.991  -7.557  0.00  0.00    -0.453 OA
ENDBRANCH   4  10
BRANCH   1  19
ATOM     19  C   UNL     1      -0.478  -0.694  -4.825  0.00  0.00    +0.213 C 
BRANCH  19  21
ATOM     20  N   UNL     1      -0.124  -0.708  -2.377  0.00  0.00    -0.311 N 
ATOM     21  C   UNL     1       0.414  -0.654  -3.611  0.00  0.00    +0.231 C 
ATOM     22  O   UNL     1       1.617  -0.572  -3.746  0.00  0.00    -0.274 OA
ATOM     23  H   UNL     1      -1.085  -0.773  -2.269  0.00  0.00    +0.149 HD
BRANCH  20  33
ATOM     24  C   UNL     1       2.080   1.558  -1.535  0.00  0.00    +0.013 C 
ATOM     25  C   UNL     1       0.998   0.805  -0.758  0.00  0.00    -0.008 C 
ATOM     26  C   UNL     1      -0.411   1.473  -0.730  0.00  0.00    +0.009 C 
ATOM     27  C   UNL     1      -1.123   0.832   0.483  0.00  0.00    +0.005 C 
ATOM     28  C   UNL     1      -0.078  -0.162   1.074  0.00  0.00    -0.003 C 
ATOM     29  C   UNL     1       1.256   0.610   0.778  0.00  0.00    -0.025 C 
ATOM     30  C   UNL     1       1.325   1.945   1.523  0.00  0.00    +0.012 C 
ATOM     31  C   UNL     1       2.490  -0.254   1.047  0.00  0.00    +0.012 C 
ATOM     32  C   UNL     1      -0.004  -1.317   0.030  0.00  0.00    +0.027 C 
ATOM     33  C   UNL     1       0.744  -0.669  -1.197  0.00  0.00    +0.080 C 
ENDBRANCH  20  33
ENDBRANCH  19  21
ENDBRANCH   1  19
TORSDOF 4
