REMARK  Name = ZINC03773527
REMARK  9 active torsions:
REMARK  status: ('A' for Active; 'I' for Inactive)
REMARK    1  A    between atoms: C_1  and  C_2
REMARK    2  A    between atoms: C_7  and  C_8
REMARK    3  A    between atoms: C_8  and  N_9
REMARK    4  A    between atoms: N_9  and  C_10
REMARK    5  A    between atoms: C_10  and  C_12
REMARK    6  A    between atoms: C_10  and  C_17
REMARK    7  A    between atoms: N_19  and  C_20
REMARK    8  A    between atoms: C_29  and  C_31
REMARK    9  A    between atoms: C_31  and  N_32
REMARK                            x       y       z     vdW  Elec       q    Type
REMARK                         _______ _______ _______ _____ _____    ______ ____
ROOT
ATOM      1  N   UNL     1      -5.730   0.668   0.829  0.00  0.00    -0.280 N 
ATOM      2  C   UNL     1      -4.884   0.622  -0.220  0.00  0.00    +0.235 C 
ATOM      3  O   UNL     1      -3.703   0.841  -0.056  0.00  0.00    -0.274 OA
ENDROOT
BRANCH   1   4
ATOM      4  C   UNL     1      -7.149   0.361   0.640  0.00  0.00    +0.144 C 
BRANCH   4  11
ATOM      5  C   UNL     1      -7.502   2.688  -1.037  0.00  0.00    +0.044 C 
ATOM      6  C   UNL     1      -8.152   2.632   0.322  0.00  0.00    -0.046 A 
ATOM      7  C   UNL     1      -8.917   3.695   0.766  0.00  0.00    +0.003 A 
ATOM      8  C   UNL     1      -9.513   3.644   2.011  0.00  0.00    +0.000 A 
ATOM      9  C   UNL     1      -9.345   2.531   2.814  0.00  0.00    +0.000 A 
ATOM     10  C   UNL     1      -8.584   1.466   2.368  0.00  0.00    +0.005 A 
ATOM     11  C   UNL     1      -7.983   1.519   1.124  0.00  0.00    -0.027 A 
ENDBRANCH   4  11
ENDBRANCH   1   4
BRANCH   1  12
ATOM     12  C   UNL     1      -5.229   1.026   2.159  0.00  0.00    +0.199 C 
BRANCH  12  13
ATOM     13  C   UNL     1      -5.583  -0.062   3.139  0.00  0.00    +0.019 A 
ATOM     14  C   UNL     1      -4.950  -0.421   4.282  0.00  0.00    +0.013 A 
ATOM     15  C   UNL     1      -5.461  -1.462   5.034  0.00  0.00    +0.008 A 
ATOM     16  C   UNL     1      -6.581  -2.094   4.605  0.00  0.00    +0.045 A 
ATOM     17  S   UNL     1      -6.952  -1.208   3.099  0.00  0.00    -0.099 S 
ENDBRANCH  12  13
BRANCH  12  18
ATOM     18  C   UNL     1      -5.856   2.324   2.599  0.00  0.00    +0.243 C 
ATOM     19  O   UNL     1      -6.281   3.103   1.773  0.00  0.00    -0.273 OA
ATOM     20  N   UNL     1      -5.945   2.617   3.912  0.00  0.00    -0.284 N 
ATOM     21  H   UNL     1      -5.541   2.030   4.569  0.00  0.00    +0.155 HD
BRANCH  20  22
ATOM     22  C   UNL     1      -6.622   3.772   4.327  0.00  0.00    +0.037 A 
ATOM     23  C   UNL     1      -6.578   4.920   3.548  0.00  0.00    +0.027 A 
ATOM     24  C   UNL     1      -7.249   6.058   3.954  0.00  0.00    +0.051 A 
ATOM     25  C   UNL     1      -7.960   6.059   5.144  0.00  0.00    +0.166 A 
ATOM     26  C   UNL     1      -8.001   4.910   5.929  0.00  0.00    +0.168 A 
ATOM     27  C   UNL     1      -7.332   3.768   5.519  0.00  0.00    +0.072 A 
ATOM     28  O   UNL     1      -8.758   5.165   7.037  0.00  0.00    -0.453 OA
ATOM     29  C   UNL     1      -8.839   6.600   7.124  0.00  0.00    +0.466 C 
ATOM     30  O   UNL     1      -8.690   7.035   5.759  0.00  0.00    -0.453 OA
ENDBRANCH  20  22
ENDBRANCH  12  18
ENDBRANCH   1  12
BRANCH   2  31
ATOM     31  C   UNL     1      -5.407   0.299  -1.595  0.00  0.00    +0.210 C 
BRANCH  31  32
ATOM     32  N   UNL     1      -4.305   0.342  -2.559  0.00  0.00    -0.255 N 
ATOM     33  C   UNL     1      -3.510  -0.752  -2.891  0.00  0.00    +0.048 A 
ATOM     34  C   UNL     1      -3.529  -2.069  -2.449  0.00  0.00    +0.024 A 
ATOM     35  C   UNL     1      -2.619  -2.982  -2.947  0.00  0.00    +0.002 A 
ATOM     36  C   UNL     1      -1.678  -2.602  -3.890  0.00  0.00    +0.001 A 
ATOM     37  C   UNL     1      -1.642  -1.299  -4.343  0.00  0.00    +0.014 A 
ATOM     38  C   UNL     1      -2.555  -0.369  -3.847  0.00  0.00    +0.048 A 
ATOM     39  C   UNL     1      -2.779   1.064  -4.115  0.00  0.00    +0.250 C 
ATOM     40  O   UNL     1      -2.167   1.778  -4.881  0.00  0.00    -0.282 OA
ATOM     41  C   UNL     1      -3.932   1.443  -3.234  0.00  0.00    +0.292 C 
ATOM     42  O   UNL     1      -4.438   2.542  -3.148  0.00  0.00    -0.266 OA
ENDBRANCH  31  32
ENDBRANCH   2  31
TORSDOF 8
