REMARK  Name = ZINC40718224
REMARK  3 active torsions:
REMARK  status: ('A' for Active; 'I' for Inactive)
REMARK    1  A    between atoms: C_1  and  C_2
REMARK    2  A    between atoms: N_6  and  C_8
REMARK    3  A    between atoms: C_13  and  C_15
REMARK                            x       y       z     vdW  Elec       q    Type
REMARK                         _______ _______ _______ _____ _____    ______ ____
ROOT
ATOM      1  C   UNL     1      -0.019   1.526   0.010  0.00  0.00    +0.005 C 
ATOM      2  C   UNL     1       0.002  -0.004   0.002  0.00  0.00    -0.032 C 
ATOM      3  C   UNL     1      -1.438  -0.561   0.083  0.00  0.00    -0.017 C 
ATOM      4  C   UNL     1      -1.284  -1.783   1.023  0.00  0.00    -0.078 C 
ATOM      5  N   UNL     1      -0.286  -1.321   2.022  0.00  0.00    +0.383 N 
ATOM      6  C   UNL     1       0.713  -0.536   1.260  0.00  0.00    -0.075 C 
ATOM      7  H   UNL     1      -0.732  -0.739   2.715  0.00  0.00    -0.081 HD
ENDROOT
BRANCH   5   8
ATOM      8  C   UNL     1       0.359  -2.473   2.664  0.00  0.00    -0.051 C 
ATOM      9  C   UNL     1      -0.684  -3.291   3.454  0.00  0.00    -0.014 C 
ATOM     10  C   UNL     1       0.078  -3.759   4.718  0.00  0.00    -0.000 C 
ATOM     11  C   UNL     1       0.959  -2.532   5.060  0.00  0.00    +0.016 C 
ATOM     12  C   UNL     1       1.405  -1.991   3.684  0.00  0.00    +0.078 C 
BRANCH  12  13
ATOM     13  C   UNL     1       1.443  -0.520   3.709  0.00  0.00    +0.064 C 
ATOM     14  N   UNL     1       1.473   0.616   3.729  0.00  0.00    -0.196 NA
ENDBRANCH  12  13
ENDBRANCH   5   8
TORSDOF 2
