REMARK  Name = ZINC20210964
REMARK  6 active torsions:
REMARK  status: ('A' for Active; 'I' for Inactive)
REMARK    1  A    between atoms: C_1  and  C_2
REMARK    2  A    between atoms: C_6  and  O_8
REMARK    3  A    between atoms: O_8  and  C_9
REMARK    4  A    between atoms: C_9  and  C_10
REMARK    5  A    between atoms: C_16  and  C_17
REMARK    6  A    between atoms: N_21  and  C_22
REMARK                            x       y       z     vdW  Elec       q    Type
REMARK                         _______ _______ _______ _____ _____    ______ ____
ROOT
ATOM      1  C   UNL     1      -2.175  -4.688   4.647  0.00  0.00    +0.137 C 
ATOM      2  N   UNL     1      -1.818  -4.170   5.788  0.00  0.00    -0.166 NA
ATOM      3  N   UNL     1      -1.169  -4.923   6.743  0.00  0.00    -0.152 N 
ATOM      4  C   UNL     1      -0.820  -4.488   8.039  0.00  0.00    +0.153 C 
ATOM      5  N   UNL     1      -1.415  -3.495   8.649  0.00  0.00    -0.283 NA
ATOM      6  C   UNL     1       0.291  -5.271   8.645  0.00  0.00    +0.082 C 
ATOM      7  C   UNL     1       1.209  -4.690   9.504  0.00  0.00    +0.042 C 
ATOM      8  C   UNL     1       0.363  -6.705   8.281  0.00  0.00    +0.273 C 
ATOM      9  O   UNL     1       0.901  -7.514   9.021  0.00  0.00    -0.268 OA
ATOM     10  N   UNL     1      -0.182  -7.091   7.110  0.00  0.00    -0.152 NA
ATOM     11  C   UNL     1      -0.862  -6.223   6.404  0.00  0.00    +0.181 C 
ATOM     12  S   UNL     1      -1.606  -6.375   4.802  0.00  0.00    -0.035 S 
ATOM     13  H   UNL     1      -2.096  -2.981   8.188  0.00  0.00    +0.188 HD
ENDROOT
BRANCH   7  14
ATOM     14  C   UNL     1       1.187  -3.299   9.722  0.00  0.00    +0.047 A 
ATOM     15  C   UNL     1       1.075  -2.661  10.950  0.00  0.00    +0.027 A 
ATOM     16  C   UNL     1       1.095  -1.288  10.700  0.00  0.00    +0.020 A 
ATOM     17  C   UNL     1       1.215  -1.106   9.361  0.00  0.00    +0.092 A 
ATOM     18  N   UNL     1       1.278  -2.318   8.754  0.00  0.00    -0.316 N 
BRANCH  18  19
ATOM     19  C   UNL     1       1.409  -2.538   7.376  0.00  0.00    +0.047 A 
ATOM     20  C   UNL     1       2.414  -3.368   6.897  0.00  0.00    +0.027 A 
ATOM     21  C   UNL     1       2.542  -3.583   5.539  0.00  0.00    +0.022 A 
ATOM     22  C   UNL     1       1.670  -2.972   4.656  0.00  0.00    +0.041 A 
ATOM     23  C   UNL     1       0.668  -2.143   5.130  0.00  0.00    +0.022 A 
ATOM     24  C   UNL     1       0.532  -1.931   6.488  0.00  0.00    +0.027 A 
ATOM     25 CL   UNL     1       1.833  -3.243   2.949  0.00  0.00    -0.084 Cl
ENDBRANCH  18  19
ENDBRANCH   7  14
BRANCH   1  26
ATOM     26  C   UNL     1      -2.890  -4.033   3.494  0.00  0.00    +0.293 C 
BRANCH  26  27
ATOM     27  O   UNL     1      -3.152  -2.664   3.811  0.00  0.00    -0.485 OA
BRANCH  27  33
ATOM     28  C   UNL     1      -5.050   1.611   2.415  0.00  0.00    +0.044 C 
ATOM     29  C   UNL     1      -4.738   0.160   2.153  0.00  0.00    -0.047 A 
ATOM     30  C   UNL     1      -5.108  -0.421   0.954  0.00  0.00    +0.003 A 
ATOM     31  C   UNL     1      -4.824  -1.752   0.711  0.00  0.00    +0.004 A 
ATOM     32  C   UNL     1      -4.169  -2.505   1.666  0.00  0.00    +0.045 A 
ATOM     33  C   UNL     1      -3.796  -1.925   2.870  0.00  0.00    +0.121 A 
ATOM     34  C   UNL     1      -4.078  -0.588   3.109  0.00  0.00    +0.049 A 
ENDBRANCH  27  33
ENDBRANCH  26  27
ENDBRANCH   1  26
TORSDOF 5
