REMARK  Name = ZINC12615268
REMARK  8 active torsions:
REMARK  status: ('A' for Active; 'I' for Inactive)
REMARK    1  A    between atoms: C_6  and  C_7
REMARK    2  A    between atoms: C_10  and  S_12
REMARK    3  A    between atoms: S_12  and  C_13
REMARK    4  A    between atoms: C_13  and  C_14
REMARK    5  A    between atoms: C_14  and  C_16
REMARK    6  A    between atoms: C_16  and  S_17
REMARK    7  A    between atoms: S_17  and  C_18
REMARK    8  A    between atoms: C_21  and  C_23
REMARK                            x       y       z     vdW  Elec       q    Type
REMARK                         _______ _______ _______ _____ _____    ______ ____
ROOT
ATOM      1  C   UNL     1      -6.080  -4.708   0.033  0.00  0.00    +0.154 C 
ATOM      2  O   UNL     1      -5.567  -5.801   0.023  0.00  0.00    -0.296 OA
ENDROOT
BRANCH   1   3
ATOM      3  C   UNL     1      -5.218  -3.471   0.031  0.00  0.00    +0.154 C 
BRANCH   3   4
ATOM      4  S   UNL     1      -3.473  -3.953   0.013  0.00  0.00    -0.058 S 
BRANCH   4   8
ATOM      5  C   UNL     1      -1.266  -0.762   0.010  0.00  0.00    +0.249 A 
ATOM      6  N   UNL     1      -2.474  -0.253   0.029  0.00  0.00    -0.106 NA
ATOM      7  N   UNL     1      -3.339  -1.206   0.026  0.00  0.00    -0.101 NA
ATOM      8  C   UNL     1      -2.717  -2.361   0.014  0.00  0.00    +0.278 A 
ATOM      9  O   UNL     1      -1.394  -2.107   0.004  0.00  0.00    -0.411 OA
BRANCH   5  15
ATOM     10  C   UNL     1       1.222  -0.682  -0.013  0.00  0.00    +0.017 A 
ATOM     11  C   UNL     1       2.405   0.028  -0.021  0.00  0.00    +0.050 A 
ATOM     12  C   UNL     1       2.388   1.415  -0.014  0.00  0.00    +0.166 A 
ATOM     13  C   UNL     1       1.172   2.098   0.002  0.00  0.00    +0.167 A 
ATOM     14  C   UNL     1      -0.017   1.392   0.010  0.00  0.00    +0.062 A 
ATOM     15  C   UNL     1       0.002  -0.004   0.002  0.00  0.00    +0.042 A 
ATOM     16  O   UNL     1       1.426   3.439   0.006  0.00  0.00    -0.453 OA
ATOM     17  C   UNL     1       2.803   3.568   0.406  0.00  0.00    +0.466 C 
ATOM     18  O   UNL     1       3.401   2.329  -0.019  0.00  0.00    -0.453 OA
ENDBRANCH   5  15
ENDBRANCH   4   8
ENDBRANCH   3   4
ENDBRANCH   1   3
BRANCH   1  19
ATOM     19  C   UNL     1      -7.581  -4.579   0.047  0.00  0.00    +0.154 C 
BRANCH  19  20
ATOM     20  S   UNL     1      -8.328  -6.228   0.046  0.00  0.00    -0.058 S 
BRANCH  20  21
ATOM     21  C   UNL     1     -10.035  -5.791   0.064  0.00  0.00    +0.278 A 
ATOM     22  N   UNL     1     -10.525  -4.574   0.080  0.00  0.00    -0.101 NA
ATOM     23  N   UNL     1     -11.810  -4.629   0.086  0.00  0.00    -0.106 NA
ATOM     24  C   UNL     1     -12.192  -5.883   0.083  0.00  0.00    +0.249 A 
ATOM     25  O   UNL     1     -11.076  -6.645   0.069  0.00  0.00    -0.411 OA
BRANCH  24  26
ATOM     26  C   UNL     1     -13.586  -6.373   0.093  0.00  0.00    +0.042 A 
ATOM     27  C   UNL     1     -13.846  -7.744   0.083  0.00  0.00    +0.017 A 
ATOM     28  C   UNL     1     -15.148  -8.200   0.096  0.00  0.00    +0.050 A 
ATOM     29  C   UNL     1     -16.202  -7.298   0.111  0.00  0.00    +0.166 A 
ATOM     30  C   UNL     1     -15.949  -5.927   0.116  0.00  0.00    +0.167 A 
ATOM     31  C   UNL     1     -14.647  -5.465   0.107  0.00  0.00    +0.062 A 
ATOM     32  O   UNL     1     -17.143  -5.264   0.130  0.00  0.00    -0.453 OA
ATOM     33  C   UNL     1     -18.118  -6.237   0.546  0.00  0.00    +0.466 C 
ATOM     34  O   UNL     1     -17.553  -7.492   0.122  0.00  0.00    -0.453 OA
ENDBRANCH  24  26
ENDBRANCH  20  21
ENDBRANCH  19  20
ENDBRANCH   1  19
TORSDOF 8
