REMARK  Name = ZINC19519927
REMARK  8 active torsions:
REMARK  status: ('A' for Active; 'I' for Inactive)
REMARK    1  A    between atoms: C_1  and  C_2
REMARK    2  A    between atoms: C_2  and  O_3
REMARK    3  A    between atoms: O_3  and  C_4
REMARK    4  A    between atoms: C_11  and  C_16
REMARK    5  A    between atoms: C_16  and  C_18
REMARK    6  A    between atoms: C_16  and  N_30
REMARK    7  A    between atoms: N_22  and  C_23
REMARK    8  A    between atoms: C_23  and  C_24
REMARK                            x       y       z     vdW  Elec       q    Type
REMARK                         _______ _______ _______ _____ _____    ______ ____
ROOT
ATOM      1  C   UNL     1       1.654   6.576  -1.453  0.00  0.00    +0.163 C 
ENDROOT
BRANCH   1   9
ATOM      2  C   UNL     1      -4.470   5.651  -1.191  0.00  0.00    +0.121 A 
ATOM      3  C   UNL     1      -4.717   5.900  -2.539  0.00  0.00    +0.047 A 
ATOM      4  C   UNL     1      -3.687   6.226  -3.393  0.00  0.00    +0.030 A 
ATOM      5  C   UNL     1      -2.385   6.309  -2.910  0.00  0.00    +0.049 A 
ATOM      6  C   UNL     1      -2.131   6.058  -1.549  0.00  0.00    +0.002 A 
ATOM      7  C   UNL     1      -3.186   5.727  -0.692  0.00  0.00    +0.055 A 
ATOM      8  C   UNL     1      -0.756   6.149  -1.054  0.00  0.00    +0.021 A 
ATOM      9  C   UNL     1       0.228   6.474  -1.930  0.00  0.00    +0.042 A 
ATOM     10  C   UNL     1      -0.080   6.722  -3.284  0.00  0.00    +0.254 A 
ATOM     11  O   UNL     1       0.819   7.018  -4.053  0.00  0.00    -0.268 OA
ATOM     12  N   UNL     1      -1.339   6.635  -3.749  0.00  0.00    -0.322 N 
ATOM     13  H   UNL     1      -1.528   6.828  -4.816  0.00  0.00    +0.169 HD
BRANCH   2  14
ATOM     14  O   UNL     1      -5.500   5.329  -0.363  0.00  0.00    -0.492 OA
BRANCH  14  16
ATOM     15  C   UNL     1      -7.824   4.894   0.134  0.00  0.00    +0.048 C 
ATOM     16  C   UNL     1      -6.804   5.267  -0.944  0.00  0.00    +0.225 C 
ENDBRANCH  14  16
ENDBRANCH   2  14
ENDBRANCH   1   9
BRANCH   1  17
ATOM     17  N   UNL     1       2.204   7.884  -1.831  0.00  0.00    -0.284 NA
ATOM     18  C   UNL     1       3.556   8.067  -1.279  0.00  0.00    +0.090 C 
ATOM     19  C   UNL     1       4.214   9.250  -1.990  0.00  0.00    +0.051 C 
ATOM     20  C   UNL     1       3.290  10.441  -1.972  0.00  0.00    -0.042 A 
ATOM     21  C   UNL     1       3.820  11.693  -2.242  0.00  0.00    +0.004 A 
ATOM     22  C   UNL     1       3.007  12.809  -2.240  0.00  0.00    +0.000 A 
ATOM     23  C   UNL     1       1.659  12.678  -1.967  0.00  0.00    +0.000 A 
ATOM     24  C   UNL     1       1.131  11.432  -1.696  0.00  0.00    +0.005 A 
ATOM     25  C   UNL     1       1.946  10.309  -1.696  0.00  0.00    -0.030 A 
ATOM     26  C   UNL     1       1.325   8.972  -1.390  0.00  0.00    +0.120 C 
ENDBRANCH   1  17
BRANCH   1  27
ATOM     27  C   UNL     1       2.475   5.483  -2.087  0.00  0.00    +0.173 A 
ATOM     28  N   UNL     1       2.974   5.482  -3.299  0.00  0.00    -0.111 NA
ATOM     29  N   UNL     1       3.610   4.375  -3.467  0.00  0.00    -0.023 NA
ATOM     30  N   UNL     1       3.534   3.671  -2.391  0.00  0.00    -0.044 NA
ATOM     31  N   UNL     1       2.838   4.318  -1.519  0.00  0.00    -0.223 N 
BRANCH  31  32
ATOM     32  C   UNL     1       2.508   3.871  -0.164  0.00  0.00    +0.182 C 
BRANCH  32  33
ATOM     33  C   UNL     1       3.643   4.213   0.767  0.00  0.00    -0.026 A 
ATOM     34  C   UNL     1       3.649   5.423   1.434  0.00  0.00    +0.005 A 
ATOM     35  C   UNL     1       4.690   5.737   2.288  0.00  0.00    +0.000 A 
ATOM     36  C   UNL     1       5.727   4.842   2.472  0.00  0.00    +0.000 A 
ATOM     37  C   UNL     1       5.718   3.629   1.809  0.00  0.00    +0.000 A 
ATOM     38  C   UNL     1       4.678   3.315   0.955  0.00  0.00    +0.005 A 
ENDBRANCH  32  33
ENDBRANCH  31  32
ENDBRANCH   1  27
TORSDOF 7
