REMARK  Name = ZINC13014472
REMARK  6 active torsions:
REMARK  status: ('A' for Active; 'I' for Inactive)
REMARK    1  A    between atoms: C_1  and  N_2
REMARK    2  A    between atoms: N_7  and  C_10
REMARK    3  A    between atoms: N_11  and  C_15
REMARK    4  A    between atoms: C_15  and  C_16
REMARK    5  A    between atoms: C_16  and  C_18
REMARK    6  A    between atoms: C_22  and  N_24
REMARK                            x       y       z     vdW  Elec       q    Type
REMARK                         _______ _______ _______ _____ _____    ______ ____
ROOT
ATOM      1  C   UNL     1       0.033  11.998  -0.992  0.00  0.00    +0.155 C 
ATOM      2  N   UNL     1       0.300  10.644  -1.482  0.00  0.00    -0.280 N 
ATOM      3  C   UNL     1       0.514   9.612  -0.583  0.00  0.00    +0.169 A 
ATOM      4  C   UNL     1       0.771   8.338  -1.073  0.00  0.00    +0.153 A 
ATOM      5  C   UNL     1       0.807   8.132  -2.468  0.00  0.00    +0.282 A 
ATOM      6  O   UNL     1       1.028   7.023  -2.921  0.00  0.00    -0.265 OA
ATOM      7  N   UNL     1       0.595   9.178  -3.294  0.00  0.00    -0.262 N 
ATOM      8  C   UNL     1       0.351  10.406  -2.807  0.00  0.00    +0.333 A 
ATOM      9  O   UNL     1       0.164  11.325  -3.581  0.00  0.00    -0.246 OA
ATOM     10  C   UNL     1       0.631   8.970  -4.744  0.00  0.00    +0.157 C 
ATOM     11  N   UNL     1       0.937   7.525   0.032  0.00  0.00    -0.305 N 
ATOM     12  C   UNL     1       0.791   8.306   1.121  0.00  0.00    +0.181 A 
ATOM     13  N   UNL     1       0.541   9.537   0.750  0.00  0.00    -0.203 NA
ATOM     14 BR   UNL     1       0.925   7.714   2.912  0.00  0.00    -0.008 Br
ENDROOT
BRANCH  11  15
ATOM     15  C   UNL     1       1.225   6.088   0.022  0.00  0.00    +0.204 C 
BRANCH  15  16
ATOM     16  C   UNL     1      -0.070   5.317   0.031  0.00  0.00    +0.183 C 
ATOM     17  O   UNL     1      -1.128   5.909   0.044  0.00  0.00    -0.290 OA
BRANCH  16  18
ATOM     18  C   UNL     1      -0.050   3.846   0.023  0.00  0.00    +0.021 A 
ATOM     19  C   UNL     1       1.169   3.159   0.008  0.00  0.00    +0.011 A 
ATOM     20  C   UNL     1       1.179   1.781   0.000  0.00  0.00    +0.003 A 
ATOM     21  C   UNL     1      -0.013   1.076   0.008  0.00  0.00    +0.033 A 
ATOM     22  C   UNL     1      -1.222   1.748   0.017  0.00  0.00    +0.127 A 
ATOM     23  C   UNL     1      -1.249   3.127   0.031  0.00  0.00    +0.044 A 
BRANCH  22  24
ATOM     24  N   UNL     1      -2.490   0.985   0.019  0.00  0.00    +0.056 N 
ATOM     25  O   UNL     1      -2.468  -0.233   0.013  0.00  0.00    -0.126 OA
ATOM     26  O   UNL     1      -3.556   1.574   0.028  0.00  0.00    -0.126 OA
ENDBRANCH  22  24
ENDBRANCH  16  18
ENDBRANCH  15  16
ENDBRANCH  11  15
TORSDOF 4
