REMARK  Name = ZINC39465972
REMARK  5 active torsions:
REMARK  status: ('A' for Active; 'I' for Inactive)
REMARK    1  A    between atoms: C_4  and  C_7
REMARK    2  A    between atoms: C_7  and  C_8
REMARK    3  A    between atoms: P_22  and  S_25
REMARK    4  A    between atoms: S_25  and  O_28
REMARK    5  A    between atoms: O_28  and  C_29
REMARK                            x       y       z     vdW  Elec       q    Type
REMARK                         _______ _______ _______ _____ _____    ______ ____
ROOT
ATOM      1  C   UNL     1       4.164  -0.959   1.377  0.00  0.00    -0.024 A 
ATOM      2  C   UNL     1       3.973  -2.199   1.954  0.00  0.00    +0.011 A 
ATOM      3  C   UNL     1       4.388  -2.440   3.256  0.00  0.00    -0.023 A 
ATOM      4  C   UNL     1       4.994  -1.432   3.975  0.00  0.00    -0.040 A 
ATOM      5  C   UNL     1       5.188  -0.188   3.397  0.00  0.00    +0.024 A 
ATOM      6  C   UNL     1       4.778   0.049   2.099  0.00  0.00    +0.045 A 
ATOM      7 CL   UNL     1       5.027   1.608   1.377  0.00  0.00    -0.083 Cl
ATOM      8  C   UNL     1       5.458  -1.648   5.393  0.00  0.00    +0.052 C 
ATOM      9  C   UNL     1       5.582  -3.146   5.671  0.00  0.00    +0.108 C 
ATOM     10  N   UNL     1       4.323  -3.804   5.290  0.00  0.00    -0.224 NA
ATOM     11  C   UNL     1       4.156  -3.810   3.837  0.00  0.00    +0.129 C 
ATOM     12  C   UNL     1       2.753  -4.287   3.447  0.00  0.00    +0.195 C 
ATOM     13  O   UNL     1       2.583  -5.643   3.904  0.00  0.00    -0.296 OA
ATOM     14  P   UNL     1       2.952  -5.986   5.451  0.00  0.00    +0.458 P 
ATOM     15  O   UNL     1       3.255  -7.428   5.596  0.00  0.00    -0.243 OA
ATOM     16  N   UNL     1       4.293  -5.083   5.800  0.00  0.00    -0.158 NA
ATOM     17  H   UNL     1       5.020  -5.436   6.335  0.00  0.00    +0.152 HD
ENDROOT
BRANCH  14  18
ATOM     18  S   UNL     1       1.347  -5.444   6.725  0.00  0.00    +0.211 S 
ATOM     19  O   UNL     1       1.687  -5.905   8.025  0.00  0.00    -0.126 OA
ATOM     20  O   UNL     1       1.055  -4.080   6.452  0.00  0.00    -0.126 OA
BRANCH  18  21
ATOM     21  O   UNL     1       0.131  -6.246   6.283  0.00  0.00    -0.339 OA
BRANCH  21  22
ATOM     22  C   UNL     1       0.169  -7.554   6.649  0.00  0.00    +0.157 A 
ATOM     23  C   UNL     1       0.747  -8.494   5.808  0.00  0.00    +0.048 A 
ATOM     24  C   UNL     1       0.785  -9.823   6.183  0.00  0.00    +0.004 A 
ATOM     25  C   UNL     1       0.247 -10.217   7.394  0.00  0.00    +0.000 A 
ATOM     26  C   UNL     1      -0.330  -9.282   8.233  0.00  0.00    +0.004 A 
ATOM     27  C   UNL     1      -0.365  -7.951   7.866  0.00  0.00    +0.048 A 
ENDBRANCH  21  22
ENDBRANCH  18  21
ENDBRANCH  14  18
BRANCH   1  28
ATOM     28  C   UNL     1       3.711  -0.707  -0.038  0.00  0.00    +0.071 C 
BRANCH  28  32
ATOM     29  C   UNL     1      -0.017   1.378   0.010  0.00  0.00    +0.000 A 
ATOM     30  C   UNL     1       1.171   2.086   0.002  0.00  0.00    +0.000 A 
ATOM     31  C   UNL     1       2.377   1.411  -0.013  0.00  0.00    +0.004 A 
ATOM     32  C   UNL     1       2.396   0.029  -0.020  0.00  0.00    -0.043 A 
ATOM     33  C   UNL     1       1.208  -0.679  -0.012  0.00  0.00    +0.004 A 
ATOM     34  C   UNL     1       0.002  -0.004   0.002  0.00  0.00    +0.000 A 
ENDBRANCH  28  32
ENDBRANCH   1  28
TORSDOF 5
