REMARK  Name = ZINC21528214
REMARK  8 active torsions:
REMARK  status: ('A' for Active; 'I' for Inactive)
REMARK    1  A    between atoms: C_1  and  C_2
REMARK    2  A    between atoms: C_2  and  N_3
REMARK    3  A    between atoms: C_9  and  C_15
REMARK    4  A    between atoms: C_10  and  C_14
REMARK    5  A    between atoms: N_17  and  C_18
REMARK    6  A    between atoms: C_18  and  C_19
REMARK    7  A    between atoms: C_19  and  N_20
REMARK    8  A    between atoms: C_25  and  C_27
REMARK                            x       y       z     vdW  Elec       q    Type
REMARK                         _______ _______ _______ _____ _____    ______ ____
ROOT
ATOM      1  N   UNL     1      -9.850   1.495   0.019  0.00  0.00    +0.380 N 
ATOM      2  C   UNL     1      -9.968   0.743   1.275  0.00  0.00    -0.075 C 
ATOM      3  C   UNL     1      -8.819  -0.263   1.378  0.00  0.00    +0.034 C 
ATOM      4  C   UNL     1      -8.868  -1.209   0.177  0.00  0.00    +0.141 C 
ATOM      5  C   UNL     1      -8.805  -0.404  -1.121  0.00  0.00    +0.034 C 
ATOM      6  C   UNL     1      -9.954   0.607  -1.145  0.00  0.00    -0.075 C 
ATOM      7  C   UNL     1      -7.718  -2.184   0.239  0.00  0.00    +0.067 C 
ATOM      8  C   UNL     1      -8.258  -3.412   0.312  0.00  0.00    +0.045 C 
ATOM      9  C   UNL     1      -9.726  -3.297   0.295  0.00  0.00    +0.336 C 
ATOM     10  O   UNL     1     -10.499  -4.232   0.349  0.00  0.00    -0.245 OA
ATOM     11  O   UNL     1     -10.083  -2.002   0.212  0.00  0.00    -0.450 OA
ATOM     12  C   UNL     1      -7.484  -4.702   0.397  0.00  0.00    +0.052 C 
ATOM     13  H   UNL     1      -8.852   1.958  -0.002  0.00  0.00    -0.082 HD
ENDROOT
BRANCH   7  14
ATOM     14  C   UNL     1      -6.279  -1.852   0.228  0.00  0.00    +0.244 C 
ATOM     15  O   UNL     1      -5.451  -2.740   0.288  0.00  0.00    -0.270 OA
ATOM     16  N   UNL     1      -5.885  -0.566   0.151  0.00  0.00    -0.313 N 
ATOM     17  H   UNL     1      -6.634   0.237   0.097  0.00  0.00    +0.149 HD
BRANCH  16  18
ATOM     18  C   UNL     1      -4.457  -0.237   0.140  0.00  0.00    +0.086 C 
BRANCH  18  19
ATOM     19  C   UNL     1      -4.284   1.280   0.048  0.00  0.00    -0.059 C 
BRANCH  19  20
ATOM     20  N   UNL     1      -2.852   1.610   0.036  0.00  0.00    +0.382 N 
ATOM     21  C   UNL     1      -2.207   1.109  -1.184  0.00  0.00    -0.078 C 
ATOM     22  C   UNL     1      -0.756   1.594  -1.230  0.00  0.00    -0.019 C 
ATOM     23  C   UNL     1      -0.013   1.086   0.008  0.00  0.00    -0.003 C 
ATOM     24  C   UNL     1      -0.732   1.581   1.266  0.00  0.00    -0.016 C 
ATOM     25  C   UNL     1      -2.185   1.096   1.239  0.00  0.00    -0.072 C 
ATOM     26  C   UNL     1      -2.914   1.605   2.484  0.00  0.00    -0.013 C 
ATOM     27  H   UNL     1      -2.756   2.705   0.042  0.00  0.00    -0.081 HD
ENDBRANCH  19  20
ENDBRANCH  18  19
ENDBRANCH  16  18
ENDBRANCH   7  14
BRANCH   1  29
ATOM     28  C   UNL     1     -10.866   3.165  -1.456  0.00  0.00    -0.017 C 
ATOM     29  C   UNL     1     -10.850   2.569  -0.047  0.00  0.00    -0.082 C 
ENDBRANCH   1  29
TORSDOF 5
