REMARK  Name = ZINC05490665
REMARK  6 active torsions:
REMARK  status: ('A' for Active; 'I' for Inactive)
REMARK    1  A    between atoms: C_1  and  C_2
REMARK    2  A    between atoms: C_2  and  N_3
REMARK    3  A    between atoms: C_13  and  S_16
REMARK    4  A    between atoms: S_16  and  C_17
REMARK    5  A    between atoms: C_17  and  C_19
REMARK    6  A    between atoms: C_17  and  C_20
REMARK                            x       y       z     vdW  Elec       q    Type
REMARK                         _______ _______ _______ _____ _____    ______ ____
ROOT
ATOM      1  N   UNL     1       2.183   4.106   0.002  0.00  0.00    -0.324 N 
ATOM      2  C   UNL     1       1.165   3.166   0.007  0.00  0.00    +0.053 A 
ATOM      3  C   UNL     1       1.175   1.775   0.000  0.00  0.00    +0.026 A 
ATOM      4  C   UNL     1      -0.013   1.076   0.008  0.00  0.00    +0.002 A 
ATOM      5  C   UNL     1      -1.226   1.746   0.017  0.00  0.00    +0.001 A 
ATOM      6  C   UNL     1      -1.257   3.124   0.030  0.00  0.00    +0.012 A 
ATOM      7  C   UNL     1      -0.064   3.844   0.022  0.00  0.00    +0.029 A 
ATOM      8  C   UNL     1       0.255   5.282   0.026  0.00  0.00    +0.138 A 
ATOM      9  C   UNL     1       1.661   5.376   0.013  0.00  0.00    +0.165 A 
ATOM     10  N   UNL     1       2.212   6.586   0.013  0.00  0.00    -0.201 NA
ATOM     11  C   UNL     1       1.428   7.656   0.026  0.00  0.00    +0.212 A 
ATOM     12  N   UNL     1       0.104   7.542   0.038  0.00  0.00    -0.122 NA
ATOM     13  N   UNL     1      -0.473   6.389   0.038  0.00  0.00    -0.143 NA
ENDROOT
BRANCH   1  15
ATOM     14  C   UNL     1       4.098   3.686  -1.460  0.00  0.00    +0.027 C 
ATOM     15  C   UNL     1       3.613   3.790  -0.013  0.00  0.00    +0.120 C 
ENDBRANCH   1  15
BRANCH  11  16
ATOM     16  S   UNL     1       2.156   9.261   0.026  0.00  0.00    -0.066 S 
BRANCH  16  17
ATOM     17  C   UNL     1       0.663  10.284   0.045  0.00  0.00    +0.153 C 
ATOM     18  C   UNL     1      -0.115  10.075  -1.256  0.00  0.00    +0.035 C 
BRANCH  17  19
ATOM     19  C   UNL     1       1.041  11.701   0.169  0.00  0.00    +0.077 C 
ATOM     20  N   UNL     1       1.332  12.795   0.265  0.00  0.00    -0.195 NA
ENDBRANCH  17  19
ENDBRANCH  16  17
ENDBRANCH  11  16
TORSDOF 4
