REMARK  Name = ZINC45070914
REMARK  4 active torsions:
REMARK  status: ('A' for Active; 'I' for Inactive)
REMARK    1  A    between atoms: C_1  and  C_2
REMARK    2  A    between atoms: C_2  and  C_3
REMARK    3  A    between atoms: C_2  and  S_4
REMARK    4  A    between atoms: S_4  and  C_7
REMARK                            x       y       z     vdW  Elec       q    Type
REMARK                         _______ _______ _______ _____ _____    ______ ____
ROOT
ATOM      1  S   UNL     1      -1.700  -0.632   0.015  0.00  0.00    -0.010 S 
ATOM      2  O   UNL     1      -3.096  -0.506   0.247  0.00  0.00    -0.172 OA
ATOM      3  O   UNL     1      -1.066   0.264  -0.888  0.00  0.00    -0.172 OA
ENDROOT
BRANCH   1   4
ATOM      4  C   UNL     1      -1.359  -2.329  -0.526  0.00  0.00    +0.132 C 
ATOM      5  C   UNL     1      -0.495  -2.299  -1.789  0.00  0.00    +0.026 C 
ATOM      6  C   UNL     1      -0.207  -3.730  -2.245  0.00  0.00    +0.002 C 
ATOM      7  C   UNL     1      -1.527  -4.444  -2.546  0.00  0.00    +0.000 C 
ATOM      8  C   UNL     1      -2.390  -4.475  -1.284  0.00  0.00    +0.002 C 
ATOM      9  C   UNL     1      -2.678  -3.044  -0.827  0.00  0.00    +0.026 C 
ENDBRANCH   1   4
BRANCH   1  11
ATOM     10  C   UNL     1      -0.736   0.922   2.049  0.00  0.00    +0.052 C 
ATOM     11  C   UNL     1      -0.842  -0.540   1.611  0.00  0.00    +0.155 C 
ATOM     12  C   UNL     1      -1.628  -1.331   2.659  0.00  0.00    +0.052 C 
ATOM     13 CL   UNL     1       0.811  -1.239   1.446  0.00  0.00    -0.094 Cl
ENDBRANCH   1  11
TORSDOF 2
