REMARK  Name = ZINC40080553
REMARK  10 active torsions:
REMARK  status: ('A' for Active; 'I' for Inactive)
REMARK    1  A    between atoms: C_1  and  C_2
REMARK    2  A    between atoms: C_2  and  C_4
REMARK    3  A    between atoms: C_2  and  N_21
REMARK    4  A    between atoms: N_6  and  C_7
REMARK    5  A    between atoms: C_7  and  C_8
REMARK    6  A    between atoms: C_8  and  C_9
REMARK    7  A    between atoms: C_8  and  C_10
REMARK    8  A    between atoms: C_8  and  N_11
REMARK    9  A    between atoms: C_22  and  C_24
REMARK   10  A    between atoms: C_28  and  N_30
REMARK                            x       y       z     vdW  Elec       q    Type
REMARK                         _______ _______ _______ _____ _____    ______ ____
ROOT
ATOM      1  C   UNL     1       0.525  -0.956  -2.219  0.00  0.00    +0.233 C 
ATOM      2  O   UNL     1       0.247  -1.625  -3.191  0.00  0.00    -0.274 OA
ATOM      3  N   UNL     1       1.774  -0.470  -2.071  0.00  0.00    -0.315 N 
ATOM      4  H   UNL     1       1.997   0.065  -1.293  0.00  0.00    +0.149 HD
ENDROOT
BRANCH   1   6
ATOM      5  C   UNL     1      -0.727   0.845  -1.062  0.00  0.00    +0.038 C 
ATOM      6  C   UNL     1      -0.524  -0.667  -1.177  0.00  0.00    +0.156 C 
BRANCH   6   7
ATOM      7  N   UNL     1      -1.786  -1.301  -1.566  0.00  0.00    -0.300 N 
ATOM      8  C   UNL     1      -2.696  -1.624  -0.625  0.00  0.00    +0.245 C 
ATOM      9  O   UNL     1      -2.469  -1.390   0.546  0.00  0.00    -0.270 OA
ATOM     10  H   UNL     1      -1.967  -1.488  -2.500  0.00  0.00    +0.150 HD
BRANCH   8  11
ATOM     11  C   UNL     1      -3.970  -2.264  -1.018  0.00  0.00    +0.039 A 
ATOM     12  C   UNL     1      -4.231  -2.540  -2.361  0.00  0.00    +0.013 A 
ATOM     13  C   UNL     1      -5.421  -3.137  -2.721  0.00  0.00    +0.003 A 
ATOM     14  C   UNL     1      -6.355  -3.462  -1.753  0.00  0.00    +0.033 A 
ATOM     15  C   UNL     1      -6.103  -3.191  -0.420  0.00  0.00    +0.127 A 
ATOM     16  C   UNL     1      -4.914  -2.600  -0.047  0.00  0.00    +0.045 A 
BRANCH  15  17
ATOM     17  N   UNL     1      -7.108  -3.542   0.608  0.00  0.00    +0.056 N 
ATOM     18  O   UNL     1      -8.148  -4.066   0.282  0.00  0.00    -0.126 OA
ATOM     19  O   UNL     1      -6.889  -3.306   1.773  0.00  0.00    -0.126 OA
ENDBRANCH  15  17
ENDBRANCH   8  11
ENDBRANCH   6   7
ENDBRANCH   1   6
BRANCH   3  20
ATOM     20  C   UNL     1       2.794  -0.751  -3.084  0.00  0.00    +0.092 C 
BRANCH  20  21
ATOM     21  C   UNL     1       4.112  -0.089  -2.678  0.00  0.00    -0.055 C 
ATOM     22  C   UNL     1       5.178  -0.382  -3.736  0.00  0.00    -0.008 C 
ATOM     23  C   UNL     1       3.909   1.423  -2.563  0.00  0.00    -0.008 C 
BRANCH  21  24
ATOM     24  N   UNL     1       4.550  -0.623  -1.381  0.00  0.00    +0.387 N 
ATOM     25  C   UNL     1       5.868  -0.068  -1.040  0.00  0.00    -0.073 C 
ATOM     26  C   UNL     1       6.165  -0.385   0.427  0.00  0.00    +0.017 C 
ATOM     27  C   UNL     1       5.953  -1.855   0.684  0.00  0.00    -0.048 A 
ATOM     28  C   UNL     1       6.489  -2.413   1.835  0.00  0.00    +0.004 A 
ATOM     29  C   UNL     1       6.313  -3.755   2.106  0.00  0.00    +0.000 A 
ATOM     30  C   UNL     1       5.598  -4.546   1.225  0.00  0.00    +0.000 A 
ATOM     31  C   UNL     1       5.066  -3.992   0.079  0.00  0.00    +0.002 A 
ATOM     32  C   UNL     1       5.244  -2.644  -0.196  0.00  0.00    -0.061 A 
ATOM     33  C   UNL     1       4.653  -2.083  -1.462  0.00  0.00    -0.042 C 
ATOM     34  H   UNL     1       3.881  -0.371  -0.669  0.00  0.00    -0.080 HD
ENDBRANCH  21  24
ENDBRANCH  20  21
ENDBRANCH   3  20
TORSDOF 7
