REMARK  Name = ZINC21445735
REMARK  8 active torsions:
REMARK  status: ('A' for Active; 'I' for Inactive)
REMARK    1  A    between atoms: C_6  and  C_7
REMARK    2  A    between atoms: C_10  and  C_12
REMARK    3  A    between atoms: C_12  and  C_13
REMARK    4  A    between atoms: C_13  and  C_14
REMARK    5  A    between atoms: N_16  and  C_17
REMARK    6  A    between atoms: C_18  and  C_26
REMARK    7  A    between atoms: N_28  and  C_29
REMARK    8  A    between atoms: C_29  and  C_30
REMARK                            x       y       z     vdW  Elec       q    Type
REMARK                         _______ _______ _______ _____ _____    ______ ____
ROOT
ATOM      1  C   UNL     1      -7.762   2.318  -1.435  0.00  0.00    +0.084 A 
ATOM      2  C   UNL     1      -7.045   1.279  -0.859  0.00  0.00    +0.069 A 
ATOM      3  C   UNL     1      -7.657   0.577   0.256  0.00  0.00    -0.023 A 
ATOM      4  C   UNL     1      -8.883   1.019   0.611  0.00  0.00    -0.004 A 
ATOM      5  S   UNL     1      -9.227   2.346  -0.509  0.00  0.00    -0.077 S 
ATOM      6  C   UNL     1      -9.748   0.493   1.714  0.00  0.00    +0.043 C 
ATOM      7  C   UNL     1      -9.199  -0.874   2.150  0.00  0.00    +0.005 C 
ATOM      8  C   UNL     1      -7.686  -0.756   2.350  0.00  0.00    +0.005 C 
ATOM      9  C   UNL     1      -6.994  -0.578   0.997  0.00  0.00    +0.037 C 
ENDROOT
BRANCH   1  12
ATOM     10  C   UNL     1      -8.233   4.102  -2.919  0.00  0.00    +0.218 C 
ATOM     11  O   UNL     1      -9.306   4.258  -2.375  0.00  0.00    -0.275 OA
ATOM     12  N   UNL     1      -7.397   3.135  -2.494  0.00  0.00    -0.279 N 
ATOM     13  H   UNL     1      -6.424   2.993  -2.987  0.00  0.00    +0.155 HD
BRANCH  10  14
ATOM     14  C   UNL     1      -7.836   4.990  -4.070  0.00  0.00    +0.105 C 
BRANCH  14  15
ATOM     15  C   UNL     1      -8.955   5.995  -4.349  0.00  0.00    +0.105 C 
BRANCH  15  19
ATOM     16  C   UNL     1      -7.729   8.536  -6.642  0.00  0.00    +0.155 A 
ATOM     17  C   UNL     1      -8.303   7.649  -7.495  0.00  0.00    +0.161 A 
ATOM     18  N   UNL     1      -8.797   6.642  -6.759  0.00  0.00    -0.221 NA
ATOM     19  C   UNL     1      -8.558   6.883  -5.500  0.00  0.00    +0.197 A 
ATOM     20  O   UNL     1      -7.896   8.043  -5.395  0.00  0.00    -0.440 OA
BRANCH  16  26
ATOM     21  C   UNL     1      -6.512  10.616  -6.014  0.00  0.00    +0.014 A 
ATOM     22  C   UNL     1      -5.878  11.791  -6.361  0.00  0.00    +0.039 A 
ATOM     23  C   UNL     1      -5.785  12.164  -7.693  0.00  0.00    +0.123 A 
ATOM     24  C   UNL     1      -6.324  11.358  -8.683  0.00  0.00    +0.039 A 
ATOM     25  C   UNL     1      -6.956  10.179  -8.347  0.00  0.00    +0.014 A 
ATOM     26  C   UNL     1      -7.052   9.798  -7.008  0.00  0.00    +0.019 A 
ATOM     27  F   UNL     1      -5.167  13.318  -8.027  0.00  0.00    -0.205 F 
ENDBRANCH  16  26
ENDBRANCH  15  19
ENDBRANCH  14  15
ENDBRANCH  10  14
ENDBRANCH   1  12
BRANCH   2  28
ATOM     28  C   UNL     1      -5.716   0.907  -1.355  0.00  0.00    +0.247 C 
ATOM     29  O   UNL     1      -5.606   0.070  -2.232  0.00  0.00    -0.270 OA
ATOM     30  N   UNL     1      -4.617   1.492  -0.839  0.00  0.00    -0.309 N 
ATOM     31  H   UNL     1      -4.716   2.248  -0.046  0.00  0.00    +0.149 HD
BRANCH  30  32
ATOM     32  C   UNL     1      -3.289   1.120  -1.334  0.00  0.00    +0.136 C 
BRANCH  32  33
ATOM     33  C   UNL     1      -2.223   1.924  -0.587  0.00  0.00    +0.135 C 
ATOM     34  C   UNL     1      -0.833   1.634  -1.185  0.00  0.00    +0.035 C 
ATOM     35  C   UNL     1      -0.013   1.086   0.008  0.00  0.00    +0.031 C 
ATOM     36  C   UNL     1      -0.810   1.621   1.224  0.00  0.00    +0.160 C 
ATOM     37  O   UNL     1      -2.186   1.524   0.793  0.00  0.00    -0.375 OA
ENDBRANCH  32  33
ENDBRANCH  30  32
ENDBRANCH   2  28
TORSDOF 8
