REMARK  Name = ZINC52595533
REMARK  9 active torsions:
REMARK  status: ('A' for Active; 'I' for Inactive)
REMARK    1  A    between atoms: C_1  and  C_2
REMARK    2  A    between atoms: C_2  and  C_3
REMARK    3  A    between atoms: C_7  and  C_40
REMARK    4  A    between atoms: C_9  and  C_39
REMARK    5  A    between atoms: N_12  and  C_13
REMARK    6  A    between atoms: C_13  and  C_14
REMARK    7  A    between atoms: C_17  and  C_20
REMARK    8  A    between atoms: N_28  and  C_38
REMARK    9  A    between atoms: C_31  and  C_33
REMARK                            x       y       z     vdW  Elec       q    Type
REMARK                         _______ _______ _______ _____ _____    ______ ____
ROOT
ATOM      1  C   UNL     1       0.606  -3.446  -0.401  0.00  0.00    -0.030 A 
ATOM      2  C   UNL     1       1.696  -2.653  -0.712  0.00  0.00    +0.006 A 
ATOM      3  C   UNL     1       2.954  -2.999  -0.266  0.00  0.00    +0.008 A 
ATOM      4  C   UNL     1       3.126  -4.155   0.503  0.00  0.00    -0.020 A 
ATOM      5  C   UNL     1       2.019  -4.951   0.813  0.00  0.00    +0.008 A 
ATOM      6  C   UNL     1       0.767  -4.589   0.363  0.00  0.00    +0.006 A 
ENDROOT
BRANCH   4   7
ATOM      7  C   UNL     1       4.465  -4.531   0.983  0.00  0.00    -0.016 C 
ATOM      8  C   UNL     1       5.145  -3.762   1.877  0.00  0.00    -0.018 C 
ATOM      9  C   UNL     1       4.575  -2.570   2.361  0.00  0.00    +0.006 C 
ATOM     10  C   UNL     1       5.308  -1.706   3.099  0.00  0.00    +0.000 C 
ATOM     11  C   UNL     1       6.706  -2.004   3.398  0.00  0.00    -0.002 C 
ATOM     12  C   UNL     1       7.257  -3.156   3.040  0.00  0.00    -0.000 C 
ATOM     13  C   UNL     1       6.506  -4.229   2.318  0.00  0.00    +0.129 C 
ATOM     14  N   UNL     1       7.256  -4.678   1.137  0.00  0.00    -0.293 N 
ATOM     15  C   UNL     1       6.605  -5.453   0.230  0.00  0.00    +0.231 C 
ATOM     16  O   UNL     1       7.166  -5.856  -0.767  0.00  0.00    -0.274 OA
ATOM     17  C   UNL     1       5.152  -5.798   0.510  0.00  0.00    +0.177 C 
ATOM     18  C   UNL     1       8.659  -4.303   0.943  0.00  0.00    +0.133 C 
BRANCH  17  19
ATOM     19  C   UNL     1       4.493  -6.297  -0.750  0.00  0.00    +0.193 A 
ATOM     20  N   UNL     1       4.396  -5.647  -1.901  0.00  0.00    -0.110 NA
ATOM     21  N   UNL     1       3.765  -6.410  -2.727  0.00  0.00    -0.021 NA
ATOM     22  N   UNL     1       3.464  -7.513  -2.134  0.00  0.00    -0.021 NA
ATOM     23  N   UNL     1       3.904  -7.471  -0.923  0.00  0.00    -0.110 NA
ENDBRANCH  17  19
ENDBRANCH   4   7
BRANCH   1  24
ATOM     24  C   UNL     1      -0.766  -3.061  -0.893  0.00  0.00    +0.143 C 
BRANCH  24  33
ATOM     25  C   UNL     1      -2.103  -2.441   1.268  0.00  0.00    +0.160 C 
ATOM     26  N   UNL     1      -2.506  -1.157   1.855  0.00  0.00    -0.323 N 
ATOM     27  C   UNL     1      -2.029  -0.148   1.010  0.00  0.00    +0.070 A 
ATOM     28  C   UNL     1      -2.131   1.235   1.096  0.00  0.00    -0.025 A 
ATOM     29  C   UNL     1      -1.552   2.006   0.097  0.00  0.00    +0.026 A 
ATOM     30  C   UNL     1      -0.897   1.379  -0.944  0.00  0.00    +0.015 A 
ATOM     31  N   UNL     1      -0.815   0.064  -1.001  0.00  0.00    -0.346 N 
ATOM     32  C   UNL     1      -1.352  -0.715  -0.070  0.00  0.00    +0.122 A 
ATOM     33  N   UNL     1      -1.369  -2.107   0.042  0.00  0.00    -0.292 N 
ATOM     34  C   UNL     1      -0.267   2.209  -2.031  0.00  0.00    +0.063 C 
ATOM     35  C   UNL     1      -2.854   1.884   2.248  0.00  0.00    +0.046 C 
ATOM     36  H   UNL     1      -3.009  -1.031   2.675  0.00  0.00    +0.148 HD
ATOM     37  H   UNL     1      -0.349  -0.347  -1.746  0.00  0.00    +0.167 HD
BRANCH  25  39
ATOM     38  C   UNL     1      -4.022  -3.722   2.228  0.00  0.00    +0.007 C 
ATOM     39  C   UNL     1      -3.339  -3.279   0.933  0.00  0.00    +0.039 C 
ENDBRANCH  25  39
ENDBRANCH  24  33
ENDBRANCH   1  24
TORSDOF 5
