REMARK  Name = ZINC09693178
REMARK  11 active torsions:
REMARK  status: ('A' for Active; 'I' for Inactive)
REMARK    1  A    between atoms: C_1  and  C_2
REMARK    2  A    between atoms: C_7  and  C_8
REMARK    3  A    between atoms: C_8  and  N_9
REMARK    4  A    between atoms: C_10  and  C_22
REMARK    5  A    between atoms: N_16  and  C_21
REMARK    6  A    between atoms: N_19  and  C_20
REMARK    7  A    between atoms: C_22  and  N_68
REMARK    8  A    between atoms: C_23  and  C_24
REMARK    9  A    between atoms: C_23  and  N_68
REMARK   10  A    between atoms: C_30  and  C_31
REMARK   11  A    between atoms: C_30  and  N_68
REMARK                            x       y       z     vdW  Elec       q    Type
REMARK                         _______ _______ _______ _____ _____    ______ ____
ROOT
ATOM      1  N   UNL     1      -1.776   0.495  -0.419  0.00  0.00    -0.319 N 
ATOM      2  C   UNL     1      -1.842   1.818  -0.171  0.00  0.00    +0.096 A 
ATOM      3  N   UNL     1      -0.786   2.412  -0.666  0.00  0.00    -0.216 NA
ATOM      4  C   UNL     1       0.001   1.514  -1.264  0.00  0.00    +0.168 A 
ATOM      5  C   UNL     1      -0.608   0.273  -1.120  0.00  0.00    +0.152 A 
ATOM      6  C   UNL     1       0.022  -0.869  -1.661  0.00  0.00    +0.282 A 
ATOM      7  O   UNL     1      -0.490  -1.968  -1.544  0.00  0.00    -0.265 OA
ATOM      8  N   UNL     1       1.194  -0.727  -2.314  0.00  0.00    -0.262 N 
ATOM      9  C   UNL     1       1.769   0.480  -2.451  0.00  0.00    +0.333 A 
ATOM     10  O   UNL     1       2.826   0.569  -3.046  0.00  0.00    -0.246 OA
ATOM     11  N   UNL     1       1.204   1.593  -1.946  0.00  0.00    -0.280 N 
ATOM     12  C   UNL     1       1.863   2.890  -2.118  0.00  0.00    +0.155 C 
ATOM     13  C   UNL     1       1.850  -1.907  -2.883  0.00  0.00    +0.157 C 
ENDROOT
BRANCH   1  14
ATOM     14  C   UNL     1      -2.758  -0.516  -0.019  0.00  0.00    +0.159 C 
BRANCH  14  21
ATOM     15  C   UNL     1      -4.602  -0.115   2.168  0.00  0.00    +0.044 C 
ATOM     16  C   UNL     1      -3.301  -0.838   2.403  0.00  0.00    -0.046 A 
ATOM     17  C   UNL     1      -2.991  -1.312   3.664  0.00  0.00    +0.004 A 
ATOM     18  C   UNL     1      -1.796  -1.971   3.881  0.00  0.00    +0.000 A 
ATOM     19  C   UNL     1      -0.911  -2.159   2.835  0.00  0.00    +0.000 A 
ATOM     20  C   UNL     1      -1.222  -1.688   1.573  0.00  0.00    +0.005 A 
ATOM     21  C   UNL     1      -2.419  -1.030   1.357  0.00  0.00    -0.025 A 
ENDBRANCH  14  21
ENDBRANCH   1  14
BRANCH   2  22
ATOM     22  C   UNL     1      -2.956   2.506   0.574  0.00  0.00    -0.002 C 
BRANCH  22  23
ATOM     23  N   UNL     1      -2.725   2.355   2.026  0.00  0.00    +0.390 N 
ATOM     24  H   UNL     1      -2.616   1.357   2.244  0.00  0.00    -0.080 HD
BRANCH  23  25
ATOM     25  C   UNL     1      -1.492   3.069   2.418  0.00  0.00    -0.042 C 
BRANCH  25  26
ATOM     26  C   UNL     1      -1.072   2.595   3.786  0.00  0.00    -0.064 A 
ATOM     27  C   UNL     1      -1.563   3.223   4.916  0.00  0.00    +0.002 A 
ATOM     28  C   UNL     1      -1.182   2.784   6.170  0.00  0.00    +0.000 A 
ATOM     29  C   UNL     1      -0.303   1.725   6.295  0.00  0.00    +0.000 A 
ATOM     30  C   UNL     1       0.192   1.101   5.165  0.00  0.00    +0.000 A 
ATOM     31  C   UNL     1      -0.193   1.535   3.910  0.00  0.00    +0.002 A 
ENDBRANCH  25  26
ENDBRANCH  23  25
BRANCH  23  32
ATOM     32  C   UNL     1      -3.879   2.889   2.779  0.00  0.00    -0.042 C 
BRANCH  32  33
ATOM     33  C   UNL     1      -4.188   4.298   2.344  0.00  0.00    -0.064 A 
ATOM     34  C   UNL     1      -3.550   5.364   2.951  0.00  0.00    +0.002 A 
ATOM     35  C   UNL     1      -3.830   6.656   2.548  0.00  0.00    +0.000 A 
ATOM     36  C   UNL     1      -4.755   6.883   1.546  0.00  0.00    +0.000 A 
ATOM     37  C   UNL     1      -5.397   5.818   0.944  0.00  0.00    +0.000 A 
ATOM     38  C   UNL     1      -5.114   4.525   1.343  0.00  0.00    +0.002 A 
ENDBRANCH  32  33
ENDBRANCH  23  32
ENDBRANCH  22  23
ENDBRANCH   2  22
TORSDOF 8
