REMARK  Name = ZINC11824328
REMARK  6 active torsions:
REMARK  status: ('A' for Active; 'I' for Inactive)
REMARK    1  A    between atoms: C_6  and  N_7
REMARK    2  A    between atoms: C_8  and  C_12
REMARK    3  A    between atoms: C_12  and  N_55
REMARK    4  A    between atoms: C_18  and  C_20
REMARK    5  A    between atoms: C_20  and  C_21
REMARK    6  A    between atoms: C_21  and  C_22
REMARK                            x       y       z     vdW  Elec       q    Type
REMARK                         _______ _______ _______ _____ _____    ______ ____
ROOT
ATOM      1  C   UNL     1       3.471  -0.937  -2.136  0.00  0.00    -0.059 C 
ATOM      2  C   UNL     1       3.751  -0.948  -3.642  0.00  0.00    +0.089 C 
ATOM      3  N   UNL     1       5.181  -0.676  -3.854  0.00  0.00    -0.305 N 
ATOM      4  C   UNL     1       5.771   0.499  -3.194  0.00  0.00    +0.089 C 
ATOM      5  C   UNL     1       5.411   0.453  -1.705  0.00  0.00    -0.059 C 
ATOM      6  C   UNL     1       5.931  -1.482  -4.631  0.00  0.00    +0.215 C 
ATOM      7  O   UNL     1       7.109  -1.242  -4.795  0.00  0.00    -0.276 OA
ATOM      8  N   UNL     1       3.941   0.348  -1.575  0.00  0.00    +0.386 N 
ATOM      9  H   UNL     1       3.505   1.118  -2.095  0.00  0.00    -0.081 HD
ENDROOT
BRANCH   8  10
ATOM     10  C   UNL     1       3.553   0.450  -0.153  0.00  0.00    +0.001 C 
BRANCH  10  12
ATOM     11  N   UNL     1       1.335   1.703  -0.023  0.00  0.00    -0.199 N 
ATOM     12  C   UNL     1       2.052   0.560  -0.067  0.00  0.00    +0.140 A 
ATOM     13  N   UNL     1       1.204  -0.433  -0.021  0.00  0.00    -0.115 NA
ATOM     14  N   UNL     1      -0.002   0.004   0.048  0.00  0.00    -0.023 NA
ATOM     15  N   UNL     1      -0.008   1.293   0.052  0.00  0.00    -0.039 NA
BRANCH  11  21
ATOM     16  C   UNL     1       1.276   3.979   0.790  0.00  0.00    +0.029 A 
ATOM     17  C   UNL     1       1.763   5.271   0.769  0.00  0.00    +0.022 A 
ATOM     18  C   UNL     1       2.789   5.611  -0.095  0.00  0.00    +0.041 A 
ATOM     19  C   UNL     1       3.333   4.655  -0.935  0.00  0.00    +0.022 A 
ATOM     20  C   UNL     1       2.853   3.360  -0.913  0.00  0.00    +0.029 A 
ATOM     21  C   UNL     1       1.824   3.018  -0.047  0.00  0.00    +0.069 A 
ATOM     22 CL   UNL     1       3.394   7.237  -0.126  0.00  0.00    -0.084 Cl
ENDBRANCH  11  21
ENDBRANCH  10  12
ENDBRANCH   8  10
BRANCH   6  23
ATOM     23  C   UNL     1       5.306  -2.680  -5.298  0.00  0.00    +0.096 C 
BRANCH  23  24
ATOM     24  C   UNL     1       6.367  -3.420  -6.116  0.00  0.00    +0.013 C 
BRANCH  24  25
ATOM     25  C   UNL     1       5.733  -4.636  -6.793  0.00  0.00    -0.011 C 
ATOM     26  C   UNL     1       5.333  -5.683  -5.731  0.00  0.00    +0.003 C 
ATOM     27  C   UNL     1       5.636  -7.043  -6.406  0.00  0.00    +0.000 C 
ATOM     28  C   UNL     1       6.943  -6.754  -7.187  0.00  0.00    +0.000 C 
ATOM     29  C   UNL     1       6.756  -5.318  -7.718  0.00  0.00    +0.003 C 
ENDBRANCH  24  25
ENDBRANCH  23  24
ENDBRANCH   6  23
TORSDOF 6
