REMARK  Name = ZINC20136783
REMARK  13 active torsions:
REMARK  status: ('A' for Active; 'I' for Inactive)
REMARK    1  A    between atoms: C_1  and  C_2
REMARK    2  A    between atoms: C_2  and  O_3
REMARK    3  A    between atoms: O_3  and  C_4
REMARK    4  A    between atoms: C_4  and  C_6
REMARK    5  A    between atoms: C_7  and  C_33
REMARK    6  A    between atoms: C_9  and  S_20
REMARK    7  A    between atoms: C_10  and  C_18
REMARK    8  A    between atoms: C_11  and  C_13
REMARK    9  A    between atoms: S_20  and  C_21
REMARK   10  A    between atoms: C_21  and  C_22
REMARK   11  A    between atoms: N_24  and  C_25
REMARK   12  A    between atoms: C_29  and  C_32
REMARK   13  A    between atoms: C_30  and  C_31
REMARK                            x       y       z     vdW  Elec       q    Type
REMARK                         _______ _______ _______ _____ _____    ______ ____
ROOT
ATOM      1  C   UNL     1       2.641   4.859  -1.083  0.00  0.00    +0.074 C 
ATOM      2  C   UNL     1       3.630   3.958  -1.327  0.00  0.00    +0.050 C 
ATOM      3  N   UNL     1       4.112   3.154  -0.320  0.00  0.00    -0.308 N 
ATOM      4  C   UNL     1       3.877   3.481   0.997  0.00  0.00    +0.080 C 
ATOM      5  C   UNL     1       2.898   4.364   1.328  0.00  0.00    +0.072 C 
ATOM      6  C   UNL     1       2.033   5.007   0.282  0.00  0.00    +0.136 C 
ATOM      7  H   UNL     1       4.687   2.249  -0.566  0.00  0.00    +0.153 HD
ENDROOT
BRANCH   2   8
ATOM      8  C   UNL     1       4.192   3.841  -2.688  0.00  0.00    -0.003 A 
ATOM      9  C   UNL     1       3.404   3.354  -3.733  0.00  0.00    +0.010 A 
ATOM     10  C   UNL     1       3.934   3.252  -5.002  0.00  0.00    +0.001 A 
ATOM     11  C   UNL     1       5.246   3.621  -5.239  0.00  0.00    +0.000 A 
ATOM     12  C   UNL     1       6.034   4.100  -4.207  0.00  0.00    +0.001 A 
ATOM     13  C   UNL     1       5.516   4.213  -2.934  0.00  0.00    +0.010 A 
ENDBRANCH   2   8
BRANCH   6  14
ATOM     14  C   UNL     1       0.675   4.353   0.293  0.00  0.00    +0.118 A 
ATOM     15  C   UNL     1      -0.495   4.973   0.530  0.00  0.00    +0.045 A 
ATOM     16  C   UNL     1      -1.506   3.990   0.437  0.00  0.00    +0.041 A 
ATOM     17  C   UNL     1      -0.893   2.826   0.156  0.00  0.00    +0.195 A 
ATOM     18  O   UNL     1       0.428   3.053   0.067  0.00  0.00    -0.467 OA
ENDBRANCH   6  14
BRANCH   1  19
ATOM     19  C   UNL     1       2.177   5.671  -2.134  0.00  0.00    +0.338 C 
ATOM     20  O   UNL     1       2.740   5.651  -3.214  0.00  0.00    -0.245 OA
BRANCH  19  21
ATOM     21  O   UNL     1       1.107   6.474  -1.946  0.00  0.00    -0.462 OA
BRANCH  21  23
ATOM     22  C   UNL     1      -0.526   8.108  -2.655  0.00  0.00    +0.048 C 
ATOM     23  C   UNL     1       0.691   7.271  -3.056  0.00  0.00    +0.229 C 
ENDBRANCH  21  23
ENDBRANCH  19  21
ENDBRANCH   1  19
BRANCH   5  24
ATOM     24  C   UNL     1       2.687   4.689   2.707  0.00  0.00    +0.098 C 
ATOM     25  N   UNL     1       2.520   4.947   3.800  0.00  0.00    -0.191 NA
ENDBRANCH   5  24
BRANCH   4  26
ATOM     26  S   UNL     1       4.856   2.748   2.265  0.00  0.00    -0.100 S 
BRANCH  26  27
ATOM     27  C   UNL     1       5.944   1.708   1.261  0.00  0.00    +0.171 C 
BRANCH  27  28
ATOM     28  C   UNL     1       6.897   0.962   2.160  0.00  0.00    +0.227 C 
ATOM     29  O   UNL     1       6.845   1.120   3.361  0.00  0.00    -0.275 OA
ATOM     30  N   UNL     1       7.806   0.121   1.629  0.00  0.00    -0.285 N 
ATOM     31  H   UNL     1       7.904   0.036   0.536  0.00  0.00    +0.155 HD
BRANCH  30  32
ATOM     32  C   UNL     1       8.626  -0.643   2.467  0.00  0.00    +0.037 A 
ATOM     33  C   UNL     1       9.045  -0.129   3.687  0.00  0.00    +0.023 A 
ATOM     34  C   UNL     1       9.849  -0.888   4.515  0.00  0.00    +0.002 A 
ATOM     35  C   UNL     1      10.246  -2.154   4.124  0.00  0.00    +0.004 A 
ATOM     36  C   UNL     1       9.836  -2.665   2.907  0.00  0.00    -0.046 A 
ATOM     37  C   UNL     1       9.027  -1.914   2.077  0.00  0.00    -0.026 A 
ATOM     38  C   UNL     1       8.580  -2.472   0.751  0.00  0.00    +0.046 C 
ATOM     39  C   UNL     1      10.272  -4.045   2.485  0.00  0.00    +0.044 C 
ENDBRANCH  30  32
ENDBRANCH  27  28
ENDBRANCH  26  27
ENDBRANCH   4  26
TORSDOF 10
