REMARK  Name = ZINC09166823
REMARK  2 active torsions:
REMARK  status: ('A' for Active; 'I' for Inactive)
REMARK    1  A    between atoms: C_19  and  O_32
REMARK    2  A    between atoms: N_23  and  C_26
REMARK                            x       y       z     vdW  Elec       q    Type
REMARK                         _______ _______ _______ _____ _____    ______ ____
ROOT
ATOM      1  C   UNL     1      -1.599   6.057   0.031  0.00  0.00    +0.001 A 
ATOM      2  C   UNL     1      -2.731   5.245   0.037  0.00  0.00    +0.002 A 
ATOM      3  C   UNL     1      -2.621   3.888   0.034  0.00  0.00    +0.026 A 
ATOM      4  C   UNL     1      -1.349   3.291   0.024  0.00  0.00    +0.048 A 
ATOM      5  C   UNL     1      -0.200   4.119   0.015  0.00  0.00    -0.001 A 
ATOM      6  C   UNL     1      -0.350   5.514   0.020  0.00  0.00    +0.010 A 
ATOM      7  C   UNL     1       1.071   3.516   0.004  0.00  0.00    +0.017 A 
ATOM      8  C   UNL     1       1.150   2.151   0.003  0.00  0.00    -0.007 A 
ATOM      9  C   UNL     1      -0.017   1.381   0.010  0.00  0.00    +0.103 A 
ATOM     10  N   UNL     1       0.002  -0.004   0.002  0.00  0.00    -0.312 N 
ATOM     11  C   UNL     1      -1.115  -0.550   0.785  0.00  0.00    +0.107 C 
ATOM     12  C   UNL     1      -1.199  -2.063   0.568  0.00  0.00    +0.019 C 
ATOM     13  C   UNL     1       0.119  -2.710   1.000  0.00  0.00    +0.003 C 
ATOM     14  C   UNL     1       1.269  -2.090   0.201  0.00  0.00    +0.024 C 
ATOM     15  C   UNL     1       1.279  -0.576   0.425  0.00  0.00    +0.099 C 
ATOM     16  C   UNL     1       2.408   0.051  -0.402  0.00  0.00    +0.143 C 
ATOM     17  C   UNL     1       2.522   1.524  -0.002  0.00  0.00    +0.066 C 
ATOM     18  C   UNL     1       3.700  -0.654  -0.104  0.00  0.00    +0.198 C 
ATOM     19  N   UNL     1       4.394  -1.252  -1.025  0.00  0.00    -0.131 NA
ATOM     20  C   UNL     1       4.011  -1.285  -2.309  0.00  0.00    +0.335 C 
ATOM     21  O   UNL     1       4.710  -1.861  -3.122  0.00  0.00    -0.250 OA
ATOM     22  N   UNL     1       2.877  -0.698  -2.722  0.00  0.00    -0.220 N 
ATOM     23  C   UNL     1       2.074  -0.049  -1.863  0.00  0.00    +0.240 C 
ATOM     24  O   UNL     1       1.057   0.467  -2.276  0.00  0.00    -0.274 OA
ATOM     25  N   UNL     1      -1.276   1.917   0.019  0.00  0.00    -0.343 N 
ATOM     26  H   UNL     1      -2.118   1.328   0.022  0.00  0.00    +0.167 HD
ENDROOT
BRANCH  22  27
ATOM     27  C   UNL     1       2.507  -0.766  -4.138  0.00  0.00    +0.086 C 
ATOM     28  C   UNL     1       2.349  -2.230  -4.554  0.00  0.00    +0.023 C 
ATOM     29  C   UNL     1       1.963  -2.301  -6.032  0.00  0.00    +0.002 C 
ATOM     30  C   UNL     1       3.058  -1.646  -6.877  0.00  0.00    +0.000 C 
ATOM     31  C   UNL     1       3.216  -0.182  -6.461  0.00  0.00    +0.002 C 
ATOM     32  C   UNL     1       3.602  -0.111  -4.982  0.00  0.00    +0.023 C 
ENDBRANCH  22  27
BRANCH  18  33
ATOM     33  O   UNL     1       4.154  -0.666   1.159  0.00  0.00    -0.496 OA
ATOM     34  H   UNL     1       4.988  -1.128   1.321  0.00  0.00    +0.293 HD
ENDBRANCH  18  33
TORSDOF 2
