REMARK  Name = ZINC39272096
REMARK  1 active torsions:
REMARK  status: ('A' for Active; 'I' for Inactive)
REMARK    1  A    between atoms: C_9  and  C_12
REMARK                            x       y       z     vdW  Elec       q    Type
REMARK                         _______ _______ _______ _____ _____    ______ ____
ROOT
ATOM      1  C   UNL     1       5.114  -2.621   0.030  0.00  0.00    +0.260 C 
ATOM      2  O   UNL     1       6.016  -1.927   0.448  0.00  0.00    -0.271 OA
ATOM      3  N   UNL     1       5.352  -3.902  -0.312  0.00  0.00    -0.295 N 
ATOM      4  C   UNL     1       4.269  -4.753  -0.826  0.00  0.00    +0.127 C 
ATOM      5  C   UNL     1       4.697  -5.324  -2.183  0.00  0.00    +0.125 C 
ATOM      6  N   UNL     1       6.044  -5.896  -2.049  0.00  0.00    -0.313 N 
ATOM      7  C   UNL     1       7.127  -5.045  -1.535  0.00  0.00    +0.125 C 
ATOM      8  C   UNL     1       6.700  -4.473  -0.182  0.00  0.00    +0.127 C 
ATOM      9  C   UNL     1       6.282  -7.179  -2.390  0.00  0.00    +0.133 C 
ATOM     10  N   UNL     1       7.457  -7.740  -2.164  0.00  0.00    -0.204 NA
ATOM     11  C   UNL     1       7.780  -8.960  -2.587  0.00  0.00    +0.226 C 
ATOM     12  N   UNL     1       7.090  -9.588  -3.530  0.00  0.00    -0.200 NA
ATOM     13  C   UNL     1       5.937  -9.054  -3.901  0.00  0.00    +0.165 C 
ATOM     14  N   UNL     1       5.192  -9.140  -4.966  0.00  0.00    -0.218 NA
ATOM     15  C   UNL     1       4.367  -8.089  -5.064  0.00  0.00    +0.218 C 
ATOM     16  N   UNL     1       4.353  -7.346  -3.990  0.00  0.00    -0.253 NA
ATOM     17  C   UNL     1       5.224  -8.018  -3.034  0.00  0.00    +0.237 C 
ATOM     18 CL   UNL     1       9.150  -9.758  -1.880  0.00  0.00    -0.041 Cl
ENDROOT
BRANCH   1  27
ATOM     19  C   UNL     1       0.090   1.168   0.872  0.00  0.00    +0.004 A 
ATOM     20  C   UNL     1       1.217   1.930   0.626  0.00  0.00    +0.004 A 
ATOM     21  C   UNL     1       2.436   1.316   0.410  0.00  0.00    +0.049 A 
ATOM     22  C   UNL     1       2.532  -0.067   0.439  0.00  0.00    +0.163 A 
ATOM     23  C   UNL     1       1.399  -0.834   0.684  0.00  0.00    +0.162 A 
ATOM     24  C   UNL     1       0.179  -0.211   0.902  0.00  0.00    +0.049 A 
ATOM     25  O   UNL     1       1.469  -2.193   0.709  0.00  0.00    -0.484 OA
ATOM     26  C   UNL     1       2.772  -2.767   0.856  0.00  0.00    +0.283 C 
ATOM     27  C   UNL     1       3.726  -2.049  -0.108  0.00  0.00    +0.296 C 
ATOM     28  O   UNL     1       3.740  -0.658   0.228  0.00  0.00    -0.473 OA
ENDBRANCH   1  27
TORSDOF 1
