REMARK  Name = ZINC16174953
REMARK  3 active torsions:
REMARK  status: ('A' for Active; 'I' for Inactive)
REMARK    1  A    between atoms: C_5  and  C_6
REMARK    2  A    between atoms: N_8  and  N_9
REMARK    3  A    between atoms: C_10  and  C_12
REMARK                            x       y       z     vdW  Elec       q    Type
REMARK                         _______ _______ _______ _____ _____    ______ ____
ROOT
ATOM      1  N   UNL     1      -6.097   0.277  -0.109  0.00  0.00    -0.230 N 
ATOM      2  C   UNL     1      -7.071   1.209  -0.106  0.00  0.00    +0.261 C 
ATOM      3  O   UNL     1      -6.782   2.390  -0.075  0.00  0.00    -0.269 OA
ATOM      4  H   UNL     1      -6.328  -0.665  -0.134  0.00  0.00    +0.173 HD
ENDROOT
BRANCH   2   5
ATOM      5  C   UNL     1      -8.485   0.798  -0.140  0.00  0.00    +0.052 C 
ATOM      6  C   UNL     1      -9.485   1.738  -0.138  0.00  0.00    +0.089 C 
ATOM      7  N   UNL     1     -10.797   1.383  -0.168  0.00  0.00    -0.288 N 
ATOM      8  C   UNL     1     -11.755   2.490  -0.086  0.00  0.00    +0.136 C 
ATOM      9  C   UNL     1     -12.972   2.215  -0.975  0.00  0.00    +0.212 C 
ATOM     10  S   UNL     1     -13.694   0.640  -0.413  0.00  0.00    +0.073 S 
ATOM     11  O   UNL     1     -14.548   0.102  -1.413  0.00  0.00    -0.151 OA
ATOM     12  O   UNL     1     -14.127   0.746   0.936  0.00  0.00    -0.151 OA
ATOM     13  N   UNL     1     -12.389  -0.376  -0.369  0.00  0.00    -0.118 NA
ATOM     14  C   UNL     1     -11.158   0.066  -0.256  0.00  0.00    +0.147 C 
ATOM     15  C   UNL     1     -10.154  -0.950  -0.234  0.00  0.00    +0.046 C 
ATOM     16  C   UNL     1      -8.846  -0.620  -0.184  0.00  0.00    +0.018 C 
ENDBRANCH   2   5
BRANCH   1  19
ATOM     17  C   UNL     1      -3.779  -0.263  -0.079  0.00  0.00    +0.267 C 
ATOM     18  O   UNL     1      -4.068  -1.445  -0.110  0.00  0.00    -0.268 OA
ATOM     19  N   UNL     1      -4.753   0.669  -0.076  0.00  0.00    -0.230 N 
ATOM     20  H   UNL     1      -4.522   1.611  -0.051  0.00  0.00    +0.173 HD
BRANCH  17  25
ATOM     21  C   UNL     1      -1.234  -0.640  -0.041  0.00  0.00    +0.024 A 
ATOM     22  C   UNL     1       0.002  -0.004   0.002  0.00  0.00    -0.036 A 
ATOM     23  C   UNL     1      -0.016   1.348   0.009  0.00  0.00    -0.006 A 
ATOM     24  S   UNL     1      -1.678   1.791   0.005  0.00  0.00    -0.088 S 
ATOM     25  C   UNL     1      -2.372   0.146  -0.045  0.00  0.00    +0.076 A 
ATOM     26  C   UNL     1       1.189   2.263   0.003  0.00  0.00    +0.043 C 
ATOM     27  C   UNL     1       1.900   2.086   1.355  0.00  0.00    +0.005 C 
ATOM     28  C   UNL     1       2.734   0.827   1.351  0.00  0.00    +0.001 C 
ATOM     29  C   UNL     1       1.980  -0.478   1.400  0.00  0.00    +0.005 C 
ATOM     30  C   UNL     1       1.309  -0.801   0.064  0.00  0.00    +0.036 C 
ENDBRANCH  17  25
ENDBRANCH   1  19
TORSDOF 3
