REMARK  Name = ZINC09606178
REMARK  6 active torsions:
REMARK  status: ('A' for Active; 'I' for Inactive)
REMARK    1  A    between atoms: C_5  and  C_6
REMARK    2  A    between atoms: C_6  and  O_8
REMARK    3  A    between atoms: O_8  and  C_9
REMARK    4  A    between atoms: C_9  and  C_10
REMARK    5  A    between atoms: N_12  and  C_13
REMARK    6  A    between atoms: C_14  and  C_21
REMARK                            x       y       z     vdW  Elec       q    Type
REMARK                         _______ _______ _______ _____ _____    ______ ____
ROOT
ATOM      1  C   UNL     1       7.027   1.340  -0.058  0.00  0.00    +0.255 C 
ATOM      2  O   UNL     1       6.591   2.472  -0.048  0.00  0.00    -0.272 OA
ATOM      3  N   UNL     1       8.358   1.131  -0.072  0.00  0.00    -0.277 N 
ATOM      4  H   UNL     1       8.707   0.226  -0.080  0.00  0.00    +0.155 HD
ENDROOT
BRANCH   3   5
ATOM      5  C   UNL     1       9.229   2.210  -0.074  0.00  0.00    +0.084 A 
ATOM      6  C   UNL     1      10.614   2.198  -0.082  0.00  0.00    +0.068 A 
ATOM      7  C   UNL     1      11.302   3.488  -0.087  0.00  0.00    -0.023 A 
ATOM      8  C   UNL     1      10.497   4.566  -0.074  0.00  0.00    -0.004 A 
ATOM      9  S   UNL     1       8.850   3.899  -0.061  0.00  0.00    -0.077 S 
ATOM     10  C   UNL     1      11.276   5.853  -0.077  0.00  0.00    +0.043 C 
ATOM     11  C   UNL     1      12.695   5.447  -0.531  0.00  0.00    +0.010 C 
ATOM     12  C   UNL     1      12.754   3.969  -0.097  0.00  0.00    +0.037 C 
BRANCH   6  13
ATOM     13  C   UNL     1      11.362   0.937  -0.089  0.00  0.00    +0.244 C 
ATOM     14  O   UNL     1      11.668   0.417  -1.145  0.00  0.00    -0.270 OA
ATOM     15  N   UNL     1      11.713   0.355   1.075  0.00  0.00    -0.325 N 
ATOM     16  H   UNL     1      11.469   0.770   1.918  0.00  0.00    +0.145 HD
ATOM     17  H   UNL     1      12.208  -0.479   1.071  0.00  0.00    +0.145 HD
ENDBRANCH   6  13
ENDBRANCH   3   5
BRANCH   1  18
ATOM     18  C   UNL     1       6.080   0.168  -0.055  0.00  0.00    +0.328 C 
BRANCH  18  19
ATOM     19  O   UNL     1       4.733   0.644  -0.040  0.00  0.00    -0.451 OA
BRANCH  19  20
ATOM     20  C   UNL     1       3.755  -0.286  -0.035  0.00  0.00    +0.346 C 
ATOM     21  O   UNL     1       4.040  -1.468  -0.044  0.00  0.00    -0.244 OA
BRANCH  20  26
ATOM     22  C   UNL     1       1.208  -0.657  -0.013  0.00  0.00    +0.024 A 
ATOM     23  C   UNL     1       0.002  -0.004   0.002  0.00  0.00    +0.024 A 
ATOM     24  C   UNL     1      -0.016   1.357   0.009  0.00  0.00    +0.056 A 
ATOM     25  S   UNL     1       1.666   1.775  -0.004  0.00  0.00    -0.075 S 
ATOM     26  C   UNL     1       2.352   0.129  -0.020  0.00  0.00    +0.097 A 
ATOM     27 BR   UNL     1      -1.514   2.511   0.023  0.00  0.00    -0.043 Br
ENDBRANCH  20  26
ENDBRANCH  19  20
ENDBRANCH  18  19
ENDBRANCH   1  18
TORSDOF 6
