REMARK  Name = ZINC40285414
REMARK  6 active torsions:
REMARK  status: ('A' for Active; 'I' for Inactive)
REMARK    1  A    between atoms: C_1  and  C_2
REMARK    2  A    between atoms: C_20  and  C_22
REMARK    3  A    between atoms: C_26  and  O_28
REMARK    4  A    between atoms: O_28  and  C_29
REMARK    5  A    between atoms: C_29  and  C_30
REMARK    6  A    between atoms: C_29  and  C_31
REMARK                            x       y       z     vdW  Elec       q    Type
REMARK                         _______ _______ _______ _____ _____    ______ ____
ROOT
ATOM      1  C   UNL     1      -0.724   1.432   0.488  0.00  0.00    +0.068 C 
ATOM      2  C   UNL     1      -0.595  -0.067   0.399  0.00  0.00    +0.066 A 
ATOM      3  C   UNL     1      -0.355  -0.795  -0.757  0.00  0.00    +0.023 A 
ATOM      4  C   UNL     1      -0.302  -2.121  -0.420  0.00  0.00    +0.134 A 
ATOM      5  N   UNL     1      -0.513  -2.212   0.911  0.00  0.00    -0.198 N 
ATOM      6  N   UNL     1      -0.684  -0.907   1.404  0.00  0.00    -0.168 NA
ATOM      7  C   UNL     1      -0.549  -3.390   1.662  0.00  0.00    +0.176 A 
ATOM      8  C   UNL     1      -0.786  -3.323   3.048  0.00  0.00    +0.054 A 
ATOM      9  C   UNL     1      -0.824  -4.462   3.790  0.00  0.00    +0.054 A 
ATOM     10  C   UNL     1      -0.622  -5.700   3.153  0.00  0.00    +0.178 A 
ATOM     11  N   UNL     1      -0.597  -6.954   3.575  0.00  0.00    -0.128 NA
ATOM     12  N   UNL     1      -0.369  -7.734   2.577  0.00  0.00    -0.136 NA
ATOM     13  C   UNL     1      -0.239  -7.034   1.477  0.00  0.00    +0.249 A 
ATOM     14  N   UNL     1      -0.392  -5.732   1.799  0.00  0.00    -0.198 N 
ATOM     15  N   UNL     1      -0.366  -4.544   1.066  0.00  0.00    -0.144 NA
ATOM     16  N   UNL     1      -0.054  -3.114  -1.366  0.00  0.00    -0.270 N 
ATOM     17  C   UNL     1       0.337  -2.731  -2.601  0.00  0.00    +0.219 C 
ATOM     18  O   UNL     1       0.375  -3.558  -3.487  0.00  0.00    -0.275 OA
ATOM     19  C   UNL     1       0.726  -1.313  -2.911  0.00  0.00    +0.109 C 
ATOM     20  C   UNL     1      -0.176  -0.316  -2.176  0.00  0.00    +0.063 C 
ATOM     21  H   UNL     1      -0.158  -4.052  -1.144  0.00  0.00    +0.156 HD
ENDROOT
BRANCH  20  22
ATOM     22  C   UNL     1      -1.517  -0.243  -2.860  0.00  0.00    -0.036 A 
ATOM     23  C   UNL     1      -2.291  -1.382  -2.985  0.00  0.00    +0.004 A 
ATOM     24  C   UNL     1      -3.522  -1.318  -3.613  0.00  0.00    +0.004 A 
ATOM     25  C   UNL     1      -3.980  -0.116  -4.117  0.00  0.00    +0.045 A 
ATOM     26  C   UNL     1      -3.205   1.027  -3.993  0.00  0.00    +0.121 A 
ATOM     27  C   UNL     1      -1.973   0.962  -3.357  0.00  0.00    +0.050 A 
BRANCH  26  28
ATOM     28  O   UNL     1      -3.654   2.211  -4.487  0.00  0.00    -0.489 OA
BRANCH  28  29
ATOM     29  C   UNL     1      -4.981   2.232  -5.015  0.00  0.00    +0.167 C 
ATOM     30  C   UNL     1      -5.536   3.656  -4.943  0.00  0.00    +0.051 C 
ATOM     31  C   UNL     1      -4.958   1.766  -6.473  0.00  0.00    +0.051 C 
ENDBRANCH  28  29
ENDBRANCH  26  28
ENDBRANCH  20  22
TORSDOF 3
