REMARK  Name = ZINC09243270
REMARK  7 active torsions:
REMARK  status: ('A' for Active; 'I' for Inactive)
REMARK    1  A    between atoms: C_1  and  C_2
REMARK    2  A    between atoms: C_7  and  C_8
REMARK    3  A    between atoms: C_7  and  N_55
REMARK    4  A    between atoms: N_12  and  C_13
REMARK    5  A    between atoms: C_13  and  C_14
REMARK    6  A    between atoms: N_24  and  C_29
REMARK    7  A    between atoms: N_27  and  C_28
REMARK                            x       y       z     vdW  Elec       q    Type
REMARK                         _______ _______ _______ _____ _____    ______ ____
ROOT
ATOM      1  C   UNL     1       1.266   5.253  -0.362  0.00  0.00    +0.096 A 
ATOM      2  N   UNL     1       0.029   4.941  -0.074  0.00  0.00    -0.216 NA
ATOM      3  C   UNL     1      -0.014   3.728   0.484  0.00  0.00    +0.168 A 
ATOM      4  C   UNL     1       1.292   3.257   0.545  0.00  0.00    +0.152 A 
ATOM      5  N   UNL     1       2.085   4.246   0.000  0.00  0.00    -0.319 N 
ATOM      6  C   UNL     1       1.537   1.982   1.098  0.00  0.00    +0.282 A 
ATOM      7  O   UNL     1       2.673   1.546   1.162  0.00  0.00    -0.265 OA
ATOM      8  N   UNL     1       0.499   1.250   1.555  0.00  0.00    -0.262 N 
ATOM      9  C   UNL     1      -0.759   1.717   1.485  0.00  0.00    +0.333 A 
ATOM     10  O   UNL     1      -1.671   1.028   1.902  0.00  0.00    -0.246 OA
ATOM     11  N   UNL     1      -1.036   2.929   0.970  0.00  0.00    -0.280 N 
ATOM     12  C   UNL     1      -2.422   3.403   0.917  0.00  0.00    +0.155 C 
ATOM     13  C   UNL     1       0.747  -0.074   2.130  0.00  0.00    +0.157 C 
ENDROOT
BRANCH   1  14
ATOM     14  C   UNL     1       1.709   6.543  -1.004  0.00  0.00    -0.003 C 
BRANCH  14  21
ATOM     15  C   UNL     1       0.882   6.530  -6.660  0.00  0.00    +0.007 C 
ATOM     16  C   UNL     1       0.739   6.800  -5.160  0.00  0.00    -0.018 C 
ATOM     17  C   UNL     1       2.010   7.476  -4.639  0.00  0.00    -0.016 C 
ATOM     18  C   UNL     1       1.887   7.689  -3.129  0.00  0.00    -0.078 C 
ATOM     19  C   UNL     1       0.454   5.747  -2.915  0.00  0.00    -0.078 C 
ATOM     20  C   UNL     1       0.534   5.476  -4.419  0.00  0.00    -0.016 C 
ATOM     21  N   UNL     1       1.716   6.375  -2.472  0.00  0.00    +0.384 N 
ATOM     22  H   UNL     1       2.501   5.768  -2.734  0.00  0.00    -0.081 HD
ENDBRANCH  14  21
ENDBRANCH   1  14
BRANCH   5  23
ATOM     23  C   UNL     1       3.542   4.209  -0.154  0.00  0.00    +0.161 C 
BRANCH  23  24
ATOM     24  C   UNL     1       3.888   3.981  -1.603  0.00  0.00    +0.009 A 
ATOM     25  C   UNL     1       3.740   2.724  -2.161  0.00  0.00    +0.047 A 
ATOM     26  C   UNL     1       4.053   2.517  -3.493  0.00  0.00    +0.020 A 
ATOM     27  C   UNL     1       4.523   3.564  -4.263  0.00  0.00    +0.003 A 
ATOM     28  C   UNL     1       4.676   4.819  -3.705  0.00  0.00    +0.020 A 
ATOM     29  C   UNL     1       4.358   5.029  -2.375  0.00  0.00    +0.047 A 
ATOM     30 CL   UNL     1       4.550   6.605  -1.674  0.00  0.00    -0.083 Cl
ATOM     31 CL   UNL     1       3.156   1.408  -1.192  0.00  0.00    -0.083 Cl
ENDBRANCH  23  24
ENDBRANCH   5  23
TORSDOF 4
