REMARK  Name = ZINC54871298
REMARK  4 active torsions:
REMARK  status: ('A' for Active; 'I' for Inactive)
REMARK    1  A    between atoms: C_9  and  C_12
REMARK    2  A    between atoms: N_14  and  N_15
REMARK    3  A    between atoms: C_16  and  C_18
REMARK    4  A    between atoms: C_21  and  C_24
REMARK                            x       y       z     vdW  Elec       q    Type
REMARK                         _______ _______ _______ _____ _____    ______ ____
ROOT
ATOM      1  N   UNL     1       6.355  -4.522  -0.051  0.00  0.00    -0.231 N 
ATOM      2  C   UNL     1       6.593  -5.804  -0.392  0.00  0.00    +0.273 C 
ATOM      3  O   UNL     1       5.752  -6.437  -0.994  0.00  0.00    -0.270 OA
ATOM      4  H   UNL     1       7.028  -4.015   0.430  0.00  0.00    +0.173 HD
ENDROOT
BRANCH   2   5
ATOM      5  C   UNL     1       7.905  -6.450  -0.026  0.00  0.00    +0.297 C 
ATOM      6  C   UNL     1       8.021  -6.636   1.506  0.00  0.00    +0.117 C 
ATOM      7  C   UNL     1       7.510  -8.050   1.706  0.00  0.00    +0.098 C 
ATOM      8  N   UNL     1       7.497  -8.643   0.555  0.00  0.00    -0.088 NA
ATOM      9  O   UNL     1       7.957  -7.813  -0.494  0.00  0.00    -0.380 OA
BRANCH   7  10
ATOM     10  C   UNL     1       7.101  -8.643   2.984  0.00  0.00    +0.038 A 
ATOM     11  C   UNL     1       6.633  -9.919   3.243  0.00  0.00    +0.019 A 
ATOM     12  C   UNL     1       6.311 -10.247   4.538  0.00  0.00    +0.028 A 
ATOM     13  C   UNL     1       6.460  -9.314   5.518  0.00  0.00    +0.079 A 
ATOM     14  S   UNL     1       7.085  -7.909   4.611  0.00  0.00    -0.075 S 
ATOM     15 CL   UNL     1       6.132  -9.456   7.216  0.00  0.00    -0.076 Cl
ENDBRANCH   7  10
ENDBRANCH   2   5
BRANCH   1  18
ATOM     16  C   UNL     1       4.898  -2.639  -0.050  0.00  0.00    +0.273 C 
ATOM     17  O   UNL     1       5.739  -2.006   0.552  0.00  0.00    -0.270 OA
ATOM     18  N   UNL     1       5.136  -3.921  -0.391  0.00  0.00    -0.231 N 
ATOM     19  H   UNL     1       4.464  -4.428  -0.873  0.00  0.00    +0.173 HD
BRANCH  16  28
ATOM     20  C   UNL     1      -0.017   1.378   0.010  0.00  0.00    +0.004 A 
ATOM     21  C   UNL     1       1.170   2.088   0.002  0.00  0.00    +0.004 A 
ATOM     22  C   UNL     1       2.378   1.418  -0.012  0.00  0.00    +0.049 A 
ATOM     23  C   UNL     1       2.404   0.031  -0.019  0.00  0.00    +0.163 A 
ATOM     24  C   UNL     1       1.212  -0.683  -0.014  0.00  0.00    +0.162 A 
ATOM     25  C   UNL     1       0.002  -0.004   0.002  0.00  0.00    +0.049 A 
ATOM     26  O   UNL     1       1.214  -2.043  -0.029  0.00  0.00    -0.484 OA
ATOM     27  C   UNL     1       2.441  -2.689   0.331  0.00  0.00    +0.283 C 
ATOM     28  C   UNL     1       3.587  -1.993  -0.416  0.00  0.00    +0.297 C 
ATOM     29  O   UNL     1       3.602  -0.615  -0.029  0.00  0.00    -0.472 OA
ENDBRANCH  16  28
ENDBRANCH   1  18
TORSDOF 4
