REMARK  Name = ZINC39483265
REMARK  8 active torsions:
REMARK  status: ('A' for Active; 'I' for Inactive)
REMARK    1  A    between atoms: C_1  and  C_2
REMARK    2  A    between atoms: C_2  and  C_3
REMARK    3  A    between atoms: C_18  and  C_19
REMARK    4  A    between atoms: C_21  and  S_35
REMARK    5  A    between atoms: C_23  and  S_25
REMARK    6  A    between atoms: S_25  and  O_28
REMARK    7  A    between atoms: O_28  and  C_29
REMARK    8  A    between atoms: S_35  and  C_36
REMARK                            x       y       z     vdW  Elec       q    Type
REMARK                         _______ _______ _______ _____ _____    ______ ____
ROOT
ATOM      1  C   UNL     1       0.724   0.480   1.292  0.00  0.00    -0.021 A 
ATOM      2  C   UNL     1       2.097   0.435   1.225  0.00  0.00    +0.006 A 
ATOM      3  C   UNL     1       2.850   0.027   2.319  0.00  0.00    +0.001 A 
ATOM      4  C   UNL     1       2.236  -0.336   3.498  0.00  0.00    +0.015 A 
ATOM      5  C   UNL     1       0.846  -0.292   3.591  0.00  0.00    +0.065 A 
ATOM      6  C   UNL     1       0.075   0.116   2.477  0.00  0.00    +0.082 A 
ATOM      7  N   UNL     1      -1.264   0.123   2.580  0.00  0.00    -0.229 NA
ATOM      8  C   UNL     1      -1.887  -0.197   3.696  0.00  0.00    +0.140 A 
ATOM      9  N   UNL     1      -1.214  -0.524   4.847  0.00  0.00    -0.293 N 
ATOM     10  C   UNL     1       0.139  -0.654   4.824  0.00  0.00    +0.262 A 
ATOM     11  O   UNL     1       0.747  -1.046   5.803  0.00  0.00    -0.267 OA
ATOM     12  C   UNL     1      -1.899  -0.711   6.119  0.00  0.00    +0.127 C 
ATOM     13  C   UNL     1      -3.338  -1.155   5.983  0.00  0.00    +0.026 C 
ATOM     14  C   UNL     1      -4.115  -0.326   4.975  0.00  0.00    +0.040 C 
ATOM     15  C   UNL     1      -3.356  -0.216   3.685  0.00  0.00    -0.004 C 
ATOM     16  C   UNL     1      -4.022  -0.137   2.516  0.00  0.00    +0.015 C 
ENDROOT
BRANCH  16  17
ATOM     17  C   UNL     1      -5.487   0.007   2.512  0.00  0.00    -0.022 A 
ATOM     18  C   UNL     1      -6.125   0.725   3.527  0.00  0.00    +0.022 A 
ATOM     19  C   UNL     1      -7.505   0.855   3.515  0.00  0.00    +0.010 A 
ATOM     20  C   UNL     1      -8.250   0.272   2.495  0.00  0.00    +0.045 A 
ATOM     21  C   UNL     1      -7.620  -0.438   1.491  0.00  0.00    +0.130 A 
ATOM     22  C   UNL     1      -6.247  -0.570   1.489  0.00  0.00    +0.038 A 
BRANCH  21  23
ATOM     23  S   UNL     1      -8.574  -1.173   0.205  0.00  0.00    +0.151 S 
ATOM     24  O   UNL     1      -7.798  -2.244  -0.316  0.00  0.00    -0.131 OA
ATOM     25  O   UNL     1      -9.882  -1.364   0.727  0.00  0.00    -0.131 OA
BRANCH  23  26
ATOM     26  O   UNL     1      -8.697  -0.143  -0.909  0.00  0.00    -0.342 OA
BRANCH  26  27
ATOM     27  C   UNL     1      -7.564   0.015  -1.643  0.00  0.00    +0.157 A 
ATOM     28  C   UNL     1      -6.614   0.951  -1.261  0.00  0.00    +0.048 A 
ATOM     29  C   UNL     1      -5.463   1.109  -2.009  0.00  0.00    +0.004 A 
ATOM     30  C   UNL     1      -5.258   0.337  -3.137  0.00  0.00    +0.000 A 
ATOM     31  C   UNL     1      -6.204  -0.597  -3.520  0.00  0.00    +0.004 A 
ATOM     32  C   UNL     1      -7.353  -0.763  -2.772  0.00  0.00    +0.048 A 
ENDBRANCH  26  27
ENDBRANCH  23  26
ENDBRANCH  21  23
BRANCH  19  33
ATOM     33  S   UNL     1      -8.315   1.759   4.792  0.00  0.00    -0.129 S 
ATOM     34  C   UNL     1      -6.961   2.314   5.864  0.00  0.00    +0.090 C 
ENDBRANCH  19  33
ENDBRANCH  16  17
BRANCH   1  36
ATOM     35  C   UNL     1      -0.384   2.420   0.215  0.00  0.00    +0.009 C 
ATOM     36  C   UNL     1      -0.079   0.925   0.097  0.00  0.00    +0.034 C 
ENDBRANCH   1  36
TORSDOF 6
