REMARK  Name = ZINC09610661
REMARK  8 active torsions:
REMARK  status: ('A' for Active; 'I' for Inactive)
REMARK    1  A    between atoms: C_4  and  C_7
REMARK    2  A    between atoms: C_7  and  C_9
REMARK    3  A    between atoms: C_7  and  N_24
REMARK    4  A    between atoms: N_11  and  C_12
REMARK    5  A    between atoms: C_12  and  C_13
REMARK    6  A    between atoms: C_13  and  C_18
REMARK    7  A    between atoms: N_24  and  S_25
REMARK    8  A    between atoms: S_25  and  C_28
REMARK                            x       y       z     vdW  Elec       q    Type
REMARK                         _______ _______ _______ _____ _____    ______ ____
ROOT
ATOM      1  C   UNL     1       1.284   2.042   0.100  0.00  0.00    +0.192 C 
ENDROOT
BRANCH   1   5
ATOM      2  C   UNL     1       1.408   4.434   3.637  0.00  0.00    +0.000 A 
ATOM      3  C   UNL     1       1.047   5.003   2.430  0.00  0.00    +0.000 A 
ATOM      4  C   UNL     1       1.006   4.229   1.286  0.00  0.00    +0.006 A 
ATOM      5  C   UNL     1       1.327   2.886   1.348  0.00  0.00    -0.020 A 
ATOM      6  C   UNL     1       1.684   2.316   2.556  0.00  0.00    +0.006 A 
ATOM      7  C   UNL     1       1.728   3.091   3.700  0.00  0.00    +0.000 A 
ENDBRANCH   1   5
BRANCH   1   8
ATOM      8  C   UNL     1      -0.001   1.255   0.071  0.00  0.00    +0.236 C 
ATOM      9  O   UNL     1       0.031   0.043   0.048  0.00  0.00    -0.274 OA
ATOM     10  N   UNL     1      -1.186   1.898   0.066  0.00  0.00    -0.313 N 
ATOM     11  H   UNL     1      -1.211   2.868   0.085  0.00  0.00    +0.149 HD
BRANCH  10  12
ATOM     12  C   UNL     1      -2.434   1.133   0.031  0.00  0.00    +0.115 C 
BRANCH  12  13
ATOM     13  C   UNL     1      -3.622   2.090   0.156  0.00  0.00    +0.011 C 
ATOM     14  C   UNL     1      -3.489   2.932   1.438  0.00  0.00    +0.013 C 
ATOM     15  C   UNL     1      -4.725   2.611   2.305  0.00  0.00    +0.001 C 
ATOM     16  C   UNL     1      -5.181   1.214   1.816  0.00  0.00    +0.001 C 
ATOM     17  C   UNL     1      -4.934   1.289   0.289  0.00  0.00    +0.013 C 
BRANCH  13  18
ATOM     18  C   UNL     1      -3.687   2.992  -1.049  0.00  0.00    -0.040 A 
ATOM     19  C   UNL     1      -2.822   2.793  -2.109  0.00  0.00    +0.004 A 
ATOM     20  C   UNL     1      -2.885   3.617  -3.217  0.00  0.00    +0.000 A 
ATOM     21  C   UNL     1      -3.807   4.646  -3.261  0.00  0.00    +0.000 A 
ATOM     22  C   UNL     1      -4.669   4.848  -2.199  0.00  0.00    +0.000 A 
ATOM     23  C   UNL     1      -4.609   4.021  -1.093  0.00  0.00    +0.004 A 
ENDBRANCH  13  18
ENDBRANCH  12  13
ENDBRANCH  10  12
ENDBRANCH   1   8
BRANCH   1  24
ATOM     24  N   UNL     1       2.422   1.120   0.094  0.00  0.00    -0.174 NA
ATOM     25  H   UNL     1       2.360   0.271   0.559  0.00  0.00    +0.149 HD
BRANCH  24  26
ATOM     26  S   UNL     1       3.813   1.527  -0.706  0.00  0.00    +0.059 S 
ATOM     27  O   UNL     1       4.725   0.456  -0.507  0.00  0.00    -0.153 OA
ATOM     28  O   UNL     1       3.424   1.965  -2.001  0.00  0.00    -0.153 OA
BRANCH  26  29
ATOM     29  C   UNL     1       4.496   2.928   0.116  0.00  0.00    +0.106 A 
ATOM     30  C   UNL     1       5.389   2.750   1.157  0.00  0.00    +0.030 A 
ATOM     31  C   UNL     1       5.926   3.846   1.803  0.00  0.00    +0.025 A 
ATOM     32  C   UNL     1       5.567   5.128   1.407  0.00  0.00    +0.037 A 
ATOM     33  C   UNL     1       4.671   5.303   0.361  0.00  0.00    -0.024 A 
ATOM     34  C   UNL     1       4.141   4.204  -0.285  0.00  0.00    +0.034 A 
ATOM     35  C   UNL     1       4.282   6.694  -0.069  0.00  0.00    +0.046 C 
ATOM     36  C   UNL     1       4.253   7.616   1.151  0.00  0.00    +0.101 C 
ATOM     37  C   UNL     1       5.516   7.446   1.952  0.00  0.00    +0.218 C 
ATOM     38  O   UNL     1       6.006   8.405   2.510  0.00  0.00    -0.275 OA
ATOM     39  N   UNL     1       6.108   6.242   2.057  0.00  0.00    -0.285 N 
ATOM     40  H   UNL     1       6.914   6.146   2.587  0.00  0.00    +0.155 HD
ENDBRANCH  26  29
ENDBRANCH  24  26
ENDBRANCH   1  24
TORSDOF 8
