REMARK  Name = ZINC08883078
REMARK  5 active torsions:
REMARK  status: ('A' for Active; 'I' for Inactive)
REMARK    1  A    between atoms: C_1  and  C_2
REMARK    2  A    between atoms: C_2  and  C_4
REMARK    3  A    between atoms: C_2  and  N_13
REMARK    4  A    between atoms: C_14  and  C_16
REMARK    5  A    between atoms: C_16  and  N_17
REMARK                            x       y       z     vdW  Elec       q    Type
REMARK                         _______ _______ _______ _____ _____    ______ ____
ROOT
ATOM      1  C   UNL     1       0.474   4.490   3.214  0.00  0.00    +0.213 C 
ENDROOT
BRANCH   1   2
ATOM      2  N   UNL     1       0.092   3.201   2.632  0.00  0.00    -0.215 N 
ATOM      3  C   UNL     1      -0.535   3.061   1.445  0.00  0.00    +0.251 C 
ATOM      4  O   UNL     1      -0.877   3.942   0.686  0.00  0.00    -0.272 OA
ATOM      5  C   UNL     1      -0.720   1.574   1.264  0.00  0.00    +0.139 C 
ATOM      6  C   UNL     1      -0.013   1.086   0.008  0.00  0.00    +0.040 C 
ATOM      7  C   UNL     1      -0.749   1.591  -1.238  0.00  0.00    +0.008 C 
ATOM      8  C   UNL     1      -2.107   0.880  -1.335  0.00  0.00    +0.043 C 
ATOM      9  C   UNL     1      -2.772   0.937   0.001  0.00  0.00    -0.005 A 
ATOM     10  C   UNL     1      -2.198   1.242   1.199  0.00  0.00    -0.005 A 
ATOM     11  C   UNL     1      -3.038   1.226   2.312  0.00  0.00    +0.014 A 
ATOM     12  C   UNL     1      -4.348   0.920   2.170  0.00  0.00    +0.046 A 
ATOM     13  S   UNL     1      -4.469   0.630   0.411  0.00  0.00    -0.101 S 
ATOM     14  N   UNL     1      -0.128   0.986   2.469  0.00  0.00    -0.281 N 
ATOM     15  C   UNL     1       0.321   2.016   3.212  0.00  0.00    +0.310 C 
ATOM     16  O   UNL     1       0.873   1.885   4.287  0.00  0.00    -0.252 OA
ATOM     17  H   UNL     1      -0.072   0.043   2.688  0.00  0.00    +0.152 HD
ENDBRANCH   1   2
BRANCH   1  19
ATOM     18  N   UNL     1      -0.526   6.189   4.710  0.00  0.00    -0.304 N 
ATOM     19  C   UNL     1      -0.654   5.009   4.069  0.00  0.00    +0.232 C 
ATOM     20  O   UNL     1      -1.675   4.366   4.181  0.00  0.00    -0.274 OA
ATOM     21  H   UNL     1       0.291   6.703   4.620  0.00  0.00    +0.149 HD
BRANCH  18  23
ATOM     22  C   UNL     1      -2.624   7.445   4.662  0.00  0.00    +0.036 C 
ATOM     23  C   UNL     1      -1.622   6.693   5.541  0.00  0.00    +0.136 C 
BRANCH  23  24
ATOM     24  C   UNL     1      -1.070   7.627   6.586  0.00  0.00    +0.126 A 
ATOM     25  C   UNL     1      -1.485   7.685   7.859  0.00  0.00    +0.055 A 
ATOM     26  C   UNL     1      -0.676   8.724   8.507  0.00  0.00    +0.020 A 
ATOM     27  C   UNL     1      -0.618   9.253   9.795  0.00  0.00    +0.011 A 
ATOM     28  C   UNL     1       0.274  10.250  10.079  0.00  0.00    +0.001 A 
ATOM     29  C   UNL     1       1.120  10.737   9.094  0.00  0.00    +0.004 A 
ATOM     30  C   UNL     1       1.077  10.227   7.814  0.00  0.00    +0.047 A 
ATOM     31  C   UNL     1       0.178   9.213   7.504  0.00  0.00    +0.135 A 
ATOM     32  O   UNL     1      -0.095   8.528   6.376  0.00  0.00    -0.458 OA
ENDBRANCH  23  24
ENDBRANCH  18  23
ENDBRANCH   1  19
TORSDOF 4
