REMARK  Name = ZINC23461785
REMARK  7 active torsions:
REMARK  status: ('A' for Active; 'I' for Inactive)
REMARK    1  A    between atoms: C_1  and  C_2
REMARK    2  A    between atoms: C_5  and  S_13
REMARK    3  A    between atoms: N_6  and  C_7
REMARK    4  A    between atoms: S_13  and  C_14
REMARK    5  A    between atoms: C_14  and  C_15
REMARK    6  A    between atoms: C_17  and  O_18
REMARK    7  A    between atoms: C_27  and  C_29
REMARK                            x       y       z     vdW  Elec       q    Type
REMARK                         _______ _______ _______ _____ _____    ______ ____
ROOT
ATOM      1  C   UNL     1       0.158  -6.338   0.917  0.00  0.00    -0.020 A 
ATOM      2  C   UNL     1       1.261  -6.739   1.644  0.00  0.00    +0.092 A 
ATOM      3  C   UNL     1       1.197  -7.888   2.420  0.00  0.00    +0.285 A 
ATOM      4  O   UNL     1       0.083  -8.625   2.483  0.00  0.00    -0.425 OA
ATOM      5  C   UNL     1      -1.023  -8.278   1.793  0.00  0.00    +0.141 A 
ATOM      6  C   UNL     1      -1.017  -7.115   0.991  0.00  0.00    +0.022 A 
ATOM      7  C   UNL     1      -2.170  -6.747   0.274  0.00  0.00    +0.013 A 
ATOM      8  C   UNL     1      -3.292  -7.509   0.357  0.00  0.00    +0.024 A 
ATOM      9  C   UNL     1      -3.309  -8.665   1.157  0.00  0.00    +0.037 A 
ATOM     10  C   UNL     1      -2.170  -9.049   1.866  0.00  0.00    +0.070 A 
ATOM     11  N   UNL     1      -4.440  -9.419   1.233  0.00  0.00    -0.286 N 
ATOM     12  C   UNL     1      -4.579 -10.304   2.200  0.00  0.00    +0.214 C 
ATOM     13  O   UNL     1      -3.754 -10.363   3.095  0.00  0.00    -0.276 OA
ATOM     14  C   UNL     1      -5.757 -11.243   2.200  0.00  0.00    +0.109 C 
ATOM     15  H   UNL     1      -5.143  -9.306   0.575  0.00  0.00    +0.155 HD
ENDROOT
BRANCH   3  16
ATOM     16  O   UNL     1       2.280  -8.269   3.125  0.00  0.00    -0.480 OA
ATOM     17  H   UNL     1       2.151  -9.078   3.637  0.00  0.00    +0.295 HD
ENDBRANCH   3  16
BRANCH   1  18
ATOM     18  C   UNL     1       0.207  -5.093   0.068  0.00  0.00    +0.113 C 
BRANCH  18  19
ATOM     19  S   UNL     1       0.133  -3.629   1.137  0.00  0.00    -0.081 S 
BRANCH  19  24
ATOM     20  C   UNL     1       0.253   1.218  -1.038  0.00  0.00    +0.088 C 
ATOM     21  C   UNL     1       0.246  -0.278  -0.856  0.00  0.00    +0.131 A 
ATOM     22  N   UNL     1       0.309  -1.171  -1.803  0.00  0.00    -0.134 NA
ATOM     23  N   UNL     1       0.282  -2.352  -1.298  0.00  0.00    -0.122 NA
ATOM     24  C   UNL     1       0.199  -2.276   0.011  0.00  0.00    +0.192 A 
ATOM     25  N   UNL     1       0.179  -0.949   0.333  0.00  0.00    -0.303 N 
BRANCH  25  26
ATOM     26  C   UNL     1       0.099  -0.367   1.675  0.00  0.00    +0.091 C 
ATOM     27  C   UNL     1       1.304  -0.822   2.501  0.00  0.00    +0.025 C 
ATOM     28  C   UNL     1       1.220  -0.213   3.902  0.00  0.00    +0.002 C 
ATOM     29  C   UNL     1      -0.069  -0.676   4.583  0.00  0.00    +0.000 C 
ATOM     30  C   UNL     1      -1.274  -0.221   3.757  0.00  0.00    +0.002 C 
ATOM     31  C   UNL     1      -1.190  -0.830   2.356  0.00  0.00    +0.025 C 
ENDBRANCH  25  26
ENDBRANCH  19  24
ENDBRANCH  18  19
ENDBRANCH   1  18
TORSDOF 5
