REMARK  Name = ZINC58202479
REMARK  6 active torsions:
REMARK  status: ('A' for Active; 'I' for Inactive)
REMARK    1  A    between atoms: C_1  and  C_2
REMARK    2  A    between atoms: C_3  and  C_7
REMARK    3  A    between atoms: N_9  and  C_10
REMARK    4  A    between atoms: C_10  and  C_11
REMARK    5  A    between atoms: C_11  and  N_13
REMARK    6  A    between atoms: N_22  and  C_23
REMARK                            x       y       z     vdW  Elec       q    Type
REMARK                         _______ _______ _______ _____ _____    ______ ____
ROOT
ATOM      1  C   UNL     1      -5.768  -2.151   0.004  0.00  0.00    +0.256 C 
ATOM      2  O   UNL     1      -5.266  -3.258  -0.013  0.00  0.00    -0.272 OA
ENDROOT
BRANCH   1   3
ATOM      3  N   UNL     1      -7.090  -2.020   0.025  0.00  0.00    -0.145 NA
ATOM      4  C   UNL     1      -7.867  -3.095  -0.077  0.00  0.00    +0.201 A 
ATOM      5  N   UNL     1      -7.431  -4.382  -0.093  0.00  0.00    -0.326 N 
ATOM      6  C   UNL     1      -8.538  -5.217  -0.213  0.00  0.00    +0.067 A 
ATOM      7  C   UNL     1      -8.682  -6.595  -0.278  0.00  0.00    +0.047 A 
ATOM      8  C   UNL     1      -9.941  -7.151  -0.399  0.00  0.00    +0.043 A 
ATOM      9  C   UNL     1     -11.061  -6.336  -0.456  0.00  0.00    +0.022 A 
ATOM     10  C   UNL     1     -10.927  -4.964  -0.392  0.00  0.00    +0.029 A 
ATOM     11  C   UNL     1      -9.666  -4.396  -0.270  0.00  0.00    +0.068 A 
ATOM     12  N   UNL     1      -9.222  -3.081  -0.178  0.00  0.00    -0.315 N 
ATOM     13  C   UNL     1     -10.069  -1.886  -0.191  0.00  0.00    +0.152 C 
ATOM     14 CL   UNL     1     -10.121  -8.875  -0.481  0.00  0.00    -0.083 Cl
ATOM     15  H   UNL     1      -6.507  -4.670  -0.031  0.00  0.00    +0.169 HD
ENDBRANCH   1   3
BRANCH   1  16
ATOM     16  C   UNL     1      -4.889  -0.926   0.001  0.00  0.00    +0.202 C 
BRANCH  16  19
ATOM     17  C   UNL     1      -2.510  -0.401  -0.030  0.00  0.00    +0.248 C 
ATOM     18  O   UNL     1      -2.801   0.780  -0.016  0.00  0.00    -0.270 OA
ATOM     19  N   UNL     1      -3.483  -1.334  -0.024  0.00  0.00    -0.303 N 
ATOM     20  H   UNL     1      -3.251  -2.276  -0.036  0.00  0.00    +0.150 HD
BRANCH  17  23
ATOM     21  C   UNL     1      -0.022   1.510  -0.053  0.00  0.00    +0.087 C 
ATOM     22  C   UNL     1      -0.001   0.003  -0.065  0.00  0.00    +0.114 A 
ATOM     23  C   UNL     1      -1.095  -0.811  -0.056  0.00  0.00    +0.077 A 
ATOM     24  C   UNL     1      -0.568  -2.183  -0.075  0.00  0.00    +0.054 A 
ATOM     25  C   UNL     1       0.768  -2.065  -0.095  0.00  0.00    +0.196 A 
ATOM     26  O   UNL     1       1.095  -0.763  -0.094  0.00  0.00    -0.467 OA
ENDBRANCH  17  23
ENDBRANCH  16  19
ENDBRANCH   1  16
TORSDOF 4
