REMARK  Name = ZINC23483364
REMARK  11 active torsions:
REMARK  status: ('A' for Active; 'I' for Inactive)
REMARK    1  A    between atoms: C_1  and  C_2
REMARK    2  A    between atoms: C_2  and  C_4
REMARK    3  A    between atoms: C_2  and  N_33
REMARK    4  A    between atoms: C_7  and  S_16
REMARK    5  A    between atoms: N_8  and  C_9
REMARK    6  A    between atoms: S_16  and  C_17
REMARK    7  A    between atoms: C_17  and  C_19
REMARK    8  A    between atoms: C_17  and  C_20
REMARK    9  A    between atoms: N_22  and  C_23
REMARK   10  A    between atoms: N_33  and  C_34
REMARK   11  A    between atoms: N_33  and  C_35
REMARK                            x       y       z     vdW  Elec       q    Type
REMARK                         _______ _______ _______ _____ _____    ______ ____
ROOT
ATOM      1  C   UNL     1      -9.655   4.707   0.505  0.00  0.00    +0.125 A 
ATOM      2  N   UNL     1      -8.809   5.587   0.051  0.00  0.00    -0.135 NA
ATOM      3  N   UNL     1      -7.631   5.075  -0.016  0.00  0.00    -0.122 NA
ATOM      4  C   UNL     1      -7.664   3.826   0.387  0.00  0.00    +0.197 A 
ATOM      5  N   UNL     1      -8.957   3.551   0.736  0.00  0.00    -0.275 N 
ENDROOT
BRANCH   5   6
ATOM      6  C   UNL     1      -9.464   2.339   1.228  0.00  0.00    +0.050 A 
ATOM      7  C   UNL     1     -10.388   1.619   0.484  0.00  0.00    +0.028 A 
ATOM      8  C   UNL     1     -10.882   0.423   0.969  0.00  0.00    +0.022 A 
ATOM      9  C   UNL     1     -10.463  -0.051   2.200  0.00  0.00    +0.041 A 
ATOM     10  C   UNL     1      -9.545   0.668   2.945  0.00  0.00    +0.022 A 
ATOM     11  C   UNL     1      -9.045   1.861   2.462  0.00  0.00    +0.028 A 
ATOM     12 CL   UNL     1     -11.089  -1.551   2.809  0.00  0.00    -0.084 Cl
ENDBRANCH   5   6
BRANCH   1  14
ATOM     13  C   UNL     1     -11.334   5.764   1.992  0.00  0.00    -0.005 C 
ATOM     14  C   UNL     1     -11.130   4.921   0.732  0.00  0.00    -0.003 C 
BRANCH  14  15
ATOM     15  N   UNL     1     -11.708   5.619  -0.424  0.00  0.00    +0.382 N 
ATOM     16  C   UNL     1     -11.448   4.883  -1.668  0.00  0.00    -0.096 C 
ATOM     17  C   UNL     1     -13.147   5.845  -0.237  0.00  0.00    -0.096 C 
ATOM     18  H   UNL     1     -11.219   6.601  -0.504  0.00  0.00    -0.082 HD
ENDBRANCH  14  15
ENDBRANCH   1  14
BRANCH   4  19
ATOM     19  S   UNL     1      -6.298   2.716   0.469  0.00  0.00    -0.073 S 
BRANCH  19  20
ATOM     20  C   UNL     1      -4.979   3.794  -0.144  0.00  0.00    +0.137 C 
ATOM     21  C   UNL     1      -5.256   4.158  -1.604  0.00  0.00    +0.029 C 
BRANCH  20  22
ATOM     22  C   UNL     1      -3.658   3.076  -0.047  0.00  0.00    +0.230 C 
ATOM     23  O   UNL     1      -3.624   1.863  -0.054  0.00  0.00    -0.274 OA
ATOM     24  N   UNL     1      -2.513   3.781   0.047  0.00  0.00    -0.284 N 
ATOM     25  H   UNL     1      -2.548   4.876   0.144  0.00  0.00    +0.155 HD
BRANCH  24  26
ATOM     26  C   UNL     1      -1.283   3.122   0.021  0.00  0.00    +0.041 A 
ATOM     27  C   UNL     1      -1.166   1.892  -0.590  0.00  0.00    +0.024 A 
ATOM     28  C   UNL     1       0.054   1.224  -0.616  0.00  0.00    +0.002 A 
ATOM     29  C   UNL     1       1.167   1.769  -0.052  0.00  0.00    +0.008 A 
ATOM     30  C   UNL     1       1.092   3.025   0.574  0.00  0.00    -0.016 A 
ATOM     31  C   UNL     1      -0.146   3.712   0.613  0.00  0.00    +0.003 A 
ATOM     32  C   UNL     1      -0.219   4.967   1.238  0.00  0.00    +0.010 A 
ATOM     33  C   UNL     1       0.898   5.506   1.800  0.00  0.00    +0.001 A 
ATOM     34  C   UNL     1       2.116   4.831   1.762  0.00  0.00    +0.001 A 
ATOM     35  C   UNL     1       2.224   3.613   1.164  0.00  0.00    +0.008 A 
ENDBRANCH  24  26
ENDBRANCH  20  22
ENDBRANCH  19  20
ENDBRANCH   4  19
TORSDOF 7
