REMARK  Name = ZINC04784853
REMARK  5 active torsions:
REMARK  status: ('A' for Active; 'I' for Inactive)
REMARK    1  A    between atoms: C_1  and  O_2
REMARK    2  A    between atoms: O_2  and  C_3
REMARK    3  A    between atoms: C_3  and  C_5
REMARK    4  A    between atoms: C_15  and  C_17
REMARK    5  A    between atoms: C_20  and  O_23
REMARK                            x       y       z     vdW  Elec       q    Type
REMARK                         _______ _______ _______ _____ _____    ______ ____
ROOT
ATOM      1  C   UNL     1      -1.590   3.338   2.473  0.00  0.00    +0.075 C 
ATOM      2  C   UNL     1      -1.137   2.840   1.304  0.00  0.00    +0.107 C 
ATOM      3  C   UNL     1      -1.234   3.643   0.059  0.00  0.00    +0.259 C 
ATOM      4  O   UNL     1      -1.626   4.793   0.099  0.00  0.00    -0.269 OA
ATOM      5  N   UNL     1      -0.884   3.086  -1.111  0.00  0.00    -0.309 N 
ATOM      6  C   UNL     1      -0.401   1.722  -1.224  0.00  0.00    +0.124 C 
ATOM      7  C   UNL     1       0.193   1.182   0.063  0.00  0.00    +0.129 C 
ATOM      8  N   UNL     1      -0.563   1.591   1.243  0.00  0.00    -0.297 N 
ATOM      9  C   UNL     1      -0.712   0.708   2.281  0.00  0.00    +0.019 C 
ATOM     10  C   UNL     1      -1.145   1.119   3.491  0.00  0.00    +0.024 C 
ATOM     11  C   UNL     1      -1.467   2.568   3.753  0.00  0.00    +0.093 C 
ATOM     12  C   UNL     1      -1.310   0.207   4.550  0.00  0.00    +0.162 C 
ATOM     13  O   UNL     1      -1.722   0.607   5.622  0.00  0.00    -0.292 OA
ATOM     14  C   UNL     1      -0.985  -1.252   4.381  0.00  0.00    +0.080 C 
ATOM     15  C   UNL     1       0.107  -1.398   3.317  0.00  0.00    +0.014 C 
ATOM     16  C   UNL     1      -0.387  -0.744   2.025  0.00  0.00    +0.052 C 
ATOM     17  H   UNL     1      -0.959   3.618  -1.919  0.00  0.00    +0.149 HD
ENDROOT
BRANCH  11  18
ATOM     18  C   UNL     1      -0.369   3.174   4.590  0.00  0.00    -0.035 A 
ATOM     19  C   UNL     1       0.923   3.222   4.103  0.00  0.00    +0.008 A 
ATOM     20  C   UNL     1       1.930   3.782   4.865  0.00  0.00    +0.046 A 
ATOM     21  C   UNL     1       1.645   4.285   6.126  0.00  0.00    +0.117 A 
ATOM     22  C   UNL     1       0.348   4.230   6.616  0.00  0.00    +0.046 A 
ATOM     23  C   UNL     1      -0.656   3.674   5.846  0.00  0.00    +0.008 A 
BRANCH  21  24
ATOM     24  O   UNL     1       2.634   4.831   6.881  0.00  0.00    -0.507 OA
ATOM     25  H   UNL     1       3.088   4.198   7.454  0.00  0.00    +0.292 HD
ENDBRANCH  21  24
ENDBRANCH  11  18
BRANCH   1  26
ATOM     26  C   UNL     1      -2.215   4.662   2.492  0.00  0.00    +0.338 C 
ATOM     27  O   UNL     1      -1.574   5.633   2.846  0.00  0.00    -0.245 OA
BRANCH  26  29
ATOM     28  C   UNL     1      -4.057   6.147   2.160  0.00  0.00    +0.280 C 
ATOM     29  O   UNL     1      -3.503   4.805   2.116  0.00  0.00    -0.465 OA
ENDBRANCH  26  29
ENDBRANCH   1  26
TORSDOF 4
