REMARK  Name = ZINC01874578
REMARK  4 active torsions:
REMARK  status: ('A' for Active; 'I' for Inactive)
REMARK    1  A    between atoms: C_19  and  C_32
REMARK    2  A    between atoms: C_21  and  C_23
REMARK    3  A    between atoms: C_23  and  C_25
REMARK    4  A    between atoms: C_32  and  C_34
REMARK                            x       y       z     vdW  Elec       q    Type
REMARK                         _______ _______ _______ _____ _____    ______ ____
ROOT
ATOM      1  C   UNL     1      -0.262   1.116   0.526  0.00  0.00    +0.000 A 
ATOM      2  C   UNL     1       0.872   1.886   0.691  0.00  0.00    +0.002 A 
ATOM      3  C   UNL     1       2.143   1.334   0.662  0.00  0.00    +0.023 A 
ATOM      4  C   UNL     1       2.237  -0.043   0.456  0.00  0.00    +0.038 A 
ATOM      5  C   UNL     1       1.078  -0.814   0.291  0.00  0.00    -0.008 A 
ATOM      6  C   UNL     1      -0.182  -0.257   0.321  0.00  0.00    +0.006 A 
ATOM      7  C   UNL     1       1.544  -2.216   0.098  0.00  0.00    +0.108 C 
ATOM      8  C   UNL     1       0.975  -3.175   1.142  0.00  0.00    +0.117 C 
ATOM      9  C   UNL     1      -0.203  -2.583   1.867  0.00  0.00    -0.003 C 
ATOM     10  C   UNL     1      -1.214  -3.356   2.253  0.00  0.00    +0.007 C 
ATOM     11  C   UNL     1      -1.215  -4.806   1.979  0.00  0.00    -0.003 A 
ATOM     12  C   UNL     1      -2.057  -5.682   2.652  0.00  0.00    +0.029 A 
ATOM     13  C   UNL     1      -2.029  -7.029   2.344  0.00  0.00    +0.042 A 
ATOM     14  C   UNL     1      -1.170  -7.513   1.371  0.00  0.00    +0.022 A 
ATOM     15  C   UNL     1      -0.320  -6.652   0.697  0.00  0.00    +0.025 A 
ATOM     16  C   UNL     1      -0.333  -5.309   1.000  0.00  0.00    +0.038 A 
ATOM     17  N   UNL     1       0.518  -4.378   0.410  0.00  0.00    -0.311 N 
ATOM     18  C   UNL     1       1.038  -4.314  -0.958  0.00  0.00    +0.158 C 
ATOM     19  C   UNL     1       1.088  -2.788  -1.260  0.00  0.00    +0.110 C 
ATOM     20 CL   UNL     1      -3.079  -8.126   3.186  0.00  0.00    -0.084 Cl
ATOM     21  C   UNL     1       3.048  -2.142   0.170  0.00  0.00    +0.231 C 
ATOM     22  O   UNL     1       3.824  -3.068   0.061  0.00  0.00    -0.274 OA
ATOM     23  N   UNL     1       3.364  -0.845   0.381  0.00  0.00    -0.284 N 
ATOM     24  H   UNL     1       4.271  -0.515   0.468  0.00  0.00    +0.155 HD
ENDROOT
BRANCH  19  25
ATOM     25  C   UNL     1      -0.275  -2.267  -1.635  0.00  0.00    +0.170 C 
ATOM     26  O   UNL     1      -1.271  -2.828  -1.230  0.00  0.00    -0.292 OA
BRANCH  25  27
ATOM     27  C   UNL     1      -0.398  -1.078  -2.492  0.00  0.00    +0.018 A 
ATOM     28  C   UNL     1       0.749  -0.432  -2.966  0.00  0.00    +0.013 A 
ATOM     29  C   UNL     1       0.627   0.681  -3.769  0.00  0.00    +0.020 A 
ATOM     30  C   UNL     1      -0.628   1.161  -4.107  0.00  0.00    +0.041 A 
ATOM     31  C   UNL     1      -1.769   0.526  -3.642  0.00  0.00    +0.020 A 
ATOM     32  C   UNL     1      -1.662  -0.592  -2.843  0.00  0.00    +0.013 A 
ATOM     33 CL   UNL     1      -0.773   2.565  -5.118  0.00  0.00    -0.084 Cl
ENDBRANCH  25  27
ENDBRANCH  19  25
BRANCH  18  34
ATOM     34  C   UNL     1       2.417  -4.917  -1.030  0.00  0.00    +0.191 C 
ATOM     35  O   UNL     1       3.035  -5.142  -0.009  0.00  0.00    -0.289 OA
BRANCH  34  36
ATOM     36  C   UNL     1       2.989  -5.222  -2.284  0.00  0.00    +0.056 A 
ATOM     37  C   UNL     1       4.231  -5.781  -2.570  0.00  0.00    +0.019 A 
ATOM     38  C   UNL     1       4.511  -5.960  -3.900  0.00  0.00    +0.008 A 
ATOM     39  C   UNL     1       3.588  -5.591  -4.825  0.00  0.00    +0.046 A 
ATOM     40  S   UNL     1       2.307  -4.997  -3.916  0.00  0.00    -0.094 S 
ENDBRANCH  34  36
ENDBRANCH  18  34
TORSDOF 4
