REMARK  Name = ZINC21231229
REMARK  7 active torsions:
REMARK  status: ('A' for Active; 'I' for Inactive)
REMARK    1  A    between atoms: C_1  and  O_2
REMARK    2  A    between atoms: O_2  and  C_3
REMARK    3  A    between atoms: C_8  and  C_9
REMARK    4  A    between atoms: C_14  and  C_24
REMARK    5  A    between atoms: C_28  and  O_31
REMARK    6  A    between atoms: C_29  and  O_30
REMARK    7  A    between atoms: O_31  and  C_32
REMARK                            x       y       z     vdW  Elec       q    Type
REMARK                         _______ _______ _______ _____ _____    ______ ____
ROOT
ATOM      1  C   UNL     1       0.815  -3.290  -2.052  0.00  0.00    +0.035 C 
ATOM      2  C   UNL     1      -0.164  -2.179  -1.676  0.00  0.00    +0.060 C 
ATOM      3  C   UNL     1       0.603  -0.965  -1.177  0.00  0.00    +0.017 C 
ATOM      4  C   UNL     1       1.801  -0.661  -1.699  0.00  0.00    +0.037 C 
ATOM      5  C   UNL     1       2.652   0.533  -1.333  0.00  0.00    +0.140 C 
ATOM      6  N   UNL     1       2.207   1.240  -0.150  0.00  0.00    -0.331 N 
ATOM      7  C   UNL     1       0.975   1.887  -0.121  0.00  0.00    +0.049 A 
ATOM      8  C   UNL     1       0.889   3.269  -0.044  0.00  0.00    +0.025 A 
ATOM      9  C   UNL     1      -0.353   3.878  -0.095  0.00  0.00    +0.002 A 
ATOM     10  C   UNL     1      -1.502   3.118  -0.222  0.00  0.00    +0.002 A 
ATOM     11  C   UNL     1      -1.421   1.737  -0.276  0.00  0.00    +0.025 A 
ATOM     12  C   UNL     1      -0.182   1.127  -0.206  0.00  0.00    +0.052 A 
ATOM     13  N   UNL     1      -0.031  -0.257  -0.207  0.00  0.00    -0.316 N 
ATOM     14  C   UNL     1       2.386  -1.498  -2.678  0.00  0.00    +0.163 C 
ATOM     15  O   UNL     1       3.465  -1.189  -3.144  0.00  0.00    -0.292 OA
ATOM     16  C   UNL     1       1.725  -2.754  -3.163  0.00  0.00    +0.088 C 
ATOM     17  H   UNL     1       2.846   1.271   0.745  0.00  0.00    +0.147 HD
ATOM     18  H   UNL     1      -0.471  -0.778   0.656  0.00  0.00    +0.152 HD
ENDROOT
BRANCH   1  24
ATOM     19  C   UNL     1       0.210  -5.720  -1.918  0.00  0.00    +0.124 A 
ATOM     20  C   UNL     1      -0.492  -6.826  -2.375  0.00  0.00    +0.046 A 
ATOM     21  C   UNL     1      -1.334  -6.706  -3.464  0.00  0.00    +0.004 A 
ATOM     22  C   UNL     1      -1.480  -5.484  -4.095  0.00  0.00    +0.001 A 
ATOM     23  C   UNL     1      -0.786  -4.379  -3.637  0.00  0.00    +0.007 A 
ATOM     24  C   UNL     1       0.058  -4.494  -2.549  0.00  0.00    -0.002 A 
BRANCH  19  26
ATOM     25  C   UNL     1       1.152  -7.129  -0.250  0.00  0.00    +0.277 C 
ATOM     26  O   UNL     1       1.044  -5.837  -0.850  0.00  0.00    -0.495 OA
ENDBRANCH  19  26
ENDBRANCH   1  24
BRANCH   5  27
ATOM     27  C   UNL     1       2.652   1.495  -2.493  0.00  0.00    +0.022 A 
ATOM     28  C   UNL     1       1.691   1.387  -3.481  0.00  0.00    +0.009 A 
ATOM     29  C   UNL     1       1.688   2.267  -4.546  0.00  0.00    +0.004 A 
ATOM     30  C   UNL     1       2.647   3.260  -4.629  0.00  0.00    +0.049 A 
ATOM     31  C   UNL     1       3.613   3.374  -3.643  0.00  0.00    +0.162 A 
ATOM     32  C   UNL     1       3.612   2.490  -2.567  0.00  0.00    +0.164 A 
BRANCH  32  33
ATOM     33  O   UNL     1       4.555   2.602  -1.593  0.00  0.00    -0.503 OA
ATOM     34  H   UNL     1       5.317   3.393  -1.653  0.00  0.00    +0.292 HD
ENDBRANCH  32  33
BRANCH  31  35
ATOM     35  O   UNL     1       4.557   4.350  -3.723  0.00  0.00    -0.491 OA
ATOM     36  C   UNL     1       4.493   5.224  -4.851  0.00  0.00    +0.277 C 
ENDBRANCH  31  35
ENDBRANCH   5  27
TORSDOF 5
