REMARK  Name = ZINC10754901
REMARK  4 active torsions:
REMARK  status: ('A' for Active; 'I' for Inactive)
REMARK    1  A    between atoms: C_3  and  S_6
REMARK    2  A    between atoms: S_6  and  N_9
REMARK    3  A    between atoms: C_13  and  C_16
REMARK    4  A    between atoms: C_22  and  C_24
REMARK                            x       y       z     vdW  Elec       q    Type
REMARK                         _______ _______ _______ _____ _____    ______ ____
ROOT
ATOM      1  C   UNL     1       2.135  -6.570  -0.056  0.00  0.00    +0.225 C 
ATOM      2  O   UNL     1       0.927  -6.672  -0.045  0.00  0.00    -0.275 OA
ATOM      3  N   UNL     1       2.709  -5.350  -0.054  0.00  0.00    -0.238 N 
ATOM      4  C   UNL     1       1.917  -4.213  -0.041  0.00  0.00    +0.314 A 
ATOM      5  N   UNL     1       0.607  -4.180  -0.028  0.00  0.00    -0.092 NA
ATOM      6  N   UNL     1       0.209  -2.956  -0.017  0.00  0.00    -0.106 NA
ATOM      7  C   UNL     1       1.251  -2.160  -0.022  0.00  0.00    +0.251 A 
ATOM      8  O   UNL     1       2.354  -2.939  -0.042  0.00  0.00    -0.405 OA
ATOM      9  H   UNL     1       3.675  -5.269  -0.062  0.00  0.00    +0.159 HD
ENDROOT
BRANCH   7  10
ATOM     10  C   UNL     1       1.223  -0.683  -0.013  0.00  0.00    +0.058 A 
ATOM     11  C   UNL     1       2.417   0.041  -0.021  0.00  0.00    +0.034 A 
ATOM     12  C   UNL     1       2.384   1.421  -0.013  0.00  0.00    +0.042 A 
ATOM     13  C   UNL     1       1.170   2.088   0.002  0.00  0.00    +0.021 A 
ATOM     14  C   UNL     1      -0.017   1.377   0.010  0.00  0.00    +0.022 A 
ATOM     15  C   UNL     1       0.002  -0.004   0.002  0.00  0.00    +0.053 A 
ATOM     16 CL   UNL     1      -1.488  -0.894   0.011  0.00  0.00    -0.083 Cl
ATOM     17 CL   UNL     1       3.867   2.323  -0.023  0.00  0.00    -0.084 Cl
ENDBRANCH   7  10
BRANCH   1  22
ATOM     18  N   UNL     1       2.951 -10.242  -0.219  0.00  0.00    -0.175 NA
ATOM     19  C   UNL     1       3.893 -10.305  -1.344  0.00  0.00    +0.109 C 
ATOM     20  C   UNL     1       4.766  -9.047  -1.327  0.00  0.00    +0.018 C 
ATOM     21  C   UNL     1       3.869  -7.808  -1.327  0.00  0.00    +0.015 C 
ATOM     22  C   UNL     1       2.996  -7.807  -0.070  0.00  0.00    +0.091 C 
ATOM     23  C   UNL     1       2.102  -9.052  -0.073  0.00  0.00    +0.122 C 
BRANCH  18  24
ATOM     24  S   UNL     1       2.847 -11.490   0.865  0.00  0.00    +0.067 S 
ATOM     25  O   UNL     1       1.552 -11.416   1.446  0.00  0.00    -0.152 OA
ATOM     26  O   UNL     1       3.316 -12.651   0.195  0.00  0.00    -0.152 OA
BRANCH  24  29
ATOM     27  C   UNL     1       4.868 -10.331   4.189  0.00  0.00    +0.010 A 
ATOM     28  C   UNL     1       3.809 -10.470   3.312  0.00  0.00    +0.036 A 
ATOM     29  C   UNL     1       3.998 -11.155   2.157  0.00  0.00    +0.143 A 
ATOM     30  S   UNL     1       5.712 -11.635   2.288  0.00  0.00    -0.077 S 
ATOM     31  C   UNL     1       6.064 -10.883   3.868  0.00  0.00    +0.047 A 
ENDBRANCH  24  29
ENDBRANCH  18  24
ENDBRANCH   1  22
TORSDOF 4
