REMARK  Name = ZINC00102604
REMARK  5 active torsions:
REMARK  status: ('A' for Active; 'I' for Inactive)
REMARK    1  A    between atoms: C_1  and  C_2
REMARK    2  A    between atoms: C_5  and  N_8
REMARK    3  A    between atoms: N_8  and  S_9
REMARK    4  A    between atoms: S_9  and  C_12
REMARK    5  A    between atoms: C_17  and  N_18
REMARK                            x       y       z     vdW  Elec       q    Type
REMARK                         _______ _______ _______ _____ _____    ______ ____
ROOT
ATOM      1  S   UNL     1       0.220   1.764  -0.553  0.00  0.00    +0.075 S 
ATOM      2  O   UNL     1       0.505   0.376  -0.662  0.00  0.00    -0.150 OA
ATOM      3  O   UNL     1       1.183   2.765  -0.851  0.00  0.00    -0.150 OA
ENDROOT
BRANCH   1   4
ATOM      4  C   UNL     1      -1.169   2.076  -1.591  0.00  0.00    +0.139 A 
ATOM      5  C   UNL     1      -1.699   1.058  -2.361  0.00  0.00    +0.031 A 
ATOM      6  C   UNL     1      -2.792   1.302  -3.172  0.00  0.00    +0.002 A 
ATOM      7  C   UNL     1      -3.347   2.567  -3.221  0.00  0.00    +0.002 A 
ATOM      8  C   UNL     1      -2.814   3.586  -2.456  0.00  0.00    +0.035 A 
ATOM      9  C   UNL     1      -1.724   3.341  -1.641  0.00  0.00    +0.153 A 
BRANCH   9  10
ATOM     10  N   UNL     1      -1.152   4.433  -0.821  0.00  0.00    +0.058 N 
ATOM     11  O   UNL     1      -1.556   5.574  -0.959  0.00  0.00    -0.126 OA
ATOM     12  O   UNL     1      -0.278   4.191  -0.009  0.00  0.00    -0.126 OA
ENDBRANCH   9  10
ENDBRANCH   1   4
BRANCH   1  13
ATOM     13  N   UNL     1      -0.267   2.025   1.008  0.00  0.00    -0.216 N 
ATOM     14  H   UNL     1       0.139   2.735   1.530  0.00  0.00    +0.174 HD
BRANCH  13  19
ATOM     15  C   UNL     1      -4.310  -1.224   3.300  0.00  0.00    +0.044 C 
ATOM     16  C   UNL     1      -3.236  -0.360   2.691  0.00  0.00    -0.050 A 
ATOM     17  C   UNL     1      -2.072  -0.108   3.394  0.00  0.00    +0.005 A 
ATOM     18  C   UNL     1      -1.086   0.683   2.839  0.00  0.00    +0.025 A 
ATOM     19  C   UNL     1      -1.263   1.225   1.572  0.00  0.00    +0.048 A 
ATOM     20  C   UNL     1      -2.435   0.973   0.870  0.00  0.00    +0.025 A 
ATOM     21  C   UNL     1      -3.415   0.177   1.429  0.00  0.00    +0.005 A 
ENDBRANCH  13  19
ENDBRANCH   1  13
TORSDOF 4
