REMARK  Name = ZINC63738749
REMARK  6 active torsions:
REMARK  status: ('A' for Active; 'I' for Inactive)
REMARK    1  A    between atoms: C_1  and  C_2
REMARK    2  A    between atoms: C_2  and  C_4
REMARK    3  A    between atoms: C_2  and  C_24
REMARK    4  A    between atoms: C_10  and  C_12
REMARK    5  A    between atoms: C_18  and  O_22
REMARK    6  A    between atoms: O_22  and  C_23
REMARK                            x       y       z     vdW  Elec       q    Type
REMARK                         _______ _______ _______ _____ _____    ______ ____
ROOT
ATOM      1  C   UNL     1       0.741  -0.273  -1.312  0.00  0.00    +0.004 C 
ATOM      2  C   UNL     1      -0.105   0.230  -2.484  0.00  0.00    +0.023 C 
ATOM      3  C   UNL     1       0.653  -0.006  -3.794  0.00  0.00    +0.108 C 
ATOM      4  N   UNL     1       1.018  -1.427  -3.880  0.00  0.00    -0.300 N 
ATOM      5  C   UNL     1       1.754  -2.036  -2.763  0.00  0.00    +0.108 C 
ATOM      6  C   UNL     1       0.983  -1.777  -1.465  0.00  0.00    +0.023 C 
ATOM      7  C   UNL     1       0.682  -2.158  -4.961  0.00  0.00    +0.242 C 
ATOM      8  O   UNL     1       0.074  -1.644  -5.876  0.00  0.00    -0.273 OA
ENDROOT
BRANCH   7   9
ATOM      9  C   UNL     1       1.063  -3.615  -5.034  0.00  0.00    +0.190 C 
ATOM     10  C   UNL     1       0.391  -4.385  -3.920  0.00  0.00    +0.016 C 
ATOM     11  C   UNL     1      -0.392  -5.308  -4.521  0.00  0.00    -0.003 A 
ATOM     12  C   UNL     1      -1.286  -6.346  -3.992  0.00  0.00    +0.013 A 
ATOM     13  C   UNL     1      -1.955  -7.139  -4.857  0.00  0.00    +0.046 A 
ATOM     14  C   UNL     1      -1.816  -6.994  -6.250  0.00  0.00    +0.122 A 
ATOM     15  C   UNL     1      -1.008  -6.057  -6.809  0.00  0.00    +0.071 A 
ATOM     16  C   UNL     1      -0.262  -5.174  -5.990  0.00  0.00    +0.047 A 
ATOM     17  N   UNL     1       0.574  -4.203  -6.285  0.00  0.00    -0.370 N 
ATOM     18  H   UNL     1       0.825  -3.923  -7.179  0.00  0.00    +0.161 HD
BRANCH  14  19
ATOM     19  O   UNL     1      -2.515  -7.822  -7.065  0.00  0.00    -0.495 OA
ATOM     20  C   UNL     1      -3.353  -8.794  -6.438  0.00  0.00    +0.277 C 
ENDBRANCH  14  19
ENDBRANCH   7   9
BRANCH   1  22
ATOM     21  C   UNL     1      -0.241   1.496   0.154  0.00  0.00    +0.017 C 
ATOM     22  C   UNL     1       0.002  -0.007   0.001  0.00  0.00    +0.075 C 
BRANCH  22  23
ATOM     23  C   UNL     1       0.835  -0.501   1.155  0.00  0.00    +0.219 C 
ATOM     24  O   UNL     1       2.038  -0.598   1.037  0.00  0.00    -0.275 OA
ATOM     25  N   UNL     1       0.243  -0.837   2.319  0.00  0.00    -0.301 N 
ATOM     26  C   UNL     1      -1.221  -0.833   2.442  0.00  0.00    +0.113 C 
ATOM     27  C   UNL     1      -1.613   0.041   3.639  0.00  0.00    +0.084 C 
ATOM     28  C   UNL     1      -0.875  -0.449   4.886  0.00  0.00    +0.173 C 
ATOM     29  C   UNL     1       0.636  -0.337   4.675  0.00  0.00    +0.084 C 
ATOM     30  C   UNL     1       1.049  -1.218   3.486  0.00  0.00    +0.113 C 
ATOM     31  O   UNL     1      -1.224  -1.813   5.148  0.00  0.00    -0.346 OA
ATOM     32  C   UNL     1      -1.848  -1.853   6.448  0.00  0.00    +0.191 C 
ATOM     33  C   UNL     1      -2.322  -0.393   6.654  0.00  0.00    +0.191 C 
ATOM     34  O   UNL     1      -1.260   0.354   6.014  0.00  0.00    -0.346 OA
ENDBRANCH  22  23
ENDBRANCH   1  22
TORSDOF 4
