REMARK  Name = ZINC58925247
REMARK  10 active torsions:
REMARK  status: ('A' for Active; 'I' for Inactive)
REMARK    1  A    between atoms: C_1  and  C_2
REMARK    2  A    between atoms: C_5  and  S_8
REMARK    3  A    between atoms: S_8  and  N_11
REMARK    4  A    between atoms: N_11  and  C_12
REMARK    5  A    between atoms: N_11  and  C_29
REMARK    6  A    between atoms: C_12  and  C_13
REMARK    7  A    between atoms: N_15  and  N_16
REMARK    8  A    between atoms: C_17  and  C_18
REMARK    9  A    between atoms: C_22  and  O_24
REMARK   10  A    between atoms: O_24  and  C_25
REMARK                            x       y       z     vdW  Elec       q    Type
REMARK                         _______ _______ _______ _____ _____    ______ ____
ROOT
ATOM      1  N   UNL     1       2.779  -5.349  -0.718  0.00  0.00    -0.191 N 
ENDROOT
BRANCH   1   2
ATOM      2  C   UNL     1       3.346  -5.779  -1.922  0.00  0.00    +0.087 A 
ATOM      3  C   UNL     1       3.163  -7.088  -2.349  0.00  0.00    +0.027 A 
ATOM      4  C   UNL     1       3.723  -7.510  -3.539  0.00  0.00    +0.002 A 
ATOM      5  C   UNL     1       4.466  -6.632  -4.306  0.00  0.00    +0.003 A 
ATOM      6  C   UNL     1       4.651  -5.327  -3.885  0.00  0.00    +0.040 A 
ATOM      7  C   UNL     1       4.088  -4.896  -2.698  0.00  0.00    +0.146 A 
ATOM      8  F   UNL     1       4.264  -3.620  -2.291  0.00  0.00    -0.203 F 
ENDBRANCH   1   2
BRANCH   1   9
ATOM      9  S   UNL     1       1.306  -4.594  -0.720  0.00  0.00    +0.075 S 
ATOM     10  O   UNL     1       0.752  -4.782   0.576  0.00  0.00    -0.150 OA
ATOM     11  O   UNL     1       0.637  -5.011  -1.902  0.00  0.00    -0.150 OA
BRANCH   9  16
ATOM     12  C   UNL     1       2.328   1.322  -1.316  0.00  0.00    +0.044 C 
ATOM     13  C   UNL     1       2.073  -0.155  -1.167  0.00  0.00    -0.050 A 
ATOM     14  C   UNL     1       1.901  -0.944  -2.289  0.00  0.00    +0.005 A 
ATOM     15  C   UNL     1       1.667  -2.299  -2.153  0.00  0.00    +0.029 A 
ATOM     16  C   UNL     1       1.605  -2.867  -0.894  0.00  0.00    +0.109 A 
ATOM     17  C   UNL     1       1.778  -2.078   0.229  0.00  0.00    +0.029 A 
ATOM     18  C   UNL     1       2.016  -0.724   0.092  0.00  0.00    +0.005 A 
ENDBRANCH   9  16
ENDBRANCH   1   9
BRANCH   1  19
ATOM     19  C   UNL     1       3.490  -5.566   0.544  0.00  0.00    +0.229 C 
BRANCH  19  20
ATOM     20  C   UNL     1       3.184  -6.948   1.062  0.00  0.00    +0.251 C 
ATOM     21  O   UNL     1       2.446  -7.680   0.437  0.00  0.00    -0.272 OA
ATOM     22  N   UNL     1       3.732  -7.371   2.219  0.00  0.00    -0.206 N 
ATOM     23  H   UNL     1       4.323  -6.785   2.718  0.00  0.00    +0.177 HD
BRANCH  22  24
ATOM     24  N   UNL     1       3.448  -8.655   2.700  0.00  0.00    -0.188 NA
ATOM     25  C   UNL     1       3.975  -9.062   3.813  0.00  0.00    +0.138 C 
BRANCH  25  26
ATOM     26  C   UNL     1       3.676 -10.415   4.320  0.00  0.00    -0.002 A 
ATOM     27  C   UNL     1       2.830 -11.262   3.600  0.00  0.00    +0.010 A 
ATOM     28  C   UNL     1       2.553 -12.527   4.077  0.00  0.00    +0.004 A 
ATOM     29  C   UNL     1       3.110 -12.959   5.266  0.00  0.00    +0.046 A 
ATOM     30  C   UNL     1       3.951 -12.125   5.989  0.00  0.00    +0.122 A 
ATOM     31  C   UNL     1       4.242 -10.856   5.517  0.00  0.00    +0.055 A 
BRANCH  30  32
ATOM     32  O   UNL     1       4.495 -12.556   7.158  0.00  0.00    -0.487 OA
BRANCH  32  33
ATOM     33  C   UNL     1       5.245 -11.603   7.915  0.00  0.00    +0.193 C 
ATOM     34  C   UNL     1       6.758 -11.777   7.770  0.00  0.00    +0.114 C 
ATOM     35  S   UNL     1       6.985 -11.181   9.469  0.00  0.00    -0.153 S 
ATOM     36  C   UNL     1       5.348 -11.961   9.399  0.00  0.00    +0.114 C 
ENDBRANCH  32  33
ENDBRANCH  30  32
ENDBRANCH  25  26
ENDBRANCH  22  24
ENDBRANCH  19  20
ENDBRANCH   1  19
TORSDOF 9
