REMARK  Name = ZINC09077467
REMARK  10 active torsions:
REMARK  status: ('A' for Active; 'I' for Inactive)
REMARK    1  A    between atoms: C_1  and  O_2
REMARK    2  A    between atoms: O_2  and  C_3
REMARK    3  A    between atoms: C_3  and  C_5
REMARK    4  A    between atoms: C_5  and  N_6
REMARK    5  A    between atoms: C_10  and  S_29
REMARK    6  A    between atoms: N_15  and  C_16
REMARK    7  A    between atoms: C_16  and  C_18
REMARK    8  A    between atoms: C_19  and  C_20
REMARK    9  A    between atoms: C_24  and  N_26
REMARK   10  A    between atoms: S_29  and  C_32
REMARK                            x       y       z     vdW  Elec       q    Type
REMARK                         _______ _______ _______ _____ _____    ______ ____
ROOT
ATOM      1  N   UNL     1       0.123  -0.285   0.156  0.00  0.00    -0.310 N 
ATOM      2  C   UNL     1       0.374   0.984   0.646  0.00  0.00    +0.058 A 
ATOM      3  C   UNL     1      -0.567   1.946   1.054  0.00  0.00    +0.029 A 
ATOM      4  C   UNL     1      -0.163   3.174   1.520  0.00  0.00    +0.029 A 
ATOM      5  C   UNL     1       1.179   3.502   1.612  0.00  0.00    +0.089 A 
ATOM      6  C   UNL     1       2.128   2.573   1.223  0.00  0.00    +0.044 A 
ATOM      7  C   UNL     1       1.725   1.346   0.752  0.00  0.00    +0.041 A 
ATOM      8  S   UNL     1       2.583  -0.094   0.165  0.00  0.00    -0.052 S 
ATOM      9  C   UNL     1       1.155  -1.104  -0.193  0.00  0.00    +0.167 A 
ATOM     10  N   UNL     1       1.110  -2.340  -0.676  0.00  0.00    -0.153 NA
ENDROOT
BRANCH   5  11
ATOM     11  S   UNL     1       1.672   5.081   2.219  0.00  0.00    -0.006 S 
ATOM     12  O   UNL     1       0.603   5.496   3.059  0.00  0.00    -0.170 OA
ATOM     13  O   UNL     1       2.973   4.874   2.752  0.00  0.00    -0.170 OA
ATOM     14  C   UNL     1       1.759   6.139   0.749  0.00  0.00    +0.200 C 
ENDBRANCH   5  11
BRANCH  10  15
ATOM     15  C   UNL     1       2.247  -2.990  -0.961  0.00  0.00    +0.262 C 
ATOM     16  O   UNL     1       3.324  -2.446  -0.775  0.00  0.00    -0.269 OA
BRANCH  15  17
ATOM     17  C   UNL     1       2.197  -4.357  -1.495  0.00  0.00    +0.070 C 
ATOM     18  C   UNL     1       3.339  -5.010  -1.781  0.00  0.00    +0.013 C 
BRANCH  18  19
ATOM     19  C   UNL     1       3.289  -6.380  -2.317  0.00  0.00    -0.023 A 
ATOM     20  C   UNL     1       2.058  -7.007  -2.531  0.00  0.00    +0.008 A 
ATOM     21  C   UNL     1       2.019  -8.290  -3.033  0.00  0.00    +0.003 A 
ATOM     22  C   UNL     1       3.195  -8.958  -3.325  0.00  0.00    +0.033 A 
ATOM     23  C   UNL     1       4.418  -8.345  -3.117  0.00  0.00    +0.127 A 
ATOM     24  C   UNL     1       4.473  -7.059  -2.621  0.00  0.00    +0.040 A 
BRANCH  23  25
ATOM     25  N   UNL     1       5.670  -9.068  -3.434  0.00  0.00    +0.056 N 
ATOM     26  O   UNL     1       5.623 -10.202  -3.877  0.00  0.00    -0.126 OA
ATOM     27  O   UNL     1       6.747  -8.530  -3.251  0.00  0.00    -0.126 OA
ENDBRANCH  23  25
ENDBRANCH  18  19
ENDBRANCH  15  17
ENDBRANCH  10  15
BRANCH   1  28
ATOM     28  C   UNL     1      -1.258  -0.750   0.010  0.00  0.00    +0.244 C 
BRANCH  28  29
ATOM     29  C   UNL     1      -1.397  -1.516  -1.280  0.00  0.00    +0.327 C 
ATOM     30  O   UNL     1      -0.493  -1.518  -2.082  0.00  0.00    -0.249 OA
BRANCH  29  32
ATOM     31  C   UNL     1      -2.589  -2.910  -2.802  0.00  0.00    +0.280 C 
ATOM     32  O   UNL     1      -2.525  -2.196  -1.540  0.00  0.00    -0.467 OA
ENDBRANCH  29  32
ENDBRANCH  28  29
ENDBRANCH   1  28
TORSDOF 8
