REMARK  Name = ZINC52584624
REMARK  11 active torsions:
REMARK  status: ('A' for Active; 'I' for Inactive)
REMARK    1  A    between atoms: C_1  and  C_2
REMARK    2  A    between atoms: C_2  and  C_3
REMARK    3  A    between atoms: C_2  and  C_4
REMARK    4  A    between atoms: C_2  and  N_37
REMARK    5  A    between atoms: N_6  and  C_7
REMARK    6  A    between atoms: C_7  and  C_9
REMARK    7  A    between atoms: C_7  and  C_19
REMARK    8  A    between atoms: C_9  and  C_10
REMARK    9  A    between atoms: C_25  and  C_27
REMARK   10  A    between atoms: C_25  and  C_34
REMARK   11  A    between atoms: C_27  and  C_28
REMARK                            x       y       z     vdW  Elec       q    Type
REMARK                         _______ _______ _______ _____ _____    ______ ____
ROOT
ATOM      1  C   UNL     1      -4.649  -1.330  -0.965  0.00  0.00    +0.163 C 
ENDROOT
BRANCH   1   2
ATOM      2  C   UNL     1      -4.365  -2.708  -0.424  0.00  0.00    +0.236 C 
ATOM      3  O   UNL     1      -3.424  -2.886   0.319  0.00  0.00    -0.274 OA
ATOM      4  N   UNL     1      -5.158  -3.743  -0.766  0.00  0.00    -0.299 N 
ATOM      5  C   UNL     1      -6.299  -3.545  -1.670  0.00  0.00    +0.108 C 
ATOM      6  C   UNL     1      -6.188  -4.538  -2.831  0.00  0.00    +0.020 C 
ATOM      7  C   UNL     1      -6.067  -5.958  -2.273  0.00  0.00    +0.022 C 
ATOM      8  C   UNL     1      -4.801  -6.067  -1.420  0.00  0.00    +0.093 C 
ATOM      9  C   UNL     1      -4.894  -5.092  -0.248  0.00  0.00    +0.126 C 
BRANCH   8  10
ATOM     10  C   UNL     1      -4.667  -7.474  -0.897  0.00  0.00    +0.364 C 
ATOM     11  O   UNL     1      -4.488  -8.398  -1.672  0.00  0.00    -0.246 OA
ATOM     12  O   UNL     1      -4.737  -7.688   0.301  0.00  0.00    -0.246 OA
ENDBRANCH   8  10
BRANCH   8  13
ATOM     13  C   UNL     1      -3.580  -5.719  -2.273  0.00  0.00    +0.075 C 
BRANCH  13  14
ATOM     14  C   UNL     1      -2.324  -5.977  -1.480  0.00  0.00    +0.042 A 
ATOM     15  C   UNL     1      -1.430  -6.940  -1.910  0.00  0.00    +0.023 A 
ATOM     16  C   UNL     1      -0.278  -7.169  -1.174  0.00  0.00    +0.003 A 
ATOM     17  C   UNL     1      -0.067  -6.419  -0.028  0.00  0.00    +0.020 A 
ATOM     18  C   UNL     1      -1.006  -5.474   0.341  0.00  0.00    +0.111 A 
ATOM     19  N   UNL     1      -2.088  -5.278  -0.387  0.00  0.00    -0.260 NA
ENDBRANCH  13  14
ENDBRANCH   8  13
ENDBRANCH   1   2
BRANCH   1  22
ATOM     20  C   UNL     1      -2.884  -0.276   0.342  0.00  0.00    +0.202 C 
ATOM     21  O   UNL     1      -3.382  -0.749   1.342  0.00  0.00    -0.277 OA
ATOM     22  N   UNL     1      -3.442  -0.507  -0.862  0.00  0.00    -0.305 N 
ATOM     23  H   UNL     1      -3.044  -0.129  -1.662  0.00  0.00    +0.149 HD
BRANCH  20  25
ATOM     24  C   UNL     1      -2.035   2.048   0.509  0.00  0.00    -0.001 C 
ATOM     25  C   UNL     1      -1.642   0.571   0.447  0.00  0.00    +0.001 C 
ATOM     26  C   UNL     1      -0.874   0.194   1.716  0.00  0.00    -0.001 C 
BRANCH  25  27
ATOM     27  N   UNL     1      -0.791   0.340  -0.727  0.00  0.00    +0.387 N 
ATOM     28  H   UNL     1       0.041   0.907  -0.657  0.00  0.00    -0.089 HD
ATOM     29  H   UNL     1      -0.531  -0.634  -0.768  0.00  0.00    -0.089 HD
ATOM     30  H   UNL     1      -1.297   0.588  -1.564  0.00  0.00    -0.089 HD
ENDBRANCH  25  27
ENDBRANCH  20  25
ENDBRANCH   1  22
BRANCH   1  31
ATOM     31  C   UNL     1      -5.776  -0.686  -0.153  0.00  0.00    +0.065 C 
BRANCH  31  32
ATOM     32  C   UNL     1      -6.144   0.639  -0.768  0.00  0.00    -0.039 C 
ATOM     33  C   UNL     1      -7.140   0.877  -1.652  0.00  0.00    -0.001 A 
ATOM     34  C   UNL     1      -8.140   0.006  -2.281  0.00  0.00    +0.010 A 
ATOM     35  C   UNL     1      -9.028   0.546  -3.146  0.00  0.00    +0.001 A 
ATOM     36  C   UNL     1      -9.018   1.913  -3.456  0.00  0.00    +0.002 A 
ATOM     37  C   UNL     1      -8.130   2.776  -2.919  0.00  0.00    +0.026 A 
ATOM     38  C   UNL     1      -7.150   2.317  -1.996  0.00  0.00    +0.043 A 
ATOM     39  N   UNL     1      -6.197   2.945  -1.350  0.00  0.00    -0.380 N 
ATOM     40  C   UNL     1      -5.478   1.974  -0.518  0.00  0.00    +0.144 C 
ATOM     41  H   UNL     1      -6.003   3.893  -1.410  0.00  0.00    +0.160 HD
ENDBRANCH  31  32
ENDBRANCH   1  31
TORSDOF 9
