REMARK  Name = ZINC12132209
REMARK  3 active torsions:
REMARK  status: ('A' for Active; 'I' for Inactive)
REMARK    1  A    between atoms: C_1  and  C_2
REMARK    2  A    between atoms: N_13  and  C_19
REMARK    3  A    between atoms: C_19  and  C_20
REMARK                            x       y       z     vdW  Elec       q    Type
REMARK                         _______ _______ _______ _____ _____    ______ ____
ROOT
ATOM      1  C   UNL     1      -1.365   9.459   0.134  0.00  0.00    +0.008 C 
ATOM      2  C   UNL     1      -0.978   8.007   0.417  0.00  0.00    -0.009 C 
ATOM      3  C   UNL     1       0.235   7.619  -0.434  0.00  0.00    +0.008 C 
ATOM      4  C   UNL     1       0.781   6.265   0.022  0.00  0.00    +0.037 C 
ATOM      5  C   UNL     1      -0.361   5.252   0.030  0.00  0.00    -0.024 A 
ATOM      6  C   UNL     1      -1.649   5.670   0.044  0.00  0.00    -0.004 A 
ATOM      7  S   UNL     1      -2.603   4.175   0.047  0.00  0.00    -0.073 S 
ATOM      8  C   UNL     1      -1.251   3.023   0.030  0.00  0.00    +0.114 A 
ATOM      9  C   UNL     1      -0.125   3.855   0.023  0.00  0.00    +0.056 A 
ATOM     10  C   UNL     1       1.179   3.143   0.008  0.00  0.00    +0.173 A 
ATOM     11  N   UNL     1       2.412   3.564  -0.001  0.00  0.00    -0.148 NA
ATOM     12  N   UNL     1       3.248   2.437  -0.015  0.00  0.00    -0.203 N 
ATOM     13  C   UNL     1       2.458   1.343  -0.014  0.00  0.00    +0.353 A 
ATOM     14  O   UNL     1       2.835   0.185  -0.025  0.00  0.00    -0.244 OA
ATOM     15  N   UNL     1       1.175   1.761   0.000  0.00  0.00    -0.233 N 
ATOM     16  C   UNL     1      -0.013   1.076   0.008  0.00  0.00    +0.211 A 
ATOM     17  N   UNL     1      -1.156   1.694   0.017  0.00  0.00    -0.229 NA
ATOM     18  C   UNL     1      -2.148   7.081   0.054  0.00  0.00    +0.046 C 
ENDROOT
BRANCH  12  19
ATOM     19  C   UNL     1       4.713   2.447  -0.028  0.00  0.00    +0.244 C 
BRANCH  19  20
ATOM     20  C   UNL     1       5.203   2.458  -1.453  0.00  0.00    +0.232 C 
ATOM     21  O   UNL     1       4.407   2.459  -2.368  0.00  0.00    -0.274 OA
ATOM     22  N   UNL     1       6.526   2.469  -1.711  0.00  0.00    -0.328 N 
ATOM     23  H   UNL     1       7.163   2.468  -0.980  0.00  0.00    +0.145 HD
ATOM     24  H   UNL     1       6.841   2.476  -2.629  0.00  0.00    +0.145 HD
ENDBRANCH  19  20
ENDBRANCH  12  19
TORSDOF 2
