REMARK  Name = ZINC39884081
REMARK  5 active torsions:
REMARK  status: ('A' for Active; 'I' for Inactive)
REMARK    1  A    between atoms: C_1  and  C_2
REMARK    2  A    between atoms: C_5  and  N_8
REMARK    3  A    between atoms: C_9  and  C_11
REMARK    4  A    between atoms: C_11  and  N_12
REMARK    5  A    between atoms: C_18  and  C_33
REMARK                            x       y       z     vdW  Elec       q    Type
REMARK                         _______ _______ _______ _____ _____    ______ ____
ROOT
ATOM      1  N   UNL     1       0.201  -6.896   2.680  0.00  0.00    -0.288 N 
ATOM      2  C   UNL     1       1.479  -7.008   3.169  0.00  0.00    +0.091 A 
ATOM      3  C   UNL     1       1.566  -7.445   4.445  0.00  0.00    +0.033 A 
ATOM      4  S   UNL     1      -0.129  -7.692   4.904  0.00  0.00    -0.030 S 
ATOM      5  C   UNL     1      -0.849  -7.212   3.462  0.00  0.00    +0.292 A 
ATOM      6  O   UNL     1      -2.035  -7.164   3.189  0.00  0.00    -0.259 OA
ATOM      7  C   UNL     1       2.784  -7.665   5.298  0.00  0.00    +0.078 C 
ATOM      8  C   UNL     1       3.925  -6.868   4.718  0.00  0.00    +0.111 C 
ATOM      9  C   UNL     1       4.210  -7.385   3.275  0.00  0.00    +0.152 C 
ATOM     10  S   UNL     1       2.946  -6.629   2.221  0.00  0.00    -0.093 S 
ATOM     11  C   UNL     1       5.599  -6.842   3.079  0.00  0.00    +0.244 C 
ATOM     12  O   UNL     1       6.105  -6.503   2.036  0.00  0.00    -0.273 OA
ATOM     13  N   UNL     1       6.171  -6.808   4.311  0.00  0.00    -0.162 N 
ATOM     14  C   UNL     1       5.291  -7.008   5.312  0.00  0.00    +0.235 C 
ATOM     15  O   UNL     1       5.560  -7.242   6.466  0.00  0.00    -0.274 OA
ATOM     16  C   UNL     1       7.489  -6.612   4.507  0.00  0.00    +0.313 C 
ATOM     17  O   UNL     1       7.939  -6.593   5.636  0.00  0.00    -0.252 OA
ATOM     18  N   UNL     1       8.309  -6.437   3.452  0.00  0.00    -0.313 N 
ATOM     19  H   UNL     1       7.950  -6.452   2.551  0.00  0.00    +0.147 HD
ATOM     20  H   UNL     1       9.259  -6.296   3.594  0.00  0.00    +0.147 HD
ENDROOT
BRANCH   7  21
ATOM     21  C   UNL     1       3.137  -9.130   5.308  0.00  0.00    -0.001 A 
ATOM     22  C   UNL     1       3.572  -9.896   6.338  0.00  0.00    +0.012 A 
ATOM     23  C   UNL     1       3.837 -11.234   6.112  0.00  0.00    +0.008 A 
ATOM     24  C   UNL     1       3.654 -11.740   4.868  0.00  0.00    +0.045 A 
ATOM     25  S   UNL     1       3.084 -10.308   3.967  0.00  0.00    -0.101 S 
ENDBRANCH   7  21
BRANCH   1  26
ATOM     26  C   UNL     1      -0.020  -6.428   1.310  0.00  0.00    +0.222 C 
BRANCH  26  28
ATOM     27  N   UNL     1      -0.362  -4.270   0.149  0.00  0.00    -0.284 N 
ATOM     28  C   UNL     1      -0.152  -4.926   1.307  0.00  0.00    +0.237 C 
ATOM     29  O   UNL     1      -0.070  -4.309   2.348  0.00  0.00    -0.274 OA
ATOM     30  H   UNL     1      -0.503  -4.768  -0.672  0.00  0.00    +0.155 HD
BRANCH  27  35
ATOM     31  C   UNL     1      -0.423   1.402   0.072  0.00  0.00    +0.044 C 
ATOM     32  C   UNL     1      -0.407  -0.105   0.093  0.00  0.00    -0.050 A 
ATOM     33  C   UNL     1       0.418  -0.774   0.978  0.00  0.00    +0.005 A 
ATOM     34  C   UNL     1       0.435  -2.155   0.999  0.00  0.00    +0.023 A 
ATOM     35  C   UNL     1      -0.378  -2.871   0.131  0.00  0.00    +0.033 A 
ATOM     36  C   UNL     1      -1.206  -2.196  -0.757  0.00  0.00    +0.023 A 
ATOM     37  C   UNL     1      -1.222  -0.815  -0.770  0.00  0.00    +0.005 A 
ENDBRANCH  27  35
ENDBRANCH  26  28
ENDBRANCH   1  26
TORSDOF 4
