REMARK  Name = ZINC35556243
REMARK  9 active torsions:
REMARK  status: ('A' for Active; 'I' for Inactive)
REMARK    1  A    between atoms: C_1  and  C_2
REMARK    2  A    between atoms: C_5  and  N_9
REMARK    3  A    between atoms: C_6  and  C_8
REMARK    4  A    between atoms: C_10  and  C_12
REMARK    5  A    between atoms: N_17  and  S_19
REMARK    6  A    between atoms: S_19  and  C_22
REMARK    7  A    between atoms: C_24  and  C_28
REMARK    8  A    between atoms: C_26  and  C_27
REMARK    9  A    between atoms: C_30  and  C_33
REMARK                            x       y       z     vdW  Elec       q    Type
REMARK                         _______ _______ _______ _____ _____    ______ ____
ROOT
ATOM      1  C   UNL     1      -0.134  -6.343  -1.187  0.00  0.00    +0.091 C 
ATOM      2  C   UNL     1      -1.377  -6.777  -0.407  0.00  0.00    +0.015 C 
ATOM      3  C   UNL     1      -1.455  -8.305  -0.379  0.00  0.00    +0.018 C 
ATOM      4  C   UNL     1      -1.575  -8.833  -1.812  0.00  0.00    +0.109 C 
ATOM      5  N   UNL     1      -0.460  -8.301  -2.607  0.00  0.00    -0.176 NA
ATOM      6  C   UNL     1      -0.238  -6.848  -2.629  0.00  0.00    +0.122 C 
ENDROOT
BRANCH   1   8
ATOM      7  N   UNL     1       0.059  -4.170  -0.021  0.00  0.00    -0.285 N 
ATOM      8  C   UNL     1      -0.040  -4.839  -1.187  0.00  0.00    +0.222 C 
ATOM      9  O   UNL     1      -0.054  -4.230  -2.236  0.00  0.00    -0.275 OA
ATOM     10  H   UNL     1       0.135  -4.658   0.814  0.00  0.00    +0.155 HD
BRANCH   7  15
ATOM     11  C   UNL     1       0.025   1.503   0.005  0.00  0.00    +0.044 C 
ATOM     12  C   UNL     1       0.034  -0.004  -0.002  0.00  0.00    -0.050 A 
ATOM     13  C   UNL     1       0.631  -0.685  -1.046  0.00  0.00    +0.005 A 
ATOM     14  C   UNL     1       0.641  -2.066  -1.055  0.00  0.00    +0.024 A 
ATOM     15  C   UNL     1       0.051  -2.771  -0.014  0.00  0.00    +0.036 A 
ATOM     16  C   UNL     1      -0.548  -2.083   1.033  0.00  0.00    -0.029 A 
ATOM     17  C   UNL     1      -0.550  -0.702   1.039  0.00  0.00    +0.008 A 
ATOM     18  C   UNL     1      -1.190  -2.844   2.165  0.00  0.00    +0.045 C 
ENDBRANCH   7  15
ENDBRANCH   1   8
BRANCH   5  19
ATOM     19  S   UNL     1       0.529  -9.318  -3.460  0.00  0.00    +0.062 S 
ATOM     20  O   UNL     1       1.762  -8.633  -3.635  0.00  0.00    -0.153 OA
ATOM     21  O   UNL     1       0.446 -10.589  -2.830  0.00  0.00    -0.153 OA
BRANCH  19  22
ATOM     22  C   UNL     1      -0.175  -9.505  -5.064  0.00  0.00    +0.116 A 
ATOM     23  C   UNL     1       0.492  -9.045  -6.177  0.00  0.00    +0.048 A 
ATOM     24  C   UNL     1      -0.087  -9.208  -7.407  0.00  0.00    +0.062 A 
ATOM     25  S   UNL     1      -1.615 -10.031  -6.988  0.00  0.00    -0.088 S 
ATOM     26  C   UNL     1      -1.382 -10.109  -5.220  0.00  0.00    +0.014 A 
ATOM     27  C   UNL     1      -2.292 -10.692  -4.169  0.00  0.00    +0.053 C 
BRANCH  24  28
ATOM     28  C   UNL     1       0.420  -8.807  -8.736  0.00  0.00    +0.209 A 
ATOM     29  N   UNL     1      -0.213  -8.997  -9.909  0.00  0.00    -0.191 NA
ATOM     30  C   UNL     1       0.509  -8.527 -10.886  0.00  0.00    +0.231 A 
ATOM     31  O   UNL     1       1.636  -8.014 -10.375  0.00  0.00    -0.337 OA
ATOM     32  N   UNL     1       1.561  -8.200  -8.969  0.00  0.00    -0.056 NA
BRANCH  30  33
ATOM     33  C   UNL     1       0.137  -8.554 -12.346  0.00  0.00    +0.078 C 
ATOM     34  C   UNL     1       1.331  -8.815 -13.280  0.00  0.00    +0.013 C 
ATOM     35  C   UNL     1       0.720  -7.766 -14.225  0.00  0.00    +0.001 C 
ATOM     36  C   UNL     1       0.044  -7.158 -12.984  0.00  0.00    +0.013 C 
ENDBRANCH  30  33
ENDBRANCH  24  28
ENDBRANCH  19  22
ENDBRANCH   5  19
TORSDOF 6
