REMARK  Name = ZINC09351004
REMARK  9 active torsions:
REMARK  status: ('A' for Active; 'I' for Inactive)
REMARK    1  A    between atoms: C_1  and  C_2
REMARK    2  A    between atoms: C_8  and  C_10
REMARK    3  A    between atoms: C_10  and  O_11
REMARK    4  A    between atoms: O_11  and  C_12
REMARK    5  A    between atoms: C_12  and  C_14
REMARK    6  A    between atoms: C_19  and  S_20
REMARK    7  A    between atoms: S_20  and  C_21
REMARK    8  A    between atoms: C_21  and  C_22
REMARK    9  A    between atoms: N_24  and  C_25
REMARK                            x       y       z     vdW  Elec       q    Type
REMARK                         _______ _______ _______ _____ _____    ______ ____
ROOT
ATOM      1  C   UNL     1      -7.724   4.406   6.953  0.00  0.00    +0.072 A 
ATOM      2  C   UNL     1      -6.706   4.523   7.903  0.00  0.00    +0.016 A 
ATOM      3  C   UNL     1      -7.000   4.959   9.176  0.00  0.00    +0.001 A 
ATOM      4  C   UNL     1      -8.305   5.272   9.525  0.00  0.00    +0.001 A 
ATOM      5  C   UNL     1      -9.323   5.157   8.601  0.00  0.00    +0.015 A 
ATOM      6  C   UNL     1      -9.045   4.724   7.310  0.00  0.00    +0.022 A 
ENDROOT
BRANCH   1   7
ATOM      7  C   UNL     1      -7.415   3.947   5.588  0.00  0.00    +0.341 C 
ATOM      8  O   UNL     1      -8.305   3.841   4.767  0.00  0.00    -0.245 OA
BRANCH   7   9
ATOM      9  O   UNL     1      -6.146   3.643   5.251  0.00  0.00    -0.452 OA
BRANCH   9  10
ATOM     10  C   UNL     1      -5.916   3.196   3.889  0.00  0.00    +0.328 C 
BRANCH  10  18
ATOM     11  C   UNL     1      -0.013   1.086   0.008  0.00  0.00    +0.066 C 
ATOM     12  C   UNL     1      -0.718   1.572   1.248  0.00  0.00    +0.047 A 
ATOM     13  C   UNL     1      -0.029   1.806   2.391  0.00  0.00    +0.071 A 
ATOM     14  S   UNL     1      -1.348   2.342   3.471  0.00  0.00    -0.060 S 
ATOM     15  C   UNL     1      -2.646   2.204   2.326  0.00  0.00    +0.165 A 
ATOM     16  N   UNL     1      -2.019   1.784   1.244  0.00  0.00    -0.230 NA
ATOM     17  N   UNL     1      -3.999   2.473   2.502  0.00  0.00    -0.262 N 
ATOM     18  C   UNL     1      -4.449   2.904   3.697  0.00  0.00    +0.256 C 
ATOM     19  O   UNL     1      -3.675   3.058   4.618  0.00  0.00    -0.272 OA
ATOM     20  H   UNL     1      -4.618   2.351   1.766  0.00  0.00    +0.157 HD
ENDBRANCH  10  18
ENDBRANCH   9  10
ENDBRANCH   7   9
ENDBRANCH   1   7
BRANCH   6  21
ATOM     21  S   UNL     1     -10.343   4.575   6.127  0.00  0.00    -0.115 S 
BRANCH  21  22
ATOM     22  C   UNL     1     -11.750   5.104   7.136  0.00  0.00    +0.170 C 
BRANCH  22  23
ATOM     23  C   UNL     1     -13.008   5.055   6.308  0.00  0.00    +0.224 C 
ATOM     24  O   UNL     1     -12.958   4.698   5.150  0.00  0.00    -0.275 OA
ATOM     25  N   UNL     1     -14.188   5.408   6.854  0.00  0.00    -0.309 N 
ATOM     26  H   UNL     1     -14.228   5.693   7.781  0.00  0.00    +0.149 HD
BRANCH  25  27
ATOM     27  C   UNL     1     -15.411   5.361   6.050  0.00  0.00    +0.035 C 
ATOM     28  C   UNL     1     -15.267   6.295   4.847  0.00  0.00    +0.029 C 
ATOM     29  C   UNL     1     -16.544   6.246   4.006  0.00  0.00    -0.008 C 
ATOM     30  C   UNL     1     -17.733   6.692   4.859  0.00  0.00    +0.007 C 
ATOM     31  C   UNL     1     -17.878   5.758   6.062  0.00  0.00    -0.008 C 
ATOM     32  C   UNL     1     -16.601   5.807   6.902  0.00  0.00    +0.029 C 
ATOM     33  C   UNL     1     -18.111   4.327   5.571  0.00  0.00    +0.007 C 
ATOM     34  C   UNL     1     -16.922   3.881   4.718  0.00  0.00    -0.008 C 
ATOM     35  C   UNL     1     -16.777   4.816   3.516  0.00  0.00    +0.007 C 
ATOM     36  C   UNL     1     -15.644   3.930   5.559  0.00  0.00    +0.029 C 
ENDBRANCH  25  27
ENDBRANCH  22  23
ENDBRANCH  21  22
ENDBRANCH   6  21
TORSDOF 8
