REMARK  Name = ZINC13201430
REMARK  8 active torsions:
REMARK  status: ('A' for Active; 'I' for Inactive)
REMARK    1  A    between atoms: C_1  and  O_2
REMARK    2  A    between atoms: O_2  and  C_3
REMARK    3  A    between atoms: C_6  and  C_9
REMARK    4  A    between atoms: C_12  and  S_17
REMARK    5  A    between atoms: N_13  and  C_14
REMARK    6  A    between atoms: C_14  and  C_15
REMARK    7  A    between atoms: S_17  and  C_18
REMARK    8  A    between atoms: C_18  and  C_19
REMARK                            x       y       z     vdW  Elec       q    Type
REMARK                         _______ _______ _______ _____ _____    ______ ____
ROOT
ATOM      1  C   UNL     1      -2.986   0.346   1.110  0.00  0.00    +0.165 A 
ATOM      2  N   UNL     1      -3.826  -0.548   0.642  0.00  0.00    -0.128 NA
ATOM      3  N   UNL     1      -3.943  -0.415  -0.631  0.00  0.00    -0.122 NA
ATOM      4  C   UNL     1      -3.190   0.575  -1.053  0.00  0.00    +0.193 A 
ATOM      5  N   UNL     1      -2.550   1.091   0.038  0.00  0.00    -0.291 N 
ENDROOT
BRANCH   1   9
ATOM      6  C   UNL     1      -1.834   0.847   5.169  0.00  0.00    +0.120 A 
ATOM      7  C   UNL     1      -2.993   0.147   4.860  0.00  0.00    +0.046 A 
ATOM      8  C   UNL     1      -3.370  -0.018   3.544  0.00  0.00    +0.015 A 
ATOM      9  C   UNL     1      -2.585   0.520   2.522  0.00  0.00    +0.020 A 
ATOM     10  C   UNL     1      -1.418   1.218   2.837  0.00  0.00    +0.015 A 
ATOM     11  C   UNL     1      -1.051   1.384   4.156  0.00  0.00    +0.046 A 
BRANCH   6  13
ATOM     12  C   UNL     1      -0.263   1.738   6.715  0.00  0.00    +0.277 C 
ATOM     13  O   UNL     1      -1.466   1.007   6.467  0.00  0.00    -0.495 OA
ENDBRANCH   6  13
ENDBRANCH   1   9
BRANCH   5  14
ATOM     14  C   UNL     1      -1.603   2.208   0.063  0.00  0.00    +0.250 C 
BRANCH  14  15
ATOM     15  C   UNL     1      -0.205   1.685  -0.150  0.00  0.00    +0.375 C 
ATOM     16  O   UNL     1      -0.020   0.502  -0.307  0.00  0.00    -0.244 OA
ATOM     17  O   UNL     1       0.833   2.536  -0.171  0.00  0.00    -0.244 OA
ENDBRANCH  14  15
ENDBRANCH   5  14
BRANCH   4  18
ATOM     18  S   UNL     1      -3.031   1.131  -2.717  0.00  0.00    -0.080 S 
BRANCH  18  19
ATOM     19  C   UNL     1      -4.158  -0.020  -3.543  0.00  0.00    +0.133 C 
BRANCH  19  20
ATOM     20  C   UNL     1      -4.184   0.275  -5.020  0.00  0.00    +0.059 A 
ATOM     21  C   UNL     1      -3.526  -0.545  -5.912  0.00  0.00    +0.095 A 
ATOM     22  C   UNL     1      -3.567  -0.259  -7.276  0.00  0.00    +0.259 A 
ATOM     23  O   UNL     1      -2.990  -0.985  -8.071  0.00  0.00    -0.267 OA
ATOM     24  N   UNL     1      -4.248   0.840  -7.722  0.00  0.00    -0.259 N 
ATOM     25  C   UNL     1      -4.358   1.238  -9.047  0.00  0.00    +0.039 A 
ATOM     26  C   UNL     1      -5.064   2.342  -9.321  0.00  0.00    +0.013 A 
ATOM     27  S   UNL     1      -5.621   2.895  -7.731  0.00  0.00    -0.054 S 
ATOM     28  C   UNL     1      -4.867   1.600  -6.770  0.00  0.00    +0.181 A 
ATOM     29  N   UNL     1      -4.839   1.335  -5.487  0.00  0.00    -0.227 NA
ATOM     30  C   UNL     1      -5.322   2.962 -10.658  0.00  0.00    +0.044 C 
ATOM     31  C   UNL     1      -4.346   2.346 -11.672  0.00  0.00    +0.006 C 
ATOM     32  C   UNL     1      -4.357   0.825 -11.498  0.00  0.00    +0.006 C 
ATOM     33  C   UNL     1      -3.695   0.447 -10.173  0.00  0.00    +0.055 C 
ENDBRANCH  19  20
ENDBRANCH  18  19
ENDBRANCH   4  18
TORSDOF 7
