REMARK  Name = ZINC09942683
REMARK  11 active torsions:
REMARK  status: ('A' for Active; 'I' for Inactive)
REMARK    1  A    between atoms: C_1  and  C_2
REMARK    2  A    between atoms: C_5  and  N_9
REMARK    3  A    between atoms: C_6  and  C_8
REMARK    4  A    between atoms: C_10  and  C_12
REMARK    5  A    between atoms: C_13  and  C_35
REMARK    6  A    between atoms: C_17  and  C_29
REMARK    7  A    between atoms: C_20  and  C_22
REMARK    8  A    between atoms: C_29  and  O_31
REMARK    9  A    between atoms: O_31  and  C_32
REMARK   10  A    between atoms: C_32  and  C_33
REMARK   11  A    between atoms: C_32  and  C_34
REMARK                            x       y       z     vdW  Elec       q    Type
REMARK                         _______ _______ _______ _____ _____    ______ ____
ROOT
ATOM      1  C   UNL     1      -2.669   3.395   7.019  0.00  0.00    +0.060 C 
ATOM      2  C   UNL     1      -1.948   3.622   8.126  0.00  0.00    +0.018 C 
ATOM      3  N   UNL     1      -2.529   3.965   9.323  0.00  0.00    -0.287 N 
ATOM      4  C   UNL     1      -3.906   3.817   9.430  0.00  0.00    +0.219 A 
ATOM      5  N   UNL     1      -4.672   3.852  10.481  0.00  0.00    -0.187 NA
ATOM      6  C   UNL     1      -5.952   3.651  10.113  0.00  0.00    +0.260 A 
ATOM      7  N   UNL     1      -5.999   3.488   8.804  0.00  0.00    -0.141 NA
ATOM      8  N   UNL     1      -4.689   3.595   8.340  0.00  0.00    -0.220 N 
ATOM      9  C   UNL     1      -4.170   3.510   6.976  0.00  0.00    +0.177 C 
ATOM     10  C   UNL     1      -0.448   3.497   8.056  0.00  0.00    +0.061 C 
ATOM     11  H   UNL     1      -1.999   4.298  10.064  0.00  0.00    +0.155 HD
ENDROOT
BRANCH   9  12
ATOM     12  C   UNL     1      -4.557   4.747   6.208  0.00  0.00    -0.017 A 
ATOM     13  C   UNL     1      -4.144   5.991   6.648  0.00  0.00    +0.006 A 
ATOM     14  C   UNL     1      -4.494   7.126   5.941  0.00  0.00    +0.001 A 
ATOM     15  C   UNL     1      -5.267   7.018   4.800  0.00  0.00    +0.015 A 
ATOM     16  C   UNL     1      -5.685   5.774   4.363  0.00  0.00    +0.018 A 
ATOM     17  C   UNL     1      -5.330   4.638   5.068  0.00  0.00    +0.021 A 
ATOM     18 BR   UNL     1      -6.744   5.627   2.803  0.00  0.00    -0.050 Br
ENDBRANCH   9  12
BRANCH   1  20
ATOM     19  N   UNL     1      -2.668   2.902   4.678  0.00  0.00    -0.281 N 
ATOM     20  C   UNL     1      -1.987   3.035   5.833  0.00  0.00    +0.248 C 
ATOM     21  O   UNL     1      -0.784   2.847   5.856  0.00  0.00    -0.270 OA
ATOM     22  H   UNL     1      -3.615   3.113   4.646  0.00  0.00    +0.155 HD
BRANCH  19  27
ATOM     23  C   UNL     1      -0.004   1.104   0.004  0.00  0.00    +0.044 C 
ATOM     24  C   UNL     1      -0.712   1.582   1.246  0.00  0.00    -0.050 A 
ATOM     25  C   UNL     1      -0.044   2.379   2.158  0.00  0.00    +0.005 A 
ATOM     26  C   UNL     1      -0.689   2.818   3.297  0.00  0.00    +0.024 A 
ATOM     27  C   UNL     1      -2.011   2.458   3.526  0.00  0.00    +0.037 A 
ATOM     28  C   UNL     1      -2.679   1.659   2.608  0.00  0.00    -0.029 A 
ATOM     29  C   UNL     1      -2.029   1.227   1.468  0.00  0.00    +0.008 A 
ATOM     30  C   UNL     1      -4.114   1.266   2.853  0.00  0.00    +0.045 C 
ENDBRANCH  19  27
ENDBRANCH   1  20
BRANCH   6  31
ATOM     31  C   UNL     1      -7.113   3.619  11.025  0.00  0.00    +0.379 C 
ATOM     32  O   UNL     1      -8.228   3.429  10.582  0.00  0.00    -0.241 OA
BRANCH  31  33
ATOM     33  O   UNL     1      -6.936   3.799  12.348  0.00  0.00    -0.456 OA
BRANCH  33  34
ATOM     34  C   UNL     1      -8.122   3.754  13.185  0.00  0.00    +0.171 C 
ATOM     35  C   UNL     1      -7.747   3.235  14.574  0.00  0.00    +0.052 C 
ATOM     36  C   UNL     1      -8.713   5.160  13.308  0.00  0.00    +0.052 C 
ENDBRANCH  33  34
ENDBRANCH  31  33
ENDBRANCH   6  31
TORSDOF 6
