REMARK  Name = ZINC07501294
REMARK  6 active torsions:
REMARK  status: ('A' for Active; 'I' for Inactive)
REMARK    1  A    between atoms: C_1  and  C_2
REMARK    2  A    between atoms: C_2  and  C_4
REMARK    3  A    between atoms: C_2  and  S_18
REMARK    4  A    between atoms: C_7  and  C_9
REMARK    5  A    between atoms: C_12  and  N_15
REMARK    6  A    between atoms: S_18  and  C_19
REMARK                            x       y       z     vdW  Elec       q    Type
REMARK                         _______ _______ _______ _____ _____    ______ ____
ROOT
ATOM      1  C   UNL     1      -0.079   1.519   0.047  0.00  0.00    +0.029 C 
ATOM      2  C   UNL     1      -0.025  -0.010   0.019  0.00  0.00    +0.136 C 
ENDROOT
BRANCH   2   3
ATOM      3  C   UNL     1      -1.419  -0.565   0.161  0.00  0.00    +0.231 A 
ATOM      4  N   UNL     1      -2.124  -0.604   1.258  0.00  0.00    -0.111 NA
ATOM      5  N   UNL     1      -3.267  -1.143   1.015  0.00  0.00    -0.107 NA
ATOM      6  C   UNL     1      -3.330  -1.468  -0.255  0.00  0.00    +0.248 A 
ATOM      7  O   UNL     1      -2.162  -1.103  -0.820  0.00  0.00    -0.419 OA
BRANCH   6   8
ATOM      8  C   UNL     1      -4.473  -2.111  -0.939  0.00  0.00    +0.039 A 
ATOM      9  C   UNL     1      -4.398  -2.407  -2.301  0.00  0.00    +0.015 A 
ATOM     10  C   UNL     1      -5.467  -3.006  -2.933  0.00  0.00    +0.033 A 
ATOM     11  C   UNL     1      -6.612  -3.314  -2.221  0.00  0.00    +0.126 A 
ATOM     12  C   UNL     1      -6.693  -3.024  -0.870  0.00  0.00    +0.033 A 
ATOM     13  C   UNL     1      -5.628  -2.430  -0.225  0.00  0.00    +0.015 A 
BRANCH  11  14
ATOM     14  N   UNL     1      -7.756  -3.957  -2.906  0.00  0.00    +0.056 N 
ATOM     15  O   UNL     1      -7.689  -4.212  -4.086  0.00  0.00    -0.126 OA
ATOM     16  O   UNL     1      -8.758  -4.227  -2.285  0.00  0.00    -0.126 OA
ENDBRANCH  11  14
ENDBRANCH   6   8
ENDBRANCH   2   3
BRANCH   2  17
ATOM     17  S   UNL     1       1.004  -0.603   1.390  0.00  0.00    -0.112 S 
BRANCH  17  18
ATOM     18  C   UNL     1       1.177  -2.329   1.079  0.00  0.00    +0.012 A 
ATOM     19  C   UNL     1       0.684  -2.873  -0.100  0.00  0.00    +0.018 A 
ATOM     20  C   UNL     1       0.817  -4.227  -0.348  0.00  0.00    +0.050 A 
ATOM     21  C   UNL     1       1.444  -5.039   0.582  0.00  0.00    +0.162 A 
ATOM     22  C   UNL     1       1.938  -4.498   1.760  0.00  0.00    +0.163 A 
ATOM     23  C   UNL     1       1.811  -3.142   2.010  0.00  0.00    +0.064 A 
ATOM     24  O   UNL     1       2.556  -5.309   2.668  0.00  0.00    -0.488 OA
ATOM     25  C   UNL     1       1.717  -6.256   3.332  0.00  0.00    +0.232 C 
ATOM     26  C   UNL     1       1.551  -7.512   2.491  0.00  0.00    +0.082 C 
ATOM     27  C   UNL     1       0.818  -7.243   1.187  0.00  0.00    +0.232 C 
ATOM     28  O   UNL     1       1.582  -6.377   0.345  0.00  0.00    -0.488 OA
ENDBRANCH  17  18
ENDBRANCH   2  17
TORSDOF 5
