REMARK  Name = ZINC39609119
REMARK  10 active torsions:
REMARK  status: ('A' for Active; 'I' for Inactive)
REMARK    1  A    between atoms: C_1  and  O_2
REMARK    2  A    between atoms: O_2  and  C_3
REMARK    3  A    between atoms: C_6  and  C_9
REMARK    4  A    between atoms: C_9  and  C_10
REMARK    5  A    between atoms: C_10  and  C_11
REMARK    6  A    between atoms: C_15  and  C_24
REMARK    7  A    between atoms: N_26  and  C_27
REMARK    8  A    between atoms: C_32  and  O_34
REMARK    9  A    between atoms: O_34  and  C_35
REMARK   10  A    between atoms: C_35  and  C_36
REMARK                            x       y       z     vdW  Elec       q    Type
REMARK                         _______ _______ _______ _____ _____    ______ ____
ROOT
ATOM      1  C   UNL     1       4.675  -3.171  -5.011  0.00  0.00    +0.216 C 
ATOM      2  O   UNL     1       3.959  -3.375  -5.969  0.00  0.00    -0.276 OA
ATOM      3  N   UNL     1       5.970  -3.542  -5.046  0.00  0.00    -0.300 N 
ATOM      4  C   UNL     1       6.989  -3.385  -3.982  0.00  0.00    +0.121 C 
ATOM      5  C   UNL     1       7.814  -4.691  -4.035  0.00  0.00    +0.100 C 
ATOM      6  C   UNL     1       7.620  -5.219  -5.466  0.00  0.00    -0.004 C 
ATOM      7  C   UNL     1       6.696  -4.206  -6.156  0.00  0.00    +0.115 C 
ATOM      8  C   UNL     1       6.957  -6.593  -5.436  0.00  0.00    -0.010 C 
ATOM      9  C   UNL     1       6.826  -7.123  -6.867  0.00  0.00    -0.082 C 
ATOM     10  N   UNL     1       8.157  -7.212  -7.480  0.00  0.00    +0.379 N 
ATOM     11  C   UNL     1       8.749  -5.874  -7.590  0.00  0.00    -0.082 C 
ATOM     12  C   UNL     1       8.961  -5.291  -6.189  0.00  0.00    -0.010 C 
ATOM     13  H   UNL     1       8.750  -7.796  -6.910  0.00  0.00    -0.086 HD
ATOM     14  H   UNL     1       8.075  -7.619  -8.400  0.00  0.00    -0.086 HD
ENDROOT
BRANCH   5  15
ATOM     15  C   UNL     1       7.289  -5.684  -3.030  0.00  0.00    +0.218 C 
ATOM     16  O   UNL     1       6.114  -5.680  -2.730  0.00  0.00    -0.275 OA
ATOM     17  N   UNL     1       8.126  -6.576  -2.465  0.00  0.00    -0.310 N 
ATOM     18  H   UNL     1       9.066  -6.579  -2.704  0.00  0.00    +0.149 HD
BRANCH  17  19
ATOM     19  C   UNL     1       7.615  -7.542  -1.488  0.00  0.00    +0.102 C 
ATOM     20  C   UNL     1       7.640  -6.927  -0.077  0.00  0.00    +0.025 C 
ATOM     21  C   UNL     1       8.569  -7.817   0.774  0.00  0.00    +0.004 C 
ATOM     22  C   UNL     1       8.552  -9.186   0.051  0.00  0.00    +0.033 C 
ATOM     23  C   UNL     1       8.530  -8.783  -1.445  0.00  0.00    +0.139 C 
BRANCH  23  24
ATOM     24  O   UNL     1       7.981  -9.837  -2.240  0.00  0.00    -0.370 OA
BRANCH  24  25
ATOM     25  C   UNL     1       8.962 -10.703  -2.814  0.00  0.00    +0.195 C 
BRANCH  25  26
ATOM     26  C   UNL     1       8.275 -11.770  -3.626  0.00  0.00    -0.022 A 
ATOM     27  C   UNL     1       7.902 -12.960  -3.030  0.00  0.00    +0.006 A 
ATOM     28  C   UNL     1       7.272 -13.939  -3.775  0.00  0.00    +0.000 A 
ATOM     29  C   UNL     1       7.015 -13.728  -5.117  0.00  0.00    +0.000 A 
ATOM     30  C   UNL     1       7.387 -12.538  -5.713  0.00  0.00    +0.000 A 
ATOM     31  C   UNL     1       8.014 -11.557  -4.967  0.00  0.00    +0.006 A 
ENDBRANCH  25  26
ENDBRANCH  24  25
ENDBRANCH  23  24
ENDBRANCH  17  19
ENDBRANCH   5  15
BRANCH   1  32
ATOM     32  C   UNL     1       4.115  -2.503  -3.782  0.00  0.00    +0.100 C 
BRANCH  32  33
ATOM     33  C   UNL     1       2.634  -2.188  -4.002  0.00  0.00    +0.044 C 
BRANCH  33  37
ATOM     34  C   UNL     1       1.047  -0.294  -0.515  0.00  0.00    +0.120 A 
ATOM     35  C   UNL     1       1.601   0.472  -1.531  0.00  0.00    +0.046 A 
ATOM     36  C   UNL     1       2.113  -0.143  -2.657  0.00  0.00    +0.007 A 
ATOM     37  C   UNL     1       2.075  -1.520  -2.772  0.00  0.00    -0.047 A 
ATOM     38  C   UNL     1       1.523  -2.285  -1.762  0.00  0.00    +0.007 A 
ATOM     39  C   UNL     1       1.015  -1.676  -0.631  0.00  0.00    +0.046 A 
BRANCH  34  41
ATOM     40  C   UNL     1       0.610   1.735   0.644  0.00  0.00    +0.277 C 
ATOM     41  O   UNL     1       0.543   0.309   0.594  0.00  0.00    -0.495 OA
ENDBRANCH  34  41
ENDBRANCH  33  37
ENDBRANCH  32  33
ENDBRANCH   1  32
TORSDOF 9
