REMARK  Name = ZINC31829146
REMARK  6 active torsions:
REMARK  status: ('A' for Active; 'I' for Inactive)
REMARK    1  A    between atoms: C_1  and  C_2
REMARK    2  A    between atoms: N_13  and  C_16
REMARK    3  A    between atoms: C_16  and  C_17
REMARK    4  A    between atoms: N_19  and  N_20
REMARK    5  A    between atoms: C_21  and  C_22
REMARK    6  A    between atoms: C_25  and  O_28
REMARK                            x       y       z     vdW  Elec       q    Type
REMARK                         _______ _______ _______ _____ _____    ______ ____
ROOT
ATOM      1  C   UNL     1      -5.558   0.530   2.728  0.00  0.00    +0.008 C 
ATOM      2  C   UNL     1      -4.178   1.134   2.464  0.00  0.00    -0.009 C 
ATOM      3  C   UNL     1      -3.298   0.110   1.740  0.00  0.00    +0.008 C 
ATOM      4  C   UNL     1      -1.853   0.607   1.693  0.00  0.00    +0.037 C 
ATOM      5  C   UNL     1      -1.836   2.018   1.112  0.00  0.00    -0.023 A 
ATOM      6  C   UNL     1      -2.960   2.764   1.081  0.00  0.00    -0.004 A 
ATOM      7  S   UNL     1      -2.471   4.301   0.345  0.00  0.00    -0.073 S 
ATOM      8  C   UNL     1      -0.757   3.932   0.072  0.00  0.00    +0.116 A 
ATOM      9  C   UNL     1      -0.622   2.625   0.568  0.00  0.00    +0.076 A 
ATOM     10  C   UNL     1       0.693   2.060   0.478  0.00  0.00    +0.263 A 
ATOM     11  O   UNL     1       0.911   0.932   0.883  0.00  0.00    -0.267 OA
ATOM     12  N   UNL     1       1.680   2.795  -0.068  0.00  0.00    -0.290 N 
ATOM     13  C   UNL     1       1.454   4.053  -0.525  0.00  0.00    +0.203 A 
ATOM     14  N   UNL     1       0.268   4.596  -0.454  0.00  0.00    -0.230 NA
ATOM     15  C   UNL     1      -4.321   2.377   1.573  0.00  0.00    +0.046 C 
ENDROOT
BRANCH  12  16
ATOM     16  C   UNL     1       3.026   2.225  -0.169  0.00  0.00    +0.223 C 
BRANCH  16  17
ATOM     17  C   UNL     1       3.170   1.506  -1.485  0.00  0.00    +0.252 C 
ATOM     18  O   UNL     1       2.239   1.472  -2.263  0.00  0.00    -0.272 OA
ATOM     19  N   UNL     1       4.332   0.900  -1.798  0.00  0.00    -0.206 N 
ATOM     20  H   UNL     1       5.176   0.930  -1.093  0.00  0.00    +0.177 HD
BRANCH  19  21
ATOM     21  N   UNL     1       4.466   0.232  -3.022  0.00  0.00    -0.188 NA
ATOM     22  C   UNL     1       5.540  -0.451  -3.275  0.00  0.00    +0.138 C 
BRANCH  22  23
ATOM     23  C   UNL     1       6.388  -0.927  -2.167  0.00  0.00    -0.005 A 
ATOM     24  C   UNL     1       7.672  -1.415  -2.427  0.00  0.00    +0.013 A 
ATOM     25  C   UNL     1       8.463  -1.854  -1.388  0.00  0.00    +0.046 A 
ATOM     26  C   UNL     1       7.983  -1.823  -0.085  0.00  0.00    +0.117 A 
ATOM     27  C   UNL     1       6.706  -1.344   0.177  0.00  0.00    +0.046 A 
ATOM     28  C   UNL     1       5.909  -0.897  -0.855  0.00  0.00    +0.013 A 
BRANCH  26  29
ATOM     29  O   UNL     1       8.764  -2.262   0.936  0.00  0.00    -0.507 OA
ATOM     30  H   UNL     1       8.385  -2.238   1.968  0.00  0.00    +0.292 HD
ENDBRANCH  26  29
ENDBRANCH  22  23
ENDBRANCH  19  21
ENDBRANCH  16  17
ENDBRANCH  12  16
TORSDOF 5
