REMARK  Name = ZINC58913303
REMARK  8 active torsions:
REMARK  status: ('A' for Active; 'I' for Inactive)
REMARK    1  A    between atoms: C_1  and  C_2
REMARK    2  A    between atoms: C_4  and  C_16
REMARK    3  A    between atoms: C_5  and  C_15
REMARK    4  A    between atoms: N_6  and  C_7
REMARK    5  A    between atoms: N_17  and  N_18
REMARK    6  A    between atoms: C_19  and  C_21
REMARK    7  A    between atoms: N_23  and  C_24
REMARK    8  A    between atoms: C_28  and  C_30
REMARK                            x       y       z     vdW  Elec       q    Type
REMARK                         _______ _______ _______ _____ _____    ______ ____
ROOT
ATOM      1  N   UNL     1       0.077  -5.711  -1.694  0.00  0.00    -0.199 N 
ATOM      2  C   UNL     1       0.098  -6.927  -1.113  0.00  0.00    +0.318 C 
ATOM      3  O   UNL     1       0.114  -7.022   0.098  0.00  0.00    -0.263 OA
ATOM      4  H   UNL     1       0.065  -5.635  -2.661  0.00  0.00    +0.178 HD
ENDROOT
BRANCH   2   5
ATOM      5  C   UNL     1       0.103  -8.156  -1.957  0.00  0.00    +0.305 C 
ATOM      6  O   UNL     1       0.087  -8.061  -3.167  0.00  0.00    -0.265 OA
ATOM      7  N   UNL     1       0.124  -9.372  -1.377  0.00  0.00    -0.278 N 
ATOM      8  H   UNL     1       0.204  -9.448  -0.413  0.00  0.00    +0.155 HD
BRANCH   7   9
ATOM      9  C   UNL     1       0.030 -10.523  -2.163  0.00  0.00    +0.034 A 
ATOM     10  C   UNL     1      -0.654 -11.636  -1.690  0.00  0.00    +0.023 A 
ATOM     11  C   UNL     1      -0.745 -12.772  -2.470  0.00  0.00    +0.002 A 
ATOM     12  C   UNL     1      -0.155 -12.803  -3.720  0.00  0.00    +0.012 A 
ATOM     13  C   UNL     1       0.528 -11.698  -4.194  0.00  0.00    +0.057 A 
ATOM     14  C   UNL     1       0.617 -10.556  -3.422  0.00  0.00    +0.035 A 
BRANCH  13  15
ATOM     15  C   UNL     1       1.169 -11.736  -5.557  0.00  0.00    +0.417 C 
ATOM     16  F   UNL     1       0.940 -12.985  -6.145  0.00  0.00    -0.166 F 
ATOM     17  F   UNL     1       0.617 -10.734  -6.361  0.00  0.00    -0.166 F 
ATOM     18  F   UNL     1       2.547 -11.526  -5.430  0.00  0.00    -0.166 F 
ENDBRANCH  13  15
ENDBRANCH   7   9
ENDBRANCH   2   5
BRANCH   1  20
ATOM     19  C   UNL     1       0.053  -3.383  -1.461  0.00  0.00    +0.140 C 
ATOM     20  N   UNL     1       0.073  -4.556  -0.901  0.00  0.00    -0.187 NA
BRANCH  19  24
ATOM     21  C   UNL     1       0.013   1.503   0.011  0.00  0.00    +0.064 C 
ATOM     22  C   UNL     1       0.030  -0.004   0.003  0.00  0.00    +0.022 A 
ATOM     23  C   UNL     1       0.027  -0.780  -1.096  0.00  0.00    +0.032 A 
ATOM     24  C   UNL     1       0.049  -2.169  -0.627  0.00  0.00    +0.016 A 
ATOM     25  C   UNL     1       0.064  -2.112   0.738  0.00  0.00    +0.030 A 
ATOM     26  N   UNL     1       0.058  -0.804   1.110  0.00  0.00    -0.316 N 
ATOM     27  C   UNL     1       0.089  -3.295   1.672  0.00  0.00    +0.064 C 
BRANCH  26  28
ATOM     28  C   UNL     1       0.075  -0.344   2.434  0.00  0.00    +0.066 A 
ATOM     29  C   UNL     1      -1.118  -0.137   3.113  0.00  0.00    +0.047 A 
ATOM     30  C   UNL     1      -1.099   0.317   4.418  0.00  0.00    +0.043 A 
ATOM     31  C   UNL     1       0.109   0.563   5.049  0.00  0.00    +0.021 A 
ATOM     32  C   UNL     1       1.298   0.358   4.375  0.00  0.00    +0.023 A 
ATOM     33  C   UNL     1       1.285  -0.101   3.071  0.00  0.00    +0.065 A 
ATOM     34 CL   UNL     1       2.780  -0.366   2.228  0.00  0.00    -0.081 Cl
ATOM     35 CL   UNL     1      -2.590   0.577   5.269  0.00  0.00    -0.083 Cl
ENDBRANCH  26  28
ENDBRANCH  19  24
ENDBRANCH   1  20
TORSDOF 6
