REMARK  Name = ZINC38683119
REMARK  15 active torsions:
REMARK  status: ('A' for Active; 'I' for Inactive)
REMARK    1  A    between atoms: C_1  and  C_2
REMARK    2  A    between atoms: C_2  and  C_3
REMARK    3  A    between atoms: C_3  and  C_4
REMARK    4  A    between atoms: C_4  and  O_5
REMARK    5  A    between atoms: O_5  and  C_6
REMARK    6  A    between atoms: C_11  and  C_12
REMARK    7  A    between atoms: C_17  and  O_26
REMARK    8  A    between atoms: C_21  and  N_25
REMARK    9  A    between atoms: C_22  and  C_23
REMARK   10  A    between atoms: O_26  and  C_27
REMARK   11  A    between atoms: C_27  and  C_29
REMARK   12  A    between atoms: C_34  and  O_35
REMARK   13  A    between atoms: O_35  and  C_36
REMARK   14  A    between atoms: C_36  and  C_37
REMARK   15  A    between atoms: C_37  and  C_38
REMARK                            x       y       z     vdW  Elec       q    Type
REMARK                         _______ _______ _______ _____ _____    ______ ____
ROOT
ATOM      1  C   UNL     1      -5.341  -3.551   0.070  0.00  0.00    +0.101 C 
ATOM      2  C   UNL     1      -6.165  -3.825   1.301  0.00  0.00    +0.008 A 
ATOM      3  C   UNL     1      -5.697  -3.417   2.538  0.00  0.00    +0.012 A 
ATOM      4  C   UNL     1      -6.439  -3.659   3.677  0.00  0.00    +0.047 A 
ATOM      5  C   UNL     1      -7.659  -4.313   3.584  0.00  0.00    +0.135 A 
ATOM      6  C   UNL     1      -8.130  -4.723   2.347  0.00  0.00    +0.093 A 
ATOM      7  C   UNL     1      -7.383  -4.479   1.202  0.00  0.00    +0.138 A 
ATOM      8  O   UNL     1      -7.858  -4.887  -0.000  0.00  0.00    -0.441 OA
ATOM      9  C   UNL     1      -7.376  -4.343  -1.130  0.00  0.00    +0.199 C 
ATOM     10  C   UNL     1      -6.189  -3.698  -1.162  0.00  0.00    +0.098 C 
ENDROOT
BRANCH   1  16
ATOM     11  C   UNL     1      -2.888  -4.069   0.018  0.00  0.00    +0.125 A 
ATOM     12  C   UNL     1      -1.837  -4.972  -0.034  0.00  0.00    +0.046 A 
ATOM     13  C   UNL     1      -2.095  -6.327  -0.100  0.00  0.00    +0.004 A 
ATOM     14  C   UNL     1      -3.400  -6.784  -0.115  0.00  0.00    +0.001 A 
ATOM     15  C   UNL     1      -4.449  -5.886  -0.064  0.00  0.00    +0.008 A 
ATOM     16  C   UNL     1      -4.197  -4.529   0.009  0.00  0.00    +0.007 A 
BRANCH  11  17
ATOM     17  O   UNL     1      -2.637  -2.735   0.084  0.00  0.00    -0.492 OA
BRANCH  17  18
ATOM     18  C   UNL     1      -1.266  -2.332   0.091  0.00  0.00    +0.229 C 
BRANCH  18  19
ATOM     19  C   UNL     1      -1.182  -0.807   0.168  0.00  0.00    +0.041 C 
BRANCH  19  21
ATOM     20  C   UNL     1       0.369   1.150   0.253  0.00  0.00    +0.004 C 
ATOM     21  C   UNL     1       0.286  -0.376   0.175  0.00  0.00    -0.000 C 
ENDBRANCH  19  21
ENDBRANCH  18  19
ENDBRANCH  17  18
ENDBRANCH  11  17
ENDBRANCH   1  16
BRANCH   9  22
ATOM     22  N   UNL     1      -8.110  -4.448  -2.286  0.00  0.00    -0.328 N 
ATOM     23  H   UNL     1      -8.963  -4.909  -2.278  0.00  0.00    +0.145 HD
ATOM     24  H   UNL     1      -7.775  -4.061  -3.110  0.00  0.00    +0.145 HD
ENDBRANCH   9  22
BRANCH  10  25
ATOM     25  C   UNL     1      -5.731  -3.142  -2.399  0.00  0.00    +0.101 C 
ATOM     26  N   UNL     1      -5.367  -2.701  -3.381  0.00  0.00    -0.191 NA
ENDBRANCH  10  25
BRANCH   5  27
ATOM     27  O   UNL     1      -8.390  -4.552   4.704  0.00  0.00    -0.422 OA
BRANCH  27  28
ATOM     28  C   UNL     1      -8.950  -3.499   5.331  0.00  0.00    +0.348 C 
ATOM     29  O   UNL     1      -8.882  -2.391   4.837  0.00  0.00    -0.244 OA
BRANCH  28  30
ATOM     30  C   UNL     1      -9.644  -3.690   6.617  0.00  0.00    +0.101 A 
ATOM     31  C   UNL     1      -9.720  -4.962   7.193  0.00  0.00    +0.018 A 
ATOM     32  C   UNL     1     -10.371  -5.134   8.395  0.00  0.00    +0.001 A 
ATOM     33  C   UNL     1     -10.951  -4.052   9.037  0.00  0.00    +0.004 A 
ATOM     34  C   UNL     1     -10.884  -2.790   8.480  0.00  0.00    +0.046 A 
ATOM     35  C   UNL     1     -10.227  -2.597   7.273  0.00  0.00    +0.134 A 
BRANCH  35  36
ATOM     36  O   UNL     1     -10.156  -1.357   6.728  0.00  0.00    -0.491 OA
BRANCH  36  37
ATOM     37  C   UNL     1     -10.773  -0.292   7.453  0.00  0.00    +0.229 C 
BRANCH  37  38
ATOM     38  C   UNL     1     -10.590   1.020   6.688  0.00  0.00    +0.038 C 
ATOM     39  C   UNL     1     -11.252   2.160   7.464  0.00  0.00    +0.007 C 
ENDBRANCH  37  38
ENDBRANCH  36  37
ENDBRANCH  35  36
ENDBRANCH  28  30
ENDBRANCH  27  28
ENDBRANCH   5  27
TORSDOF 13
