REMARK  Name = ZINC20617016
REMARK  8 active torsions:
REMARK  status: ('A' for Active; 'I' for Inactive)
REMARK    1  A    between atoms: C_1  and  C_2
REMARK    2  A    between atoms: C_7  and  N_8
REMARK    3  A    between atoms: C_9  and  C_11
REMARK    4  A    between atoms: N_14  and  C_16
REMARK    5  A    between atoms: C_16  and  C_18
REMARK    6  A    between atoms: C_16  and  C_19
REMARK    7  A    between atoms: N_21  and  C_22
REMARK    8  A    between atoms: C_27  and  C_28
REMARK                            x       y       z     vdW  Elec       q    Type
REMARK                         _______ _______ _______ _____ _____    ______ ____
ROOT
ATOM      1  C   UNL     1       4.412  -3.264  -1.218  0.00  0.00    +0.147 A 
ATOM      2  C   UNL     1       4.580  -3.271   0.187  0.00  0.00    +0.054 A 
ATOM      3  C   UNL     1       3.400  -2.848   0.695  0.00  0.00    +0.110 A 
ATOM      4  N   UNL     1       2.579  -2.604  -0.349  0.00  0.00    -0.259 N 
ATOM      5  N   UNL     1       3.181  -2.856  -1.456  0.00  0.00    -0.166 NA
ENDROOT
BRANCH   1   7
ATOM      6  N   UNL     1       5.117  -3.589  -3.539  0.00  0.00    -0.280 N 
ATOM      7  C   UNL     1       5.420  -3.646  -2.227  0.00  0.00    +0.268 C 
ATOM      8  O   UNL     1       6.525  -4.013  -1.874  0.00  0.00    -0.268 OA
ATOM      9  H   UNL     1       4.145  -3.188  -3.862  0.00  0.00    +0.155 HD
BRANCH   6  16
ATOM     10  C   UNL     1       4.117  -4.859  -5.880  0.00  0.00    +0.045 C 
ATOM     11  C   UNL     1       5.593  -4.665  -5.647  0.00  0.00    -0.029 A 
ATOM     12  C   UNL     1       6.505  -5.106  -6.587  0.00  0.00    +0.006 A 
ATOM     13  C   UNL     1       7.860  -4.934  -6.372  0.00  0.00    +0.020 A 
ATOM     14  C   UNL     1       8.307  -4.316  -5.217  0.00  0.00    +0.043 A 
ATOM     15  C   UNL     1       7.400  -3.869  -4.276  0.00  0.00    +0.043 A 
ATOM     16  C   UNL     1       6.038  -4.040  -4.490  0.00  0.00    +0.038 A 
ATOM     17 CL   UNL     1      10.009  -4.102  -4.951  0.00  0.00    -0.083 Cl
ENDBRANCH   6  16
ENDBRANCH   1   7
BRANCH   4  18
ATOM     18  C   UNL     1       1.199  -2.126  -0.236  0.00  0.00    +0.190 C 
ATOM     19  C   UNL     1       0.549  -2.734   1.009  0.00  0.00    +0.042 C 
BRANCH  18  20
ATOM     20  C   UNL     1       1.195  -0.624  -0.122  0.00  0.00    +0.242 C 
ATOM     21  O   UNL     1       2.242  -0.012  -0.134  0.00  0.00    -0.273 OA
ATOM     22  N   UNL     1       0.028   0.041  -0.007  0.00  0.00    -0.283 N 
ATOM     23  H   UNL     1      -0.917  -0.517   0.079  0.00  0.00    +0.155 HD
BRANCH  22  24
ATOM     24  C   UNL     1       0.017   1.440   0.005  0.00  0.00    +0.038 A 
ATOM     25  C   UNL     1       1.060   2.139   0.599  0.00  0.00    +0.043 A 
ATOM     26  C   UNL     1       1.046   3.521   0.608  0.00  0.00    +0.043 A 
ATOM     27  C   UNL     1      -0.005   4.207   0.026  0.00  0.00    +0.020 A 
ATOM     28  C   UNL     1      -1.044   3.513  -0.566  0.00  0.00    +0.006 A 
ATOM     29  C   UNL     1      -1.033   2.132  -0.583  0.00  0.00    -0.029 A 
ATOM     30  C   UNL     1      -2.163   1.377  -1.234  0.00  0.00    +0.045 C 
ATOM     31 CL   UNL     1       2.349   4.396   1.350  0.00  0.00    -0.083 Cl
ENDBRANCH  22  24
ENDBRANCH  18  20
ENDBRANCH   4  18
TORSDOF 5
