REMARK  Name = ZINC58146755
REMARK  13 active torsions:
REMARK  status: ('A' for Active; 'I' for Inactive)
REMARK    1  A    between atoms: C_1  and  C_2
REMARK    2  A    between atoms: C_5  and  N_9
REMARK    3  A    between atoms: C_6  and  C_8
REMARK    4  A    between atoms: N_9  and  S_10
REMARK    5  A    between atoms: S_10  and  C_13
REMARK    6  A    between atoms: C_16  and  N_22
REMARK    7  A    between atoms: C_17  and  N_19
REMARK    8  A    between atoms: N_22  and  C_23
REMARK    9  A    between atoms: C_23  and  C_24
REMARK   10  A    between atoms: C_24  and  C_26
REMARK   11  A    between atoms: C_24  and  C_27
REMARK   12  A    between atoms: C_27  and  N_28
REMARK   13  A    between atoms: C_32  and  C_33
REMARK                            x       y       z     vdW  Elec       q    Type
REMARK                         _______ _______ _______ _____ _____    ______ ____
ROOT
ATOM      1  C   UNL     1       2.544  -4.725  -0.891  0.00  0.00    +0.111 A 
ATOM      2  C   UNL     1       3.037  -3.565  -1.461  0.00  0.00    +0.031 A 
ATOM      3  C   UNL     1       4.391  -3.299  -1.429  0.00  0.00    +0.027 A 
ATOM      4  C   UNL     1       5.260  -4.198  -0.824  0.00  0.00    +0.058 A 
ATOM      5  C   UNL     1       4.763  -5.362  -0.252  0.00  0.00    +0.149 A 
ATOM      6  C   UNL     1       3.406  -5.619  -0.282  0.00  0.00    +0.063 A 
ENDROOT
BRANCH   1   7
ATOM      7  S   UNL     1       0.815  -5.060  -0.933  0.00  0.00    +0.072 S 
ATOM      8  O   UNL     1       0.671  -6.468  -0.806  0.00  0.00    -0.150 OA
ATOM      9  O   UNL     1       0.288  -4.337  -2.037  0.00  0.00    -0.150 OA
BRANCH   7  10
ATOM     10  N   UNL     1       0.153  -4.392   0.430  0.00  0.00    -0.216 N 
ATOM     11  H   UNL     1      -0.309  -4.955   1.071  0.00  0.00    +0.174 HD
BRANCH  10  16
ATOM     12  C   UNL     1       0.588   1.186   1.353  0.00  0.00    +0.044 C 
ATOM     13  C   UNL     1       0.472  -0.296   1.108  0.00  0.00    -0.050 A 
ATOM     14  C   UNL     1       0.311  -0.772  -0.181  0.00  0.00    +0.005 A 
ATOM     15  C   UNL     1       0.205  -2.130  -0.409  0.00  0.00    +0.025 A 
ATOM     16  C   UNL     1       0.261  -3.018   0.658  0.00  0.00    +0.051 A 
ATOM     17  C   UNL     1       0.423  -2.537   1.950  0.00  0.00    -0.028 A 
ATOM     18  C   UNL     1       0.534  -1.178   2.171  0.00  0.00    +0.008 A 
ATOM     19  C   UNL     1       0.484  -3.498   3.111  0.00  0.00    +0.046 C 
ENDBRANCH  10  16
ENDBRANCH   7  10
ENDBRANCH   1   7
BRANCH   5  20
ATOM     20  N   UNL     1       5.684  -6.322   0.395  0.00  0.00    +0.058 N 
ATOM     21  O   UNL     1       6.778  -6.523  -0.080  0.00  0.00    -0.126 OA
ATOM     22  O   UNL     1       5.344  -6.907   1.397  0.00  0.00    -0.126 OA
ENDBRANCH   5  20
BRANCH   4  23
ATOM     23  N   UNL     1       6.631  -3.932  -0.790  0.00  0.00    -0.342 N 
ATOM     24  H   UNL     1       7.244  -4.591  -0.428  0.00  0.00    +0.146 HD
BRANCH  23  25
ATOM     25  C   UNL     1       7.143  -2.658  -1.301  0.00  0.00    +0.106 C 
BRANCH  25  26
ATOM     26  C   UNL     1       8.665  -2.622  -1.149  0.00  0.00    +0.023 C 
ATOM     27  C   UNL     1       9.292  -3.696  -2.039  0.00  0.00    +0.011 C 
BRANCH  26  28
ATOM     28  C   UNL     1       9.186  -1.245  -1.566  0.00  0.00    +0.127 C 
BRANCH  28  29
ATOM     29  N   UNL     1      10.628  -1.173  -1.316  0.00  0.00    -0.336 N 
ATOM     30  C   UNL     1      11.621  -1.281  -2.252  0.00  0.00    +0.104 A 
ATOM     31  C   UNL     1      12.790  -1.157  -1.596  0.00  0.00    +0.101 A 
ATOM     32  N   UNL     1      12.519  -0.979  -0.294  0.00  0.00    -0.350 N 
ATOM     33  C   UNL     1      11.226  -0.982  -0.120  0.00  0.00    +0.084 A 
ATOM     34  C   UNL     1      10.516  -0.806   1.198  0.00  0.00    +0.084 C 
ATOM     35  H   UNL     1      13.180  -0.862   0.406  0.00  0.00    +0.166 HD
ENDBRANCH  28  29
ENDBRANCH  26  28
ENDBRANCH  25  26
ENDBRANCH  23  25
ENDBRANCH   4  23
TORSDOF 9
