REMARK  Name = ZINC33638010
REMARK  11 active torsions:
REMARK  status: ('A' for Active; 'I' for Inactive)
REMARK    1  A    between atoms: C_1  and  C_2
REMARK    2  A    between atoms: C_2  and  C_3
REMARK    3  A    between atoms: C_3  and  O_4
REMARK    4  A    between atoms: O_4  and  C_5
REMARK    5  A    between atoms: C_8  and  C_11
REMARK    6  A    between atoms: N_19  and  C_22
REMARK    7  A    between atoms: C_25  and  C_28
REMARK    8  A    between atoms: C_28  and  C_30
REMARK    9  A    between atoms: C_31  and  C_33
REMARK   10  A    between atoms: C_31  and  C_40
REMARK   11  A    between atoms: C_33  and  C_34
REMARK                            x       y       z     vdW  Elec       q    Type
REMARK                         _______ _______ _______ _____ _____    ______ ____
ROOT
ATOM      1  C   UNL     1      -8.136   4.843   0.485  0.00  0.00    -0.027 C 
ATOM      2  C   UNL     1      -7.155   4.773  -0.672  0.00  0.00    +0.077 C 
ATOM      3  C   UNL     1      -6.175   5.921  -0.229  0.00  0.00    +0.086 C 
ATOM      4  C   UNL     1      -5.002   5.648  -1.013  0.00  0.00    +0.229 C 
ATOM      5  O   UNL     1      -4.210   6.452  -1.456  0.00  0.00    -0.275 OA
ATOM      6  N   UNL     1      -4.971   4.283  -1.156  0.00  0.00    -0.210 N 
ATOM      7  C   UNL     1      -6.135   3.684  -0.765  0.00  0.00    +0.229 C 
ATOM      8  O   UNL     1      -6.306   2.505  -0.539  0.00  0.00    -0.275 OA
ATOM      9  C   UNL     1      -7.094   7.004   0.146  0.00  0.00    +0.048 C 
ATOM     10  N   UNL     1      -8.165   6.276   0.908  0.00  0.00    +0.395 N 
ATOM     11  H   UNL     1      -9.152   6.704   0.682  0.00  0.00    -0.083 HD
ATOM     12  H   UNL     1      -7.976   6.343   1.990  0.00  0.00    -0.083 HD
ENDROOT
BRANCH   1  16
ATOM     13  C   UNL     1      -6.793   2.378   3.708  0.00  0.00    +0.121 A 
ATOM     14  C   UNL     1      -6.300   3.667   3.567  0.00  0.00    +0.046 A 
ATOM     15  C   UNL     1      -6.735   4.462   2.524  0.00  0.00    +0.005 A 
ATOM     16  C   UNL     1      -7.662   3.974   1.622  0.00  0.00    -0.060 A 
ATOM     17  C   UNL     1      -8.159   2.692   1.763  0.00  0.00    +0.005 A 
ATOM     18  C   UNL     1      -7.722   1.891   2.800  0.00  0.00    +0.046 A 
BRANCH  13  19
ATOM     19  O   UNL     1      -6.366   1.595   4.733  0.00  0.00    -0.492 OA
BRANCH  19  20
ATOM     20  C   UNL     1      -6.916   0.278   4.816  0.00  0.00    +0.229 C 
BRANCH  20  22
ATOM     21  C   UNL     1      -6.911  -1.857   6.112  0.00  0.00    +0.007 C 
ATOM     22  C   UNL     1      -6.322  -0.448   6.024  0.00  0.00    +0.038 C 
ENDBRANCH  20  22
ENDBRANCH  19  20
ENDBRANCH  13  19
ENDBRANCH   1  16
BRANCH   6  23
ATOM     23  C   UNL     1      -3.865   3.581  -1.643  0.00  0.00    +0.044 A 
ATOM     24  C   UNL     1      -3.916   2.195  -1.751  0.00  0.00    +0.024 A 
ATOM     25  C   UNL     1      -2.829   1.500  -2.230  0.00  0.00    +0.013 A 
ATOM     26  C   UNL     1      -1.671   2.189  -2.609  0.00  0.00    +0.017 A 
ATOM     27  C   UNL     1      -1.623   3.584  -2.493  0.00  0.00    +0.013 A 
ATOM     28  C   UNL     1      -2.716   4.271  -2.019  0.00  0.00    +0.024 A 
BRANCH  26  29
ATOM     29  C   UNL     1      -0.509   1.452  -3.121  0.00  0.00    +0.160 C 
ATOM     30  O   UNL     1      -0.551   0.243  -3.216  0.00  0.00    -0.292 OA
ATOM     31  C   UNL     1       0.734   2.197  -3.534  0.00  0.00    +0.091 C 
ENDBRANCH  26  29
ENDBRANCH   6  23
BRANCH   9  32
ATOM     32  C   UNL     1      -7.667   7.667  -1.080  0.00  0.00    +0.346 C 
ATOM     33  O   UNL     1      -7.002   7.756  -2.085  0.00  0.00    -0.248 OA
ATOM     34  O   UNL     1      -8.916   8.158  -1.056  0.00  0.00    -0.248 OA
ENDBRANCH   9  32
BRANCH   9  35
ATOM     35  C   UNL     1      -6.394   8.030   1.039  0.00  0.00    +0.003 C 
BRANCH  35  36
ATOM     36  C   UNL     1      -7.377   9.146   1.399  0.00  0.00    -0.012 C 
ATOM     37  C   UNL     1      -6.642  10.243   2.173  0.00  0.00    +0.003 C 
ATOM     38  C   UNL     1      -7.624  11.359   2.534  0.00  0.00    +0.000 C 
ATOM     39  C   UNL     1      -8.748  10.788   3.401  0.00  0.00    +0.000 C 
ATOM     40  C   UNL     1      -9.483   9.692   2.626  0.00  0.00    +0.000 C 
ATOM     41  C   UNL     1      -8.501   8.576   2.266  0.00  0.00    +0.003 C 
ENDBRANCH  35  36
ENDBRANCH   9  35
TORSDOF 9
