REMARK  Name = ZINC65460817
REMARK  5 active torsions:
REMARK  status: ('A' for Active; 'I' for Inactive)
REMARK    1  A    between atoms: C_1  and  C_2
REMARK    2  A    between atoms: C_2  and  C_3
REMARK    3  A    between atoms: C_2  and  C_4
REMARK    4  A    between atoms: C_14  and  C_16
REMARK    5  A    between atoms: N_24  and  C_25
REMARK                            x       y       z     vdW  Elec       q    Type
REMARK                         _______ _______ _______ _____ _____    ______ ____
ROOT
ATOM      1  C   UNL     1       0.731  -0.503   1.223  0.00  0.00    +0.044 A 
ATOM      2  C   UNL     1       0.223  -1.294   2.179  0.00  0.00    +0.025 A 
ATOM      3  C   UNL     1       1.238  -1.530   3.135  0.00  0.00    +0.151 A 
ATOM      4  N   UNL     1       2.305  -0.891   2.759  0.00  0.00    -0.158 NA
ATOM      5  N   UNL     1       2.018  -0.239   1.549  0.00  0.00    -0.279 N 
ATOM      6  H   UNL     1       2.634   0.307   1.036  0.00  0.00    +0.189 HD
ATOM      7  N   UNL     1       1.008  -2.347   4.253  0.00  0.00    -0.269 N 
ATOM      8  C   UNL     1      -0.141  -3.054   4.292  0.00  0.00    +0.219 C 
ATOM      9  O   UNL     1      -0.454  -3.599   5.330  0.00  0.00    -0.275 OA
ATOM     10  C   UNL     1      -1.045  -3.193   3.103  0.00  0.00    +0.110 C 
ATOM     11  C   UNL     1      -1.158  -1.881   2.320  0.00  0.00    +0.080 C 
ATOM     12  H   UNL     1       1.655  -2.402   4.974  0.00  0.00    +0.156 HD
ENDROOT
BRANCH  11  13
ATOM     13  C   UNL     1      -1.737  -2.152   0.956  0.00  0.00    +0.028 A 
ATOM     14  C   UNL     1      -1.034  -2.561  -0.112  0.00  0.00    +0.032 A 
ATOM     15  C   UNL     1      -1.982  -2.701  -1.221  0.00  0.00    +0.000 A 
ATOM     16  C   UNL     1      -1.861  -3.084  -2.558  0.00  0.00    +0.010 A 
ATOM     17  C   UNL     1      -2.969  -3.113  -3.358  0.00  0.00    +0.001 A 
ATOM     18  C   UNL     1      -4.213  -2.764  -2.852  0.00  0.00    +0.002 A 
ATOM     19  C   UNL     1      -4.355  -2.382  -1.536  0.00  0.00    +0.026 A 
ATOM     20  C   UNL     1      -3.241  -2.346  -0.703  0.00  0.00    +0.049 A 
ATOM     21  N   UNL     1      -3.058  -2.023   0.623  0.00  0.00    -0.346 N 
ATOM     22  C   UNL     1      -4.120  -1.601   1.540  0.00  0.00    +0.149 C 
ENDBRANCH  11  13
BRANCH   1  24
ATOM     23  C   UNL     1      -0.019   1.526   0.010  0.00  0.00    +0.014 C 
ATOM     24  C   UNL     1       0.002  -0.004   0.002  0.00  0.00    +0.031 C 
ATOM     25  C   UNL     1       0.718  -0.497  -1.257  0.00  0.00    +0.014 C 
ENDBRANCH   1  24
TORSDOF 2
