REMARK  Name = ZINC05352216
REMARK  8 active torsions:
REMARK  status: ('A' for Active; 'I' for Inactive)
REMARK    1  A    between atoms: C_1  and  C_2
REMARK    2  A    between atoms: C_13  and  C_15
REMARK    3  A    between atoms: C_15  and  C_16
REMARK    4  A    between atoms: C_15  and  C_17
REMARK    5  A    between atoms: N_20  and  C_23
REMARK    6  A    between atoms: C_23  and  C_24
REMARK    7  A    between atoms: C_23  and  C_25
REMARK    8  A    between atoms: C_23  and  C_26
REMARK                            x       y       z     vdW  Elec       q    Type
REMARK                         _______ _______ _______ _____ _____    ______ ____
ROOT
ATOM      1  C   UNL     1      -2.477   3.235  -1.093  0.00  0.00    +0.044 C 
ATOM      2  C   UNL     1      -1.115   2.643  -0.838  0.00  0.00    -0.050 A 
ATOM      3  C   UNL     1      -0.954   1.270  -0.784  0.00  0.00    +0.005 A 
ATOM      4  C   UNL     1       0.289   0.723  -0.546  0.00  0.00    +0.024 A 
ATOM      5  C   UNL     1       1.396   1.550  -0.368  0.00  0.00    +0.036 A 
ATOM      6  C   UNL     1       1.224   2.929  -0.429  0.00  0.00    -0.027 A 
ATOM      7  C   UNL     1      -0.020   3.471  -0.662  0.00  0.00    +0.008 A 
ATOM      8  C   UNL     1       2.584   3.523  -0.200  0.00  0.00    +0.050 C 
ATOM      9  C   UNL     1       2.596   4.443   1.028  0.00  0.00    +0.088 C 
ATOM     10  C   UNL     1       3.580   5.585   0.651  0.00  0.00    +0.073 C 
ATOM     11  C   UNL     1       4.073   5.232  -0.768  0.00  0.00    -0.055 C 
ATOM     12  C   UNL     1       2.689   6.804   0.582  0.00  0.00    +0.224 C 
ATOM     13  O   UNL     1       3.057   7.926   0.306  0.00  0.00    -0.275 OA
ATOM     14  N   UNL     1       1.431   6.453   0.873  0.00  0.00    -0.236 N 
ATOM     15  C   UNL     1       1.266   5.153   1.142  0.00  0.00    +0.225 C 
ATOM     16  O   UNL     1       0.214   4.626   1.433  0.00  0.00    -0.275 OA
ATOM     17  C   UNL     1       3.500   2.345  -0.013  0.00  0.00    +0.211 C 
ATOM     18  O   UNL     1       4.694   2.381   0.199  0.00  0.00    -0.277 OA
ATOM     19  N   UNL     1       2.736   1.241  -0.126  0.00  0.00    -0.286 N 
ATOM     20  H   UNL     1       3.078   0.336  -0.047  0.00  0.00    +0.155 HD
ATOM     21  N   UNL     1       3.022   4.362  -1.302  0.00  0.00    +0.394 N 
ATOM     22  H   UNL     1       2.239   4.925  -1.652  0.00  0.00    -0.083 HD
ATOM     23  H   UNL     1       3.395   3.782  -2.063  0.00  0.00    -0.083 HD
ENDROOT
BRANCH  14  24
ATOM     24  C   UNL     1       0.325   7.413   0.893  0.00  0.00    +0.036 C 
ATOM     25  C   UNL     1       0.852   8.806   0.541  0.00  0.00    +0.031 C 
ATOM     26  C   UNL     1      -0.733   6.994  -0.130  0.00  0.00    +0.031 C 
ATOM     27  C   UNL     1      -0.299   7.442   2.289  0.00  0.00    +0.031 C 
ENDBRANCH  14  24
BRANCH  11  28
ATOM     28  C   UNL     1       4.227   6.501  -1.609  0.00  0.00    -0.031 C 
ATOM     29  C   UNL     1       5.349   7.364  -1.029  0.00  0.00    +0.005 C 
ATOM     30  C   UNL     1       4.571   6.119  -3.050  0.00  0.00    +0.005 C 
ENDBRANCH  11  28
TORSDOF 2
