REMARK  Name = ZINC09160724
REMARK  10 active torsions:
REMARK  status: ('A' for Active; 'I' for Inactive)
REMARK    1  A    between atoms: C_1  and  N_2
REMARK    2  A    between atoms: C_12  and  C_23
REMARK    3  A    between atoms: C_13  and  O_22
REMARK    4  A    between atoms: N_16  and  C_17
REMARK    5  A    between atoms: C_17  and  C_18
REMARK    6  A    between atoms: C_18  and  C_19
REMARK    7  A    between atoms: C_19  and  N_59
REMARK    8  A    between atoms: C_20  and  N_59
REMARK    9  A    between atoms: C_21  and  N_59
REMARK   10  A    between atoms: C_23  and  C_25
REMARK                            x       y       z     vdW  Elec       q    Type
REMARK                         _______ _______ _______ _____ _____    ______ ____
ROOT
ATOM      1  C   UNL     1      -2.943   6.242   0.195  0.00  0.00    +0.138 C 
ATOM      2  N   UNL     1      -2.079   5.144  -0.246  0.00  0.00    -0.272 N 
ATOM      3  C   UNL     1      -1.787   4.872  -1.584  0.00  0.00    +0.042 A 
ATOM      4  C   UNL     1      -2.198   5.508  -2.753  0.00  0.00    +0.024 A 
ATOM      5  C   UNL     1      -1.768   5.048  -3.981  0.00  0.00    +0.002 A 
ATOM      6  C   UNL     1      -0.928   3.952  -4.061  0.00  0.00    +0.000 A 
ATOM      7  C   UNL     1      -0.515   3.314  -2.905  0.00  0.00    +0.008 A 
ATOM      8  C   UNL     1      -0.942   3.771  -1.677  0.00  0.00    +0.011 A 
ATOM      9  C   UNL     1      -0.689   3.320  -0.264  0.00  0.00    +0.174 C 
ATOM     10  C   UNL     1      -1.474   4.282   0.592  0.00  0.00    +0.253 C 
ATOM     11  O   UNL     1      -1.548   4.278   1.802  0.00  0.00    -0.272 OA
ATOM     12  C   UNL     1       0.777   3.366   0.071  0.00  0.00    +0.086 C 
ATOM     13  C   UNL     1       1.127   2.109   0.437  0.00  0.00    +0.189 C 
ATOM     14  C   UNL     1      -0.060   1.232   0.356  0.00  0.00    +0.283 C 
ATOM     15  O   UNL     1      -0.071   0.046   0.621  0.00  0.00    -0.267 OA
ATOM     16  N   UNL     1      -1.128   1.942  -0.061  0.00  0.00    -0.273 N 
ENDROOT
BRANCH  13  17
ATOM     17  O   UNL     1       2.366   1.718   0.817  0.00  0.00    -0.502 OA
ATOM     18  H   UNL     1       2.355   0.743   1.035  0.00  0.00    +0.292 HD
ENDBRANCH  13  17
BRANCH  12  19
ATOM     19  C   UNL     1       1.655   4.540   0.012  0.00  0.00    +0.231 C 
ATOM     20  O   UNL     1       1.176   5.653  -0.116  0.00  0.00    -0.283 OA
BRANCH  19  21
ATOM     21  C   UNL     1       3.111   4.374   0.108  0.00  0.00    +0.176 A 
ATOM     22  C   UNL     1       4.011   5.390   0.212  0.00  0.00    +0.061 A 
ATOM     23  C   UNL     1       5.327   4.758   0.281  0.00  0.00    +0.021 A 
ATOM     24  C   UNL     1       6.634   5.241   0.395  0.00  0.00    +0.011 A 
ATOM     25  C   UNL     1       7.679   4.362   0.430  0.00  0.00    +0.001 A 
ATOM     26  C   UNL     1       7.452   2.995   0.353  0.00  0.00    +0.004 A 
ATOM     27  C   UNL     1       6.171   2.499   0.240  0.00  0.00    +0.047 A 
ATOM     28  C   UNL     1       5.091   3.373   0.203  0.00  0.00    +0.136 A 
ATOM     29  O   UNL     1       3.760   3.191   0.101  0.00  0.00    -0.452 OA
ENDBRANCH  19  21
ENDBRANCH  12  19
BRANCH  16  30
ATOM     30  C   UNL     1      -2.483   1.425  -0.271  0.00  0.00    +0.108 C 
BRANCH  30  31
ATOM     31  C   UNL     1      -3.284   1.555   1.026  0.00  0.00    +0.000 C 
BRANCH  31  32
ATOM     32  C   UNL     1      -4.699   1.015   0.808  0.00  0.00    -0.078 C 
BRANCH  32  35
ATOM     33  C   UNL     1      -5.682   2.551   2.400  0.00  0.00    -0.097 C 
ATOM     34  C   UNL     1      -6.746   0.421   1.956  0.00  0.00    -0.097 C 
ATOM     35  N   UNL     1      -5.453   1.127   2.074  0.00  0.00    +0.376 N 
ATOM     36  H   UNL     1      -4.905   0.697   2.828  0.00  0.00    -0.083 HD
ENDBRANCH  32  35
ENDBRANCH  31  32
ENDBRANCH  30  31
ENDBRANCH  16  30
TORSDOF 7
