REMARK  Name = ZINC09350988
REMARK  5 active torsions:
REMARK  status: ('A' for Active; 'I' for Inactive)
REMARK    1  A    between atoms: C_1  and  C_2
REMARK    2  A    between atoms: C_4  and  N_34
REMARK    3  A    between atoms: C_7  and  N_8
REMARK    4  A    between atoms: C_25  and  O_32
REMARK    5  A    between atoms: O_32  and  C_33
REMARK                            x       y       z     vdW  Elec       q    Type
REMARK                         _______ _______ _______ _____ _____    ______ ____
ROOT
ATOM      1  N   UNL     1      -0.894  -1.927  -2.266  0.00  0.00    -0.210 N 
ATOM      2  C   UNL     1      -1.424  -2.853  -1.458  0.00  0.00    +0.228 C 
ATOM      3  O   UNL     1      -2.608  -3.086  -1.341  0.00  0.00    -0.275 OA
ATOM      4  C   UNL     1      -0.316  -3.563  -0.714  0.00  0.00    +0.074 C 
ATOM      5  C   UNL     1      -0.386  -3.196   0.780  0.00  0.00    -0.054 C 
ATOM      6  C   UNL     1      -0.748  -4.450   1.596  0.00  0.00    -0.016 C 
ATOM      7  C   UNL     1       0.636  -5.075   1.979  0.00  0.00    -0.020 C 
ATOM      8  C   UNL     1       1.693  -4.155   1.336  0.00  0.00    -0.076 C 
ATOM      9  C   UNL     1       1.558  -2.157  -0.020  0.00  0.00    +0.053 C 
ATOM     10  C   UNL     1       0.971  -2.872  -1.242  0.00  0.00    +0.089 C 
ATOM     11  C   UNL     1       0.441  -1.852  -2.225  0.00  0.00    +0.229 C 
ATOM     12  O   UNL     1       1.120  -1.085  -2.873  0.00  0.00    -0.275 OA
ATOM     13  C   UNL     1       1.203  -0.696  -0.014  0.00  0.00    -0.024 A 
ATOM     14  C   UNL     1       0.008  -0.013  -0.001  0.00  0.00    +0.050 A 
ATOM     15  C   UNL     1       0.002   1.375   0.002  0.00  0.00    +0.120 A 
ATOM     16  C   UNL     1       1.204   2.068  -0.009  0.00  0.00    +0.047 A 
ATOM     17  C   UNL     1       2.401   1.384  -0.023  0.00  0.00    +0.027 A 
ATOM     18  C   UNL     1       2.413  -0.009  -0.026  0.00  0.00    +0.036 A 
ATOM     19  N   UNL     1       3.481  -0.912  -0.038  0.00  0.00    -0.286 N 
ATOM     20  C   UNL     1       3.062  -2.192  -0.035  0.00  0.00    +0.212 C 
ATOM     21  O   UNL     1       3.763  -3.183  -0.044  0.00  0.00    -0.277 OA
ATOM     22  H   UNL     1       4.414  -0.648  -0.047  0.00  0.00    +0.155 HD
ATOM     23  N   UNL     1       0.983  -2.882   1.123  0.00  0.00    +0.395 N 
ATOM     24  H   UNL     1       1.026  -2.305   1.971  0.00  0.00    -0.079 HD
ENDROOT
BRANCH   1  31
ATOM     25  C   UNL     1      -1.298  -2.716  -4.970  0.00  0.00    +0.046 C 
ATOM     26  C   UNL     1      -1.897  -1.450  -4.413  0.00  0.00    -0.026 A 
ATOM     27  C   UNL     1      -2.667  -0.636  -5.220  0.00  0.00    +0.038 A 
ATOM     28  C   UNL     1      -3.217   0.525  -4.709  0.00  0.00    +0.127 A 
ATOM     29  C   UNL     1      -2.998   0.875  -3.389  0.00  0.00    +0.034 A 
ATOM     30  C   UNL     1      -2.233   0.062  -2.576  0.00  0.00    +0.026 A 
ATOM     31  C   UNL     1      -1.675  -1.102  -3.088  0.00  0.00    +0.047 A 
BRANCH  28  32
ATOM     32  N   UNL     1      -4.043   1.395  -5.577  0.00  0.00    +0.056 N 
ATOM     33  O   UNL     1      -4.237   1.089  -6.739  0.00  0.00    -0.126 OA
ATOM     34  O   UNL     1      -4.528   2.418  -5.128  0.00  0.00    -0.126 OA
ENDBRANCH  28  32
ENDBRANCH   1  31
BRANCH  15  35
ATOM     35  O   UNL     1      -1.177   2.053   0.009  0.00  0.00    -0.495 OA
ATOM     36  C   UNL     1      -1.105   3.480   0.012  0.00  0.00    +0.277 C 
ENDBRANCH  15  35
TORSDOF 3
