REMARK  Name = ZINC11880605
REMARK  13 active torsions:
REMARK  status: ('A' for Active; 'I' for Inactive)
REMARK    1  A    between atoms: C_1  and  C_2
REMARK    2  A    between atoms: C_5  and  C_34
REMARK    3  A    between atoms: C_6  and  C_8
REMARK    4  A    between atoms: C_8  and  N_72
REMARK    5  A    between atoms: C_11  and  C_14
REMARK    6  A    between atoms: C_14  and  C_25
REMARK    7  A    between atoms: N_17  and  C_21
REMARK    8  A    between atoms: C_21  and  C_22
REMARK    9  A    between atoms: C_22  and  O_23
REMARK   10  A    between atoms: O_23  and  C_24
REMARK   11  A    between atoms: C_25  and  C_26
REMARK   12  A    between atoms: C_30  and  O_32
REMARK   13  A    between atoms: O_32  and  C_33
REMARK                            x       y       z     vdW  Elec       q    Type
REMARK                         _______ _______ _______ _____ _____    ______ ____
ROOT
ATOM      1  C   UNL     1      -3.670   2.719   4.660  0.00  0.00    +0.119 C 
ATOM      2  C   UNL     1      -3.299   2.138   6.010  0.00  0.00    +0.247 C 
ATOM      3  O   UNL     1      -2.413   2.510   6.749  0.00  0.00    -0.273 OA
ATOM      4  N   UNL     1      -4.161   1.117   6.213  0.00  0.00    -0.222 N 
ATOM      5  C   UNL     1      -5.014   0.980   5.192  0.00  0.00    +0.309 C 
ATOM      6  O   UNL     1      -5.884   0.132   5.147  0.00  0.00    -0.252 OA
ATOM      7  N   UNL     1      -4.802   1.885   4.220  0.00  0.00    -0.284 N 
ATOM      8  H   UNL     1      -5.298   1.973   3.391  0.00  0.00    +0.151 HD
ENDROOT
BRANCH   1  11
ATOM      9  C   UNL     1      -1.769   2.938   1.319  0.00  0.00    -0.078 C 
ATOM     10  C   UNL     1      -2.924   3.119   2.306  0.00  0.00    -0.013 C 
ATOM     11  C   UNL     1      -2.499   2.597   3.682  0.00  0.00    +0.018 C 
ATOM     12  C   UNL     1      -2.088   1.127   3.556  0.00  0.00    -0.013 C 
ATOM     13  C   UNL     1      -0.957   1.004   2.533  0.00  0.00    -0.078 C 
ATOM     14  N   UNL     1      -1.438   1.501   1.225  0.00  0.00    +0.382 N 
ATOM     15  H   UNL     1      -2.283   0.981   0.962  0.00  0.00    -0.081 HD
BRANCH  14  16
ATOM     16  C   UNL     1      -0.402   1.287   0.193  0.00  0.00    -0.043 C 
BRANCH  16  22
ATOM     17  C   UNL     1      -1.070   3.965  -3.982  0.00  0.00    +0.044 C 
ATOM     18  C   UNL     1      -1.353   2.732  -3.163  0.00  0.00    -0.050 A 
ATOM     19  C   UNL     1      -2.192   1.750  -3.658  0.00  0.00    +0.003 A 
ATOM     20  C   UNL     1      -2.452   0.620  -2.906  0.00  0.00    +0.004 A 
ATOM     21  C   UNL     1      -1.872   0.470  -1.660  0.00  0.00    -0.049 A 
ATOM     22  C   UNL     1      -1.033   1.451  -1.165  0.00  0.00    -0.061 A 
ATOM     23  C   UNL     1      -0.778   2.584  -1.915  0.00  0.00    +0.005 A 
ATOM     24  C   UNL     1      -2.155  -0.763  -0.841  0.00  0.00    +0.044 C 
ENDBRANCH  16  22
ENDBRANCH  14  16
ENDBRANCH   1  11
BRANCH   4  25
ATOM     25  C   UNL     1      -4.162   0.267   7.406  0.00  0.00    +0.146 C 
BRANCH  25  26
ATOM     26  C   UNL     1      -3.245  -0.935   7.176  0.00  0.00    +0.179 C 
BRANCH  26  27
ATOM     27  O   UNL     1      -1.896  -0.485   7.034  0.00  0.00    -0.381 OA
ATOM     28  C   UNL     1      -0.953  -1.536   6.814  0.00  0.00    +0.194 C 
ENDBRANCH  26  27
ENDBRANCH  25  26
ENDBRANCH   4  25
BRANCH   1  29
ATOM     29  C   UNL     1      -4.100   4.180   4.802  0.00  0.00    +0.070 C 
BRANCH  29  30
ATOM     30  C   UNL     1      -5.252   4.272   5.770  0.00  0.00    -0.041 A 
ATOM     31  C   UNL     1      -6.552   4.181   5.307  0.00  0.00    +0.004 A 
ATOM     32  C   UNL     1      -7.610   4.260   6.192  0.00  0.00    +0.004 A 
ATOM     33  C   UNL     1      -7.372   4.441   7.541  0.00  0.00    +0.045 A 
ATOM     34  C   UNL     1      -6.069   4.538   8.007  0.00  0.00    +0.120 A 
ATOM     35  C   UNL     1      -5.008   4.453   7.117  0.00  0.00    +0.049 A 
BRANCH  34  36
ATOM     36  O   UNL     1      -5.833   4.716   9.334  0.00  0.00    -0.495 OA
ATOM     37  C   UNL     1      -6.973   4.795  10.191  0.00  0.00    +0.277 C 
ENDBRANCH  34  36
ENDBRANCH  29  30
ENDBRANCH   1  29
TORSDOF 9
