REMARK  Name = ZINC56907986
REMARK  6 active torsions:
REMARK  status: ('A' for Active; 'I' for Inactive)
REMARK    1  A    between atoms: C_1  and  C_2
REMARK    2  A    between atoms: C_3  and  N_16
REMARK    3  A    between atoms: C_4  and  C_15
REMARK    4  A    between atoms: N_5  and  C_7
REMARK    5  A    between atoms: C_22  and  C_24
REMARK    6  A    between atoms: C_25  and  C_29
REMARK                            x       y       z     vdW  Elec       q    Type
REMARK                         _______ _______ _______ _____ _____    ______ ____
ROOT
ATOM      1  C   UNL     1      -0.176   0.159  -0.264  0.00  0.00    +0.069 C 
ATOM      2  C   UNL     1       0.241  -1.250  -0.602  0.00  0.00    +0.081 A 
ATOM      3  C   UNL     1       0.516  -1.738  -1.887  0.00  0.00    +0.074 A 
ATOM      4  C   UNL     1       0.856  -3.047  -1.772  0.00  0.00    +0.058 A 
ATOM      5  N   UNL     1       0.795  -3.371  -0.453  0.00  0.00    -0.262 N 
ATOM      6  N   UNL     1       0.413  -2.224   0.255  0.00  0.00    -0.174 NA
ATOM      7  C   UNL     1       1.231  -3.972  -2.900  0.00  0.00    +0.067 C 
ENDROOT
BRANCH   3   8
ATOM      8  N   UNL     1       0.452  -1.001  -3.085  0.00  0.00    -0.324 N 
ATOM      9  C   UNL     1      -0.798  -0.931  -3.854  0.00  0.00    +0.124 C 
ATOM     10  C   UNL     1      -1.167   0.544  -4.058  0.00  0.00    +0.127 C 
ATOM     11  N   UNL     1       0.015   1.258  -4.562  0.00  0.00    -0.294 N 
ATOM     12  C   UNL     1       1.266   1.188  -3.793  0.00  0.00    +0.127 C 
ATOM     13  C   UNL     1       1.632  -0.283  -3.586  0.00  0.00    +0.124 C 
ATOM     14  C   UNL     1      -0.046   1.963  -5.709  0.00  0.00    +0.257 C 
ATOM     15  O   UNL     1       0.952   2.504  -6.144  0.00  0.00    -0.269 OA
BRANCH  14  16
ATOM     16  C   UNL     1      -1.322   2.079  -6.434  0.00  0.00    +0.117 A 
ATOM     17  C   UNL     1      -1.566   2.395  -7.765  0.00  0.00    +0.081 A 
ATOM     18  N   UNL     1      -2.834   2.413  -8.094  0.00  0.00    -0.146 NA
ATOM     19  N   UNL     1      -3.767   2.158  -7.247  0.00  0.00    -0.110 NA
ATOM     20  S   UNL     1      -2.994   1.845  -5.856  0.00  0.00    +0.041 S 
ATOM     21  C   UNL     1      -0.464   2.692  -8.749  0.00  0.00    +0.069 C 
ENDBRANCH  14  16
ENDBRANCH   3   8
BRANCH   5  22
ATOM     22  C   UNL     1       1.084  -4.685   0.127  0.00  0.00    +0.130 C 
ATOM     23  C   UNL     1      -0.150  -5.200   0.886  0.00  0.00    +0.051 C 
ATOM     24  C   UNL     1       0.238  -6.418   1.760  0.00  0.00    +0.168 C 
ATOM     25  S   UNL     1       2.014  -6.104   2.123  0.00  0.00    -0.029 S 
ATOM     26  O   UNL     1       2.156  -5.797   3.503  0.00  0.00    -0.174 OA
ATOM     27  O   UNL     1       2.793  -7.148   1.555  0.00  0.00    -0.174 OA
ATOM     28  C   UNL     1       2.260  -4.567   1.138  0.00  0.00    +0.192 C 
ENDBRANCH   5  22
TORSDOF 3
