REMARK  Name = ZINC43549060
REMARK  15 active torsions:
REMARK  status: ('A' for Active; 'I' for Inactive)
REMARK    1  A    between atoms: C_1  and  C_2
REMARK    2  A    between atoms: C_7  and  C_9
REMARK    3  A    between atoms: C_9  and  S_10
REMARK    4  A    between atoms: S_10  and  C_11
REMARK    5  A    between atoms: C_18  and  C_40
REMARK    6  A    between atoms: C_21  and  O_39
REMARK    7  A    between atoms: C_23  and  C_27
REMARK    8  A    between atoms: C_27  and  C_29
REMARK    9  A    between atoms: C_27  and  C_30
REMARK   10  A    between atoms: N_32  and  C_33
REMARK   11  A    between atoms: N_32  and  C_34
REMARK   12  A    between atoms: C_34  and  C_35
REMARK   13  A    between atoms: C_35  and  N_36
REMARK   14  A    between atoms: N_36  and  C_37
REMARK   15  A    between atoms: N_36  and  C_38
REMARK                            x       y       z     vdW  Elec       q    Type
REMARK                         _______ _______ _______ _____ _____    ______ ____
ROOT
ATOM      1  C   UNL     1       0.217   0.271   0.318  0.00  0.00    +0.014 C 
ATOM      2  C   UNL     1       0.222  -1.220   0.661  0.00  0.00    +0.042 C 
ATOM      3  C   UNL     1      -1.186  -1.660   1.031  0.00  0.00    +0.055 A 
ATOM      4  C   UNL     1      -1.393  -2.515   2.067  0.00  0.00    +0.014 A 
ATOM      5  S   UNL     1      -3.154  -2.698   2.068  0.00  0.00    -0.076 S 
ATOM      6  C   UNL     1      -3.478  -1.680   0.764  0.00  0.00    +0.089 A 
ATOM      7  N   UNL     1      -2.289  -1.268   0.404  0.00  0.00    -0.248 NA
ATOM      8  C   UNL     1      -0.368  -3.123   2.960  0.00  0.00    +0.051 C 
ATOM      9  C   UNL     1       1.016  -2.913   2.340  0.00  0.00    -0.022 C 
ATOM     10  C   UNL     1       1.159  -1.469   1.848  0.00  0.00    +0.033 C 
ATOM     11  C   UNL     1       2.604  -1.282   1.357  0.00  0.00    +0.123 C 
ATOM     12  C   UNL     1       2.849  -2.228   0.179  0.00  0.00    +0.029 C 
ATOM     13  C   UNL     1       2.651  -3.678   0.623  0.00  0.00    +0.007 C 
ATOM     14  C   UNL     1       1.230  -3.866   1.165  0.00  0.00    +0.008 C 
ATOM     15  C   UNL     1       2.088  -3.172   3.400  0.00  0.00    +0.012 C 
ENDROOT
BRANCH  12  16
ATOM     16  C   UNL     1       4.280  -2.047  -0.330  0.00  0.00    +0.078 C 
ATOM     17  C   UNL     1       4.479  -0.600  -0.787  0.00  0.00    +0.017 C 
BRANCH  16  18
ATOM     18  C   UNL     1       4.523  -2.978  -1.490  0.00  0.00    +0.218 C 
ATOM     19  O   UNL     1       3.584  -3.480  -2.070  0.00  0.00    -0.275 OA
ATOM     20  N   UNL     1       5.783  -3.251  -1.882  0.00  0.00    -0.306 N 
ATOM     21  C   UNL     1       6.912  -2.571  -1.244  0.00  0.00    +0.132 C 
BRANCH  20  22
ATOM     22  C   UNL     1       6.022  -4.229  -2.946  0.00  0.00    +0.089 C 
BRANCH  22  23
ATOM     23  C   UNL     1       6.028  -3.518  -4.301  0.00  0.00    -0.060 C 
BRANCH  23  24
ATOM     24  N   UNL     1       6.269  -4.498  -5.368  0.00  0.00    +0.377 N 
ATOM     25  C   UNL     1       6.156  -3.837  -6.675  0.00  0.00    -0.097 C 
ATOM     26  C   UNL     1       7.617  -5.062  -5.220  0.00  0.00    -0.097 C 
ATOM     27  H   UNL     1       5.585  -5.238  -5.305  0.00  0.00    -0.083 HD
ENDBRANCH  23  24
ENDBRANCH  22  23
ENDBRANCH  20  22
ENDBRANCH  16  18
ENDBRANCH  12  16
BRANCH  11  28
ATOM     28  O   UNL     1       3.514  -1.586   2.417  0.00  0.00    -0.391 OA
ATOM     29  H   UNL     1       4.445  -1.489   2.176  0.00  0.00    +0.210 HD
ENDBRANCH  11  28
BRANCH   6  30
ATOM     30  C   UNL     1      -4.813  -1.331   0.158  0.00  0.00    +0.137 C 
BRANCH  30  31
ATOM     31  S   UNL     1      -5.212  -2.518  -1.154  0.00  0.00    -0.118 S 
BRANCH  31  32
ATOM     32  C   UNL     1      -6.779  -1.981  -1.754  0.00  0.00    +0.008 A 
ATOM     33  C   UNL     1      -7.390  -0.862  -1.201  0.00  0.00    +0.015 A 
ATOM     34  C   UNL     1      -8.618  -0.444  -1.673  0.00  0.00    +0.001 A 
ATOM     35  C   UNL     1      -9.240  -1.137  -2.696  0.00  0.00    +0.000 A 
ATOM     36  C   UNL     1      -8.634  -2.251  -3.249  0.00  0.00    +0.001 A 
ATOM     37  C   UNL     1      -7.404  -2.671  -2.786  0.00  0.00    +0.015 A 
ENDBRANCH  31  32
ENDBRANCH  30  31
ENDBRANCH   6  30
TORSDOF 9
