REMARK  Name = ZINC22929718
REMARK  6 active torsions:
REMARK  status: ('A' for Active; 'I' for Inactive)
REMARK    1  A    between atoms: C_5  and  C_7
REMARK    2  A    between atoms: C_7  and  C_9
REMARK    3  A    between atoms: C_7  and  N_24
REMARK    4  A    between atoms: N_13  and  C_14
REMARK    5  A    between atoms: C_14  and  C_15
REMARK    6  A    between atoms: N_27  and  C_30
REMARK                            x       y       z     vdW  Elec       q    Type
REMARK                         _______ _______ _______ _____ _____    ______ ____
ROOT
ATOM      1  C   UNL     1       0.862  -2.224   0.448  0.00  0.00    +0.158 C 
ENDROOT
BRANCH   1   6
ATOM      2  C   UNL     1       0.525   1.398   1.458  0.00  0.00    +0.000 A 
ATOM      3  C   UNL     1       0.317   2.008   0.234  0.00  0.00    +0.001 A 
ATOM      4  C   UNL     1       0.285   1.249  -0.920  0.00  0.00    +0.020 A 
ATOM      5  C   UNL     1       0.462  -0.121  -0.852  0.00  0.00    +0.046 A 
ATOM      6  C   UNL     1       0.670  -0.731   0.372  0.00  0.00    -0.005 A 
ATOM      7  C   UNL     1       0.702   0.029   1.526  0.00  0.00    +0.007 A 
ATOM      8 CL   UNL     1       0.421  -1.075  -2.302  0.00  0.00    -0.083 Cl
ENDBRANCH   1   6
BRANCH   1   9
ATOM      9  N   UNL     1      -0.436  -2.893   0.293  0.00  0.00    -0.293 NA
ATOM     10  C   UNL     1      -1.395  -2.421   1.302  0.00  0.00    +0.067 C 
ATOM     11  C   UNL     1      -2.749  -3.096   1.071  0.00  0.00    -0.063 C 
ATOM     12  N   UNL     1      -2.591  -4.553   1.165  0.00  0.00    +0.383 N 
ATOM     13  C   UNL     1      -1.650  -5.013   0.135  0.00  0.00    -0.063 C 
ATOM     14  C   UNL     1      -0.287  -4.354   0.359  0.00  0.00    +0.067 C 
ATOM     15  H   UNL     1      -2.236  -4.795   2.077  0.00  0.00    -0.081 HD
BRANCH  12  16
ATOM     16  C   UNL     1      -3.894  -5.200   0.960  0.00  0.00    -0.068 C 
ATOM     17  C   UNL     1      -4.873  -4.783   2.078  0.00  0.00    -0.015 C 
ATOM     18  C   UNL     1      -5.696  -6.064   2.360  0.00  0.00    -0.002 C 
ATOM     19  C   UNL     1      -4.637  -7.187   2.227  0.00  0.00    -0.002 C 
ATOM     20  C   UNL     1      -3.745  -6.729   1.056  0.00  0.00    -0.015 C 
ENDBRANCH  12  16
ENDBRANCH   1   9
BRANCH   1  21
ATOM     21  C   UNL     1       1.459  -2.587   1.783  0.00  0.00    +0.173 A 
ATOM     22  N   UNL     1       0.849  -2.574   2.942  0.00  0.00    -0.111 NA
ATOM     23  N   UNL     1       1.693  -2.947   3.841  0.00  0.00    -0.023 NA
ATOM     24  N   UNL     1       2.827  -3.199   3.284  0.00  0.00    -0.044 NA
ATOM     25  N   UNL     1       2.721  -2.994   2.015  0.00  0.00    -0.223 N 
BRANCH  25  26
ATOM     26  C   UNL     1       3.778  -3.167   1.015  0.00  0.00    +0.182 C 
BRANCH  26  27
ATOM     27  C   UNL     1       4.582  -1.897   0.909  0.00  0.00    -0.022 A 
ATOM     28  C   UNL     1       4.226  -0.930  -0.014  0.00  0.00    +0.009 A 
ATOM     29  C   UNL     1       4.960   0.237  -0.115  0.00  0.00    +0.050 A 
ATOM     30  C   UNL     1       6.056   0.440   0.709  0.00  0.00    +0.166 A 
ATOM     31  C   UNL     1       6.414  -0.533   1.638  0.00  0.00    +0.167 A 
ATOM     32  C   UNL     1       5.670  -1.698   1.738  0.00  0.00    +0.055 A 
ATOM     33  O   UNL     1       7.514  -0.101   2.320  0.00  0.00    -0.453 OA
ATOM     34  C   UNL     1       8.068   0.962   1.522  0.00  0.00    +0.466 C 
ATOM     35  O   UNL     1       6.931   1.482   0.809  0.00  0.00    -0.453 OA
ENDBRANCH  26  27
ENDBRANCH  25  26
ENDBRANCH   1  21
TORSDOF 6
