REMARK  Name = ZINC14476574
REMARK  7 active torsions:
REMARK  status: ('A' for Active; 'I' for Inactive)
REMARK    1  A    between atoms: C_4  and  C_7
REMARK    2  A    between atoms: C_7  and  O_8
REMARK    3  A    between atoms: O_8  and  C_9
REMARK    4  A    between atoms: C_14  and  C_15
REMARK    5  A    between atoms: C_28  and  C_31
REMARK    6  A    between atoms: N_33  and  C_34
REMARK    7  A    between atoms: C_34  and  C_35
REMARK                            x       y       z     vdW  Elec       q    Type
REMARK                         _______ _______ _______ _____ _____    ______ ____
ROOT
ATOM      1  C   UNL     1      -5.285   5.536   6.941  0.00  0.00    +0.108 C 
ATOM      2  C   UNL     1      -4.771   5.140   8.327  0.00  0.00    +0.029 C 
ATOM      3  C   UNL     1      -5.141   6.267   9.332  0.00  0.00    +0.033 C 
ATOM      4  C   UNL     1      -4.042   7.293   9.138  0.00  0.00    -0.030 C 
ATOM      5  C   UNL     1      -2.970   6.734   8.606  0.00  0.00    -0.023 C 
ATOM      6  C   UNL     1      -3.232   5.268   8.344  0.00  0.00    +0.049 C 
ATOM      7  C   UNL     1      -2.632   4.851   7.033  0.00  0.00    -0.019 A 
ATOM      8  C   UNL     1      -1.251   4.744   6.954  0.00  0.00    +0.006 A 
ATOM      9  C   UNL     1      -0.631   4.370   5.777  0.00  0.00    +0.001 A 
ATOM     10  C   UNL     1      -1.382   4.088   4.656  0.00  0.00    +0.015 A 
ATOM     11  C   UNL     1      -2.772   4.194   4.713  0.00  0.00    +0.058 A 
ATOM     12  C   UNL     1      -3.401   4.574   5.915  0.00  0.00    +0.044 A 
ATOM     13  N   UNL     1      -4.784   4.652   5.930  0.00  0.00    -0.336 N 
ATOM     14  H   UNL     1      -5.143   4.886   5.016  0.00  0.00    +0.147 HD
ENDROOT
BRANCH   1  20
ATOM     15  C   UNL     1      -5.536   8.030   6.992  0.00  0.00    +0.126 A 
ATOM     16  C   UNL     1      -5.087   9.305   6.678  0.00  0.00    +0.046 A 
ATOM     17  C   UNL     1      -3.907   9.467   5.978  0.00  0.00    +0.004 A 
ATOM     18  C   UNL     1      -3.175   8.360   5.590  0.00  0.00    +0.001 A 
ATOM     19  C   UNL     1      -3.618   7.089   5.905  0.00  0.00    +0.009 A 
ATOM     20  C   UNL     1      -4.800   6.921   6.601  0.00  0.00    +0.015 A 
BRANCH  15  21
ATOM     21  O   UNL     1      -6.697   7.868   7.681  0.00  0.00    -0.487 OA
BRANCH  21  22
ATOM     22  C   UNL     1      -7.403   9.054   8.050  0.00  0.00    +0.264 C 
BRANCH  22  26
ATOM     23  C   UNL     1     -10.952   7.993  10.178  0.00  0.00    +0.000 A 
ATOM     24  C   UNL     1      -9.771   8.204  10.865  0.00  0.00    +0.000 A 
ATOM     25  C   UNL     1      -8.622   8.547  10.177  0.00  0.00    +0.007 A 
ATOM     26  C   UNL     1      -8.655   8.679   8.801  0.00  0.00    -0.010 A 
ATOM     27  C   UNL     1      -9.837   8.474   8.115  0.00  0.00    +0.007 A 
ATOM     28  C   UNL     1     -10.984   8.126   8.803  0.00  0.00    +0.000 A 
ENDBRANCH  22  26
ENDBRANCH  21  22
ENDBRANCH  15  21
ENDBRANCH   1  20
BRANCH  11  29
ATOM     29  C   UNL     1      -3.583   3.901   3.518  0.00  0.00    +0.246 C 
ATOM     30  O   UNL     1      -4.796   3.874   3.598  0.00  0.00    -0.270 OA
ATOM     31  N   UNL     1      -2.981   3.664   2.336  0.00  0.00    -0.309 N 
ATOM     32  H   UNL     1      -2.013   3.686   2.272  0.00  0.00    +0.149 HD
BRANCH  31  33
ATOM     33  C   UNL     1      -3.787   3.374   1.148  0.00  0.00    +0.136 C 
BRANCH  33  34
ATOM     34  C   UNL     1      -2.864   3.145  -0.051  0.00  0.00    +0.135 C 
ATOM     35  C   UNL     1      -3.691   2.959  -1.349  0.00  0.00    +0.035 C 
ATOM     36  C   UNL     1      -2.721   2.144  -2.238  0.00  0.00    +0.031 C 
ATOM     37  C   UNL     1      -1.738   1.506  -1.238  0.00  0.00    +0.160 C 
ATOM     38  O   UNL     1      -2.156   1.891   0.083  0.00  0.00    -0.375 OA
ENDBRANCH  33  34
ENDBRANCH  31  33
ENDBRANCH  11  29
TORSDOF 7
