REMARK  Name = ZINC35642648
REMARK  10 active torsions:
REMARK  status: ('A' for Active; 'I' for Inactive)
REMARK    1  A    between atoms: C_1  and  C_2
REMARK    2  A    between atoms: C_2  and  O_3
REMARK    3  A    between atoms: O_3  and  C_4
REMARK    4  A    between atoms: C_4  and  C_6
REMARK    5  A    between atoms: C_7  and  C_22
REMARK    6  A    between atoms: N_8  and  C_21
REMARK    7  A    between atoms: C_12  and  C_14
REMARK    8  A    between atoms: C_22  and  N_23
REMARK    9  A    between atoms: C_27  and  C_30
REMARK   10  A    between atoms: C_31  and  C_33
REMARK                            x       y       z     vdW  Elec       q    Type
REMARK                         _______ _______ _______ _____ _____    ______ ____
ROOT
ATOM      1  C   UNL     1       0.794  -2.472  -0.134  0.00  0.00    +0.080 C 
ATOM      2  C   UNL     1       1.251  -3.420  -0.981  0.00  0.00    +0.041 C 
ATOM      3  N   UNL     1       2.149  -3.114  -1.963  0.00  0.00    -0.260 N 
ATOM      4  C   UNL     1       2.640  -1.884  -2.163  0.00  0.00    +0.307 C 
ATOM      5  O   UNL     1       3.437  -1.709  -3.064  0.00  0.00    -0.252 OA
ATOM      6  N   UNL     1       2.279  -0.835  -1.399  0.00  0.00    -0.288 N 
ATOM      7  C   UNL     1       1.309  -1.058  -0.314  0.00  0.00    +0.145 C 
ATOM      8  C   UNL     1       2.602  -4.191  -2.846  0.00  0.00    +0.139 C 
ATOM      9  H   UNL     1       2.648   0.048  -1.561  0.00  0.00    +0.151 HD
ENDROOT
BRANCH   7  10
ATOM     10  C   UNL     1       1.956  -0.631   0.978  0.00  0.00    -0.004 A 
ATOM     11  C   UNL     1       3.310  -0.834   1.173  0.00  0.00    +0.007 A 
ATOM     12  C   UNL     1       3.904  -0.442   2.357  0.00  0.00    +0.000 A 
ATOM     13  C   UNL     1       3.145   0.153   3.349  0.00  0.00    +0.001 A 
ATOM     14  C   UNL     1       1.792   0.356   3.155  0.00  0.00    +0.020 A 
ATOM     15  C   UNL     1       1.198  -0.031   1.967  0.00  0.00    +0.046 A 
ATOM     16 CL   UNL     1      -0.501   0.230   1.720  0.00  0.00    -0.083 Cl
ENDBRANCH   7  10
BRANCH   1  17
ATOM     17  C   UNL     1      -0.137  -2.787   0.883  0.00  0.00    +0.339 C 
ATOM     18  O   UNL     1      -1.311  -2.503   0.742  0.00  0.00    -0.245 OA
BRANCH  17  19
ATOM     19  O   UNL     1       0.278  -3.403   2.010  0.00  0.00    -0.462 OA
BRANCH  19  21
ATOM     20  C   UNL     1      -0.067  -4.358   4.203  0.00  0.00    +0.048 C 
ATOM     21  C   UNL     1      -0.730  -3.792   2.945  0.00  0.00    +0.229 C 
ENDBRANCH  19  21
ENDBRANCH  17  19
ENDBRANCH   1  17
BRANCH   2  22
ATOM     22  C   UNL     1       0.761  -4.838  -0.840  0.00  0.00    +0.136 C 
BRANCH  22  23
ATOM     23  N   UNL     1       0.008  -5.218  -2.042  0.00  0.00    -0.294 NA
ATOM     24  C   UNL     1      -1.224  -4.426  -2.164  0.00  0.00    +0.104 C 
ATOM     25  C   UNL     1      -1.885  -4.720  -3.515  0.00  0.00    +0.124 C 
ATOM     26  N   UNL     1      -2.066  -6.174  -3.639  0.00  0.00    -0.292 N 
ATOM     27  C   UNL     1      -0.905  -7.043  -3.395  0.00  0.00    +0.087 C 
ATOM     28  C   UNL     1      -0.282  -6.658  -2.049  0.00  0.00    +0.107 C 
ATOM     29  C   UNL     1      -1.356  -8.505  -3.357  0.00  0.00    +0.029 C 
ATOM     30  C   UNL     1      -3.264  -6.696  -3.968  0.00  0.00    +0.247 C 
ATOM     31  O   UNL     1      -3.424  -7.901  -3.964  0.00  0.00    -0.270 OA
BRANCH  30  32
ATOM     32  C   UNL     1      -4.385  -5.804  -4.334  0.00  0.00    +0.037 A 
ATOM     33  C   UNL     1      -4.128  -4.552  -4.896  0.00  0.00    +0.013 A 
ATOM     34  C   UNL     1      -5.178  -3.724  -5.235  0.00  0.00    +0.001 A 
ATOM     35  C   UNL     1      -6.483  -4.131  -5.020  0.00  0.00    +0.000 A 
ATOM     36  C   UNL     1      -6.743  -5.371  -4.463  0.00  0.00    +0.001 A 
ATOM     37  C   UNL     1      -5.703  -6.211  -4.125  0.00  0.00    +0.013 A 
ENDBRANCH  30  32
ENDBRANCH  22  23
ENDBRANCH   2  22
TORSDOF 7
