REMARK  Name = ZINC09124207
REMARK  8 active torsions:
REMARK  status: ('A' for Active; 'I' for Inactive)
REMARK    1  A    between atoms: C_1  and  C_2
REMARK    2  A    between atoms: C_6  and  C_9
REMARK    3  A    between atoms: C_10  and  C_11
REMARK    4  A    between atoms: C_10  and  N_62
REMARK    5  A    between atoms: N_15  and  C_16
REMARK    6  A    between atoms: C_16  and  C_17
REMARK    7  A    between atoms: N_29  and  C_34
REMARK    8  A    between atoms: N_32  and  C_33
REMARK                            x       y       z     vdW  Elec       q    Type
REMARK                         _______ _______ _______ _____ _____    ______ ____
ROOT
ATOM      1  C   UNL     1      -1.020   2.026   4.190  0.00  0.00    +0.096 A 
ATOM      2  N   UNL     1      -0.909   3.000   5.057  0.00  0.00    -0.216 NA
ATOM      3  C   UNL     1      -1.520   2.664   6.196  0.00  0.00    +0.168 A 
ATOM      4  C   UNL     1      -2.039   1.387   6.024  0.00  0.00    +0.152 A 
ATOM      5  N   UNL     1      -1.706   1.005   4.740  0.00  0.00    -0.319 N 
ATOM      6  C   UNL     1      -2.740   0.780   7.088  0.00  0.00    +0.282 A 
ATOM      7  O   UNL     1      -3.204  -0.339   6.961  0.00  0.00    -0.265 OA
ATOM      8  N   UNL     1      -2.890   1.454   8.247  0.00  0.00    -0.262 N 
ATOM      9  C   UNL     1      -2.383   2.690   8.400  0.00  0.00    +0.333 A 
ATOM     10  O   UNL     1      -2.538   3.267   9.459  0.00  0.00    -0.246 OA
ATOM     11  N   UNL     1      -1.708   3.304   7.410  0.00  0.00    -0.280 N 
ATOM     12  C   UNL     1      -1.171   4.651   7.618  0.00  0.00    +0.155 C 
ATOM     13  C   UNL     1      -3.617   0.830   9.356  0.00  0.00    +0.157 C 
ENDROOT
BRANCH   1  14
ATOM     14  C   UNL     1      -0.459   2.041   2.792  0.00  0.00    -0.003 C 
BRANCH  14  22
ATOM     15  C   UNL     1      -1.363   3.548  -1.806  0.00  0.00    +0.036 C 
ATOM     16  C   UNL     1      -1.956   3.345  -0.410  0.00  0.00    +0.099 C 
ATOM     17  C   UNL     1      -0.886   2.767   0.521  0.00  0.00    -0.046 C 
ATOM     18  C   UNL     1      -1.887   3.954   2.377  0.00  0.00    -0.046 C 
ATOM     19  C   UNL     1      -2.946   4.520   1.428  0.00  0.00    +0.099 C 
ATOM     20  O   UNL     1      -2.402   4.601   0.108  0.00  0.00    -0.378 OA
ATOM     21  C   UNL     1      -4.169   3.600   1.420  0.00  0.00    +0.036 C 
ATOM     22  N   UNL     1      -1.460   2.630   1.876  0.00  0.00    +0.388 N 
ATOM     23  H   UNL     1      -2.277   2.010   1.832  0.00  0.00    -0.081 HD
ENDBRANCH  14  22
ENDBRANCH   1  14
BRANCH   5  24
ATOM     24  C   UNL     1      -2.037  -0.269   4.096  0.00  0.00    +0.159 C 
BRANCH  24  25
ATOM     25  C   UNL     1      -3.308  -0.116   3.301  0.00  0.00    -0.020 A 
ATOM     26  C   UNL     1      -4.502   0.018   3.940  0.00  0.00    +0.006 A 
ATOM     27  C   UNL     1      -5.687   0.167   3.222  0.00  0.00    +0.001 A 
ATOM     28  C   UNL     1      -5.686   0.171   1.861  0.00  0.00    +0.008 A 
ATOM     29  C   UNL     1      -4.473   0.029   1.167  0.00  0.00    -0.018 A 
ATOM     30  C   UNL     1      -3.267  -0.116   1.897  0.00  0.00    -0.013 A 
ATOM     31  C   UNL     1      -2.053  -0.259   1.202  0.00  0.00    +0.009 A 
ATOM     32  C   UNL     1      -2.053  -0.256  -0.159  0.00  0.00    +0.001 A 
ATOM     33  C   UNL     1      -3.238  -0.113  -0.877  0.00  0.00    +0.001 A 
ATOM     34  C   UNL     1      -4.432   0.027  -0.238  0.00  0.00    +0.008 A 
ENDBRANCH  24  25
ENDBRANCH   5  24
TORSDOF 4
