REMARK  Name = ZINC12692711
REMARK  8 active torsions:
REMARK  status: ('A' for Active; 'I' for Inactive)
REMARK    1  A    between atoms: C_3  and  C_8
REMARK    2  A    between atoms: C_9  and  C_10
REMARK    3  A    between atoms: C_10  and  O_12
REMARK    4  A    between atoms: O_12  and  C_13
REMARK    5  A    between atoms: C_13  and  C_14
REMARK    6  A    between atoms: N_16  and  C_17
REMARK    7  A    between atoms: C_21  and  S_23
REMARK    8  A    between atoms: S_23  and  N_26
REMARK                            x       y       z     vdW  Elec       q    Type
REMARK                         _______ _______ _______ _____ _____    ______ ____
ROOT
ATOM      1  C   UNL     1      10.958   3.211  -0.672  0.00  0.00    +0.255 C 
ATOM      2  O   UNL     1      11.982   3.574  -1.213  0.00  0.00    -0.272 OA
ATOM      3  N   UNL     1      10.897   1.996  -0.093  0.00  0.00    -0.283 N 
ATOM      4  H   UNL     1      10.102   1.732   0.397  0.00  0.00    +0.155 HD
ENDROOT
BRANCH   3   5
ATOM      5  C   UNL     1      11.979   1.115  -0.198  0.00  0.00    +0.035 A 
ATOM      6  C   UNL     1      11.756  -0.252  -0.304  0.00  0.00    +0.023 A 
ATOM      7  C   UNL     1      12.826  -1.119  -0.408  0.00  0.00    +0.004 A 
ATOM      8  C   UNL     1      14.119  -0.627  -0.406  0.00  0.00    +0.029 A 
ATOM      9  C   UNL     1      14.344   0.733  -0.300  0.00  0.00    +0.114 A 
ATOM     10  C   UNL     1      13.278   1.606  -0.202  0.00  0.00    +0.052 A 
BRANCH   9  11
ATOM     11  S   UNL     1      15.993   1.354  -0.297  0.00  0.00    +0.100 S 
ATOM     12  O   UNL     1      15.952   2.613   0.361  0.00  0.00    -0.146 OA
ATOM     13  O   UNL     1      16.827   0.291   0.144  0.00  0.00    -0.146 OA
BRANCH  11  14
ATOM     14  N   UNL     1      16.405   1.657  -1.872  0.00  0.00    -0.118 NA
ATOM     15  C   UNL     1      17.576   2.125  -2.155  0.00  0.00    +0.117 C 
ATOM     16  C   UNL     1      18.659   2.432  -1.144  0.00  0.00    +0.074 C 
ATOM     17  C   UNL     1      19.949   2.546  -1.988  0.00  0.00    +0.026 C 
ATOM     18  C   UNL     1      19.395   2.939  -3.374  0.00  0.00    +0.103 C 
ATOM     19  N   UNL     1      18.026   2.412  -3.415  0.00  0.00    -0.331 N 
ATOM     20  H   UNL     1      17.508   2.287  -4.225  0.00  0.00    +0.147 HD
ENDBRANCH  11  14
ENDBRANCH   9  11
ENDBRANCH   3   5
BRANCH   1  21
ATOM     21  C   UNL     1       9.756   4.119  -0.649  0.00  0.00    +0.328 C 
BRANCH  21  22
ATOM     22  O   UNL     1      10.067   5.340  -1.323  0.00  0.00    -0.452 OA
BRANCH  22  23
ATOM     23  C   UNL     1       9.091   6.268  -1.391  0.00  0.00    +0.332 C 
ATOM     24  O   UNL     1       8.004   6.045  -0.891  0.00  0.00    -0.246 OA
BRANCH  23  26
ATOM     25  C   UNL     1       8.362   8.470  -2.134  0.00  0.00    +0.015 C 
ATOM     26  C   UNL     1       9.338   7.542  -2.066  0.00  0.00    +0.092 C 
BRANCH  25  29
ATOM     27  C   UNL     1       7.842  11.915  -3.523  0.00  0.00    +0.002 A 
ATOM     28  C   UNL     1       7.601  10.716  -2.886  0.00  0.00    +0.008 A 
ATOM     29  C   UNL     1       8.611   9.752  -2.813  0.00  0.00    -0.024 A 
ATOM     30  C   UNL     1       9.859  10.011  -3.388  0.00  0.00    +0.023 A 
ATOM     31  C   UNL     1      10.085  11.215  -4.022  0.00  0.00    +0.018 A 
ATOM     32  C   UNL     1       9.079  12.165  -4.090  0.00  0.00    +0.015 A 
ATOM     33 BR   UNL     1      11.771  11.570  -4.801  0.00  0.00    -0.050 Br
ENDBRANCH  25  29
ENDBRANCH  23  26
ENDBRANCH  22  23
ENDBRANCH  21  22
ENDBRANCH   1  21
TORSDOF 8
