REMARK  Name = ZINC17283107
REMARK  5 active torsions:
REMARK  status: ('A' for Active; 'I' for Inactive)
REMARK    1  A    between atoms: C_1  and  S_2
REMARK    2  A    between atoms: S_2  and  C_5
REMARK    3  A    between atoms: C_8  and  N_14
REMARK    4  A    between atoms: C_9  and  N_11
REMARK    5  A    between atoms: C_19  and  N_47
REMARK                            x       y       z     vdW  Elec       q    Type
REMARK                         _______ _______ _______ _____ _____    ______ ____
ROOT
ATOM      1  N   UNL     1       1.162   3.483   0.009  0.00  0.00    -0.332 N 
ATOM      2  C   UNL     1       1.751   4.022  -1.225  0.00  0.00    +0.086 C 
ATOM      3  C   UNL     1       1.643   5.549  -1.213  0.00  0.00    -0.059 C 
ATOM      4  C   UNL     1       1.746   5.538   1.205  0.00  0.00    -0.059 C 
ATOM      5  C   UNL     1       1.853   4.011   1.194  0.00  0.00    +0.086 C 
ATOM      6  N   UNL     1       2.361   6.068  -0.029  0.00  0.00    +0.385 N 
ATOM      7  H   UNL     1       3.340   5.763  -0.073  0.00  0.00    -0.081 HD
ENDROOT
BRANCH   6   8
ATOM      8  C   UNL     1       2.318   7.546  -0.021  0.00  0.00    -0.046 C 
ATOM      9  C   UNL     1       2.704   8.068  -1.415  0.00  0.00    +0.009 C 
ATOM     10  C   UNL     1       2.985   9.594  -1.300  0.00  0.00    +0.164 C 
ATOM     11  S   UNL     1       3.901   9.649   0.297  0.00  0.00    -0.033 S 
ATOM     12  O   UNL     1       5.294   9.556   0.034  0.00  0.00    -0.174 OA
ATOM     13  O   UNL     1       3.407  10.729   1.077  0.00  0.00    -0.174 OA
ATOM     14  C   UNL     1       3.324   8.066   1.034  0.00  0.00    +0.151 C 
ENDBRANCH   6   8
BRANCH   1  18
ATOM     15  C   UNL     1       1.208  -0.681  -0.013  0.00  0.00    +0.090 A 
ATOM     16  C   UNL     1       2.399   0.022  -0.021  0.00  0.00    +0.029 A 
ATOM     17  C   UNL     1       2.387   1.403  -0.014  0.00  0.00    +0.027 A 
ATOM     18  C   UNL     1       1.177   2.086   0.002  0.00  0.00    +0.060 A 
ATOM     19  C   UNL     1      -0.017   1.377   0.010  0.00  0.00    +0.149 A 
ATOM     20  C   UNL     1       0.002  -0.004   0.002  0.00  0.00    +0.061 A 
BRANCH  15  22
ATOM     21  C   UNL     1       1.216  -2.899  -1.779  0.00  0.00    +0.200 C 
ATOM     22  S   UNL     1       1.227  -2.442  -0.023  0.00  0.00    -0.006 S 
ATOM     23  O   UNL     1       2.471  -2.795   0.566  0.00  0.00    -0.170 OA
ATOM     24  O   UNL     1       0.002  -2.822   0.589  0.00  0.00    -0.170 OA
ENDBRANCH  15  22
BRANCH  19  25
ATOM     25  N   UNL     1      -1.308   2.100   0.020  0.00  0.00    +0.058 N 
ATOM     26  O   UNL     1      -2.355   1.478   0.021  0.00  0.00    -0.126 OA
ATOM     27  O   UNL     1      -1.324   3.318   0.026  0.00  0.00    -0.126 OA
ENDBRANCH  19  25
ENDBRANCH   1  18
TORSDOF 4
