REMARK  Name = ZINC20440596
REMARK  9 active torsions:
REMARK  status: ('A' for Active; 'I' for Inactive)
REMARK    1  A    between atoms: C_1  and  C_2
REMARK    2  A    between atoms: C_2  and  C_3
REMARK    3  A    between atoms: C_3  and  C_5
REMARK    4  A    between atoms: C_3  and  C_6
REMARK    5  A    between atoms: C_9  and  N_12
REMARK    6  A    between atoms: C_13  and  C_39
REMARK    7  A    between atoms: C_15  and  C_18
REMARK    8  A    between atoms: C_16  and  C_17
REMARK    9  A    between atoms: C_30  and  C_31
REMARK                            x       y       z     vdW  Elec       q    Type
REMARK                         _______ _______ _______ _____ _____    ______ ____
ROOT
ATOM      1  C   UNL     1       2.097  -9.294  -0.560  0.00  0.00    +0.026 C 
ATOM      2  C   UNL     1       1.550 -10.553  -0.418  0.00  0.00    +0.085 A 
ATOM      3  C   UNL     1       0.392 -10.810   0.482  0.00  0.00    +0.160 A 
ATOM      4  N   UNL     1      -0.559  -9.938   0.696  0.00  0.00    -0.281 NA
ATOM      5  N   UNL     1       0.422 -12.086   1.081  0.00  0.00    -0.212 N 
ATOM      6  C   UNL     1       1.124 -13.081   0.428  0.00  0.00    +0.199 A 
ATOM      7  N   UNL     1       1.879 -12.953  -0.628  0.00  0.00    -0.182 NA
ATOM      8  C   UNL     1       2.081 -11.723  -1.157  0.00  0.00    +0.283 A 
ATOM      9  O   UNL     1       2.684 -11.580  -2.207  0.00  0.00    -0.265 OA
ATOM     10  S   UNL     1       0.748 -14.530   1.379  0.00  0.00    -0.031 S 
ATOM     11  C   UNL     1      -0.218 -13.743   2.660  0.00  0.00    +0.101 A 
ATOM     12  N   UNL     1      -0.202 -12.424   2.264  0.00  0.00    -0.283 N 
ATOM     13  C   UNL     1      -0.816 -14.304   3.750  0.00  0.00    +0.102 C 
ATOM     14  H   UNL     1      -1.254 -10.128   1.346  0.00  0.00    +0.188 HD
ATOM     15  H   UNL     1      -0.624 -11.741   2.810  0.00  0.00    +0.188 HD
ENDROOT
BRANCH  13  16
ATOM     16  C   UNL     1      -1.538 -13.500   4.646  0.00  0.00    +0.242 C 
ATOM     17  O   UNL     1      -1.545 -12.289   4.509  0.00  0.00    -0.271 OA
ATOM     18  N   UNL     1      -2.224 -14.067   5.658  0.00  0.00    -0.298 N 
ATOM     19  C   UNL     1      -3.077 -13.252   6.534  0.00  0.00    +0.108 C 
ATOM     20  C   UNL     1      -4.482 -13.862   6.561  0.00  0.00    +0.019 C 
ATOM     21  C   UNL     1      -4.388 -15.334   6.968  0.00  0.00    +0.003 C 
ATOM     22  C   UNL     1      -3.549 -16.097   5.940  0.00  0.00    +0.019 C 
ATOM     23  C   UNL     1      -2.138 -15.514   5.903  0.00  0.00    +0.108 C 
ENDBRANCH  13  16
BRANCH   1  27
ATOM     24  N   UNL     1       1.229  -6.225   1.090  0.00  0.00    -0.317 N 
ATOM     25  C   UNL     1       0.866  -7.112   2.066  0.00  0.00    +0.022 A 
ATOM     26  C   UNL     1       1.115  -8.362   1.643  0.00  0.00    +0.031 A 
ATOM     27  C   UNL     1       1.678  -8.239   0.290  0.00  0.00    -0.003 A 
ATOM     28  C   UNL     1       1.713  -6.881   0.016  0.00  0.00    +0.028 A 
ATOM     29  C   UNL     1       2.208  -6.249  -1.259  0.00  0.00    +0.064 C 
ATOM     30  C   UNL     1       0.281  -6.744   3.405  0.00  0.00    +0.064 C 
BRANCH  24  34
ATOM     31  C   UNL     1       0.873  -2.083   1.387  0.00  0.00    -0.044 A 
ATOM     32  C   UNL     1      -0.260  -2.875   1.387  0.00  0.00    +0.006 A 
ATOM     33  C   UNL     1      -0.146  -4.248   1.288  0.00  0.00    +0.026 A 
ATOM     34  C   UNL     1       1.110  -4.833   1.189  0.00  0.00    +0.047 A 
ATOM     35  C   UNL     1       2.246  -4.035   1.189  0.00  0.00    +0.026 A 
ATOM     36  C   UNL     1       2.125  -2.663   1.283  0.00  0.00    +0.006 A 
BRANCH  31  37
ATOM     37  C   UNL     1       0.745  -0.586   1.493  0.00  0.00    +0.016 C 
ATOM     38  C   UNL     1       0.048  -0.226   2.807  0.00  0.00    +0.012 C 
BRANCH  37  40
ATOM     39  C   UNL     1      -0.107   1.470   0.357  0.00  0.00    +0.004 C 
ATOM     40  C   UNL     1      -0.081  -0.059   0.318  0.00  0.00    +0.004 C 
ENDBRANCH  37  40
ENDBRANCH  31  37
ENDBRANCH  24  34
ENDBRANCH   1  27
TORSDOF 5
