REMARK  Name = ZINC37061422
REMARK  5 active torsions:
REMARK  status: ('A' for Active; 'I' for Inactive)
REMARK    1  A    between atoms: C_1  and  C_2
REMARK    2  A    between atoms: C_3  and  N_11
REMARK    3  A    between atoms: C_7  and  N_8
REMARK    4  A    between atoms: N_11  and  C_12
REMARK    5  A    between atoms: N_21  and  C_22
REMARK                            x       y       z     vdW  Elec       q    Type
REMARK                         _______ _______ _______ _____ _____    ______ ____
ROOT
ATOM      1  N   UNL     1      -0.720  -0.045  -2.327  0.00  0.00    -0.337 N 
ATOM      2  H   UNL     1      -0.908   0.906  -2.297  0.00  0.00    +0.147 HD
ENDROOT
BRANCH   1   3
ATOM      3  C   UNL     1      -0.826  -0.773  -3.594  0.00  0.00    +0.104 C 
ATOM      4  C   UNL     1      -0.638   0.198  -4.766  0.00  0.00    +0.027 C 
ATOM      5  C   UNL     1      -1.002  -0.505  -6.076  0.00  0.00    +0.008 C 
ATOM      6  C   UNL     1      -2.518  -0.734  -6.131  0.00  0.00    +0.055 C 
ATOM      7  C   UNL     1      -2.948  -1.378  -4.837  0.00  0.00    +0.044 A 
ATOM      8  C   UNL     1      -2.195  -1.398  -3.708  0.00  0.00    +0.013 A 
ATOM      9  C   UNL     1      -2.909  -2.078  -2.724  0.00  0.00    +0.140 A 
ATOM     10  N   UNL     1      -4.053  -2.455  -3.241  0.00  0.00    -0.179 NA
ATOM     11  N   UNL     1      -4.098  -2.021  -4.575  0.00  0.00    -0.271 N 
ATOM     12  C   UNL     1      -5.202  -2.232  -5.515  0.00  0.00    +0.172 C 
ENDBRANCH   1   3
BRANCH   1  15
ATOM     13  C   UNL     1      -0.538   1.447   0.089  0.00  0.00    +0.048 C 
ATOM     14  C   UNL     1      -0.246  -0.031   0.040  0.00  0.00    +0.001 A 
ATOM     15  C   UNL     1      -0.348  -0.720  -1.163  0.00  0.00    +0.033 A 
ATOM     16  C   UNL     1      -0.078  -2.082  -1.204  0.00  0.00    +0.023 A 
ATOM     17  C   UNL     1       0.290  -2.746  -0.050  0.00  0.00    +0.004 A 
ATOM     18  C   UNL     1       0.389  -2.058   1.145  0.00  0.00    +0.033 A 
ATOM     19  C   UNL     1       0.127  -0.700   1.188  0.00  0.00    +0.131 A 
BRANCH  19  20
ATOM     20  N   UNL     1       0.241   0.034   2.468  0.00  0.00    +0.057 N 
ATOM     21  O   UNL     1       0.675   1.163   2.481  0.00  0.00    -0.126 OA
ATOM     22  O   UNL     1      -0.101  -0.494   3.500  0.00  0.00    -0.126 OA
ENDBRANCH  19  20
ENDBRANCH   1  15
TORSDOF 3
