REMARK  Name = ZINC40920117
REMARK  7 active torsions:
REMARK  status: ('A' for Active; 'I' for Inactive)
REMARK    1  A    between atoms: C_1  and  C_2
REMARK    2  A    between atoms: C_2  and  O_3
REMARK    3  A    between atoms: O_3  and  C_4
REMARK    4  A    between atoms: C_7  and  C_10
REMARK    5  A    between atoms: C_19  and  C_22
REMARK    6  A    between atoms: C_27  and  C_30
REMARK    7  A    between atoms: C_27  and  N_33
REMARK                            x       y       z     vdW  Elec       q    Type
REMARK                         _______ _______ _______ _____ _____    ______ ____
ROOT
ATOM      1  C   UNL     1       0.892  -7.043   2.759  0.00  0.00    +0.093 A 
ATOM      2  C   UNL     1      -0.496  -7.207   2.833  0.00  0.00    +0.033 A 
ATOM      3  C   UNL     1      -1.017  -8.456   2.550  0.00  0.00    +0.047 A 
ATOM      4  C   UNL     1      -0.127  -9.476   2.208  0.00  0.00    +0.144 A 
ATOM      5  N   UNL     1       1.174  -9.229   2.163  0.00  0.00    -0.134 NA
ATOM      6  N   UNL     1       1.660  -8.069   2.420  0.00  0.00    -0.147 NA
ATOM      7  N   UNL     1      -0.605 -10.748   1.916  0.00  0.00    -0.314 N 
ATOM      8  C   UNL     1       0.325 -11.851   1.634  0.00  0.00    +0.107 C 
ATOM      9  C   UNL     1      -0.054 -12.484   0.292  0.00  0.00    +0.032 C 
ATOM     10  C   UNL     1      -1.527 -12.897   0.326  0.00  0.00    +0.078 C 
ATOM     11  C   UNL     1      -2.401 -11.659   0.539  0.00  0.00    +0.032 C 
ATOM     12  C   UNL     1      -2.049 -11.018   1.890  0.00  0.00    +0.107 C 
ENDROOT
BRANCH  10  13
ATOM     13  C   UNL     1      -1.895 -13.552  -0.981  0.00  0.00    +0.219 C 
ATOM     14  O   UNL     1      -2.426 -12.902  -1.857  0.00  0.00    -0.275 OA
ATOM     15  N   UNL     1      -1.634 -14.860  -1.177  0.00  0.00    -0.301 N 
ATOM     16  C   UNL     1      -1.087 -15.684  -0.091  0.00  0.00    +0.107 C 
ATOM     17  C   UNL     1       0.184 -16.378  -0.590  0.00  0.00    +0.016 C 
ATOM     18  C   UNL     1      -0.133 -17.155  -1.871  0.00  0.00    +0.015 C 
ATOM     19  C   UNL     1      -0.611 -16.183  -2.953  0.00  0.00    +0.016 C 
ATOM     20  C   UNL     1      -1.896 -15.489  -2.478  0.00  0.00    +0.107 C 
BRANCH  18  21
ATOM     21  N   UNL     1       1.076 -17.848  -2.334  0.00  0.00    +0.389 N 
ATOM     22  C   UNL     1       1.520 -18.795  -1.304  0.00  0.00    -0.077 C 
ATOM     23  C   UNL     1       2.824 -19.462  -1.748  0.00  0.00    -0.019 C 
ATOM     24  C   UNL     1       2.587 -20.209  -3.063  0.00  0.00    -0.004 C 
ATOM     25  C   UNL     1       2.054 -19.226  -4.109  0.00  0.00    -0.019 C 
ATOM     26  C   UNL     1       0.778 -18.568  -3.578  0.00  0.00    -0.077 C 
ATOM     27  H   UNL     1       1.806 -17.173  -2.504  0.00  0.00    -0.080 HD
ENDBRANCH  18  21
BRANCH  18  28
ATOM     28  C   UNL     1      -1.215 -18.165  -1.590  0.00  0.00    +0.200 C 
ATOM     29  O   UNL     1      -1.477 -18.472  -0.446  0.00  0.00    -0.278 OA
ATOM     30  N   UNL     1      -1.892 -18.728  -2.610  0.00  0.00    -0.330 N 
ATOM     31  H   UNL     1      -1.643 -18.529  -3.526  0.00  0.00    +0.145 HD
ATOM     32  H   UNL     1      -2.629 -19.333  -2.429  0.00  0.00    +0.145 HD
ENDBRANCH  18  28
ENDBRANCH  10  13
BRANCH   1  36
ATOM     33  C   UNL     1       2.640  -3.257   3.598  0.00  0.00    +0.121 A 
ATOM     34  C   UNL     1       3.447  -4.330   3.245  0.00  0.00    +0.046 A 
ATOM     35  C   UNL     1       2.884  -5.559   2.972  0.00  0.00    +0.013 A 
ATOM     36  C   UNL     1       1.501  -5.723   3.052  0.00  0.00    +0.002 A 
ATOM     37  C   UNL     1       0.693  -4.644   3.408  0.00  0.00    +0.013 A 
ATOM     38  C   UNL     1       1.263  -3.419   3.684  0.00  0.00    +0.046 A 
BRANCH  33  39
ATOM     39  O   UNL     1       3.198  -2.048   3.866  0.00  0.00    -0.492 OA
BRANCH  39  41
ATOM     40  C   UNL     1       5.061  -0.526   4.095  0.00  0.00    +0.048 C 
ATOM     41  C   UNL     1       4.620  -1.952   3.759  0.00  0.00    +0.225 C 
ENDBRANCH  39  41
ENDBRANCH  33  39
ENDBRANCH   1  36
TORSDOF 6
