REMARK  Name = ZINC01814443
REMARK  5 active torsions:
REMARK  status: ('A' for Active; 'I' for Inactive)
REMARK    1  A    between atoms: C_4  and  C_7
REMARK    2  A    between atoms: N_8  and  N_9
REMARK    3  A    between atoms: C_10  and  C_12
REMARK    4  A    between atoms: C_12  and  N_68
REMARK    5  A    between atoms: C_19  and  C_29
REMARK                            x       y       z     vdW  Elec       q    Type
REMARK                         _______ _______ _______ _____ _____    ______ ____
ROOT
ATOM      1  C   UNL     1       5.409   7.886  -1.385  0.00  0.00    -0.055 C 
ATOM      2  C   UNL     1       6.728   8.630  -1.625  0.00  0.00    +0.103 C 
ATOM      3  N   UNL     1       7.583   8.440  -0.443  0.00  0.00    -0.347 N 
ATOM      4  C   UNL     1       8.918   8.659  -0.279  0.00  0.00    +0.049 A 
ATOM      5  C   UNL     1       9.905   9.097  -1.159  0.00  0.00    +0.027 A 
ATOM      6  C   UNL     1      11.189   9.222  -0.659  0.00  0.00    +0.006 A 
ATOM      7  C   UNL     1      11.499   8.930   0.659  0.00  0.00    -0.044 A 
ATOM      8  C   UNL     1      10.551   8.497   1.551  0.00  0.00    +0.014 A 
ATOM      9  C   UNL     1       9.242   8.356   1.078  0.00  0.00    +0.003 A 
ATOM     10  C   UNL     1       8.016   7.931   1.695  0.00  0.00    -0.020 A 
ATOM     11  C   UNL     1       7.067   7.986   0.739  0.00  0.00    +0.009 A 
ATOM     12  C   UNL     1       5.631   7.600   1.012  0.00  0.00    -0.020 C 
ATOM     13  C   UNL     1       5.236   8.173   2.364  0.00  0.00    -0.009 C 
ATOM     14  C   UNL     1       6.287   8.118   3.445  0.00  0.00    +0.003 C 
ATOM     15  C   UNL     1       7.625   7.492   3.079  0.00  0.00    +0.037 C 
ATOM     16  N   UNL     1       4.842   8.244  -0.068  0.00  0.00    +0.392 N 
ATOM     17  H   UNL     1       4.885   9.263   0.048  0.00  0.00    -0.080 HD
ENDROOT
BRANCH   7  18
ATOM     18  C   UNL     1      12.922   9.094   1.127  0.00  0.00    +0.019 C 
ATOM     19  C   UNL     1      13.354  10.550   0.944  0.00  0.00    +0.008 C 
ATOM     20  C   UNL     1      14.799  10.717   1.420  0.00  0.00    +0.001 C 
ATOM     21  C   UNL     1      15.714   9.806   0.599  0.00  0.00    +0.000 C 
ATOM     22  C   UNL     1      15.281   8.350   0.782  0.00  0.00    +0.001 C 
ATOM     23  C   UNL     1      13.837   8.183   0.306  0.00  0.00    +0.008 C 
ENDBRANCH   7  18
BRANCH  16  24
ATOM     24  C   UNL     1       3.430   7.810   0.010  0.00  0.00    +0.021 C 
BRANCH  24  26
ATOM     25  N   UNL     1       1.308   8.359  -1.137  0.00  0.00    -0.209 N 
ATOM     26  C   UNL     1       2.612   8.640  -0.946  0.00  0.00    +0.216 C 
ATOM     27  O   UNL     1       3.128   9.560  -1.545  0.00  0.00    -0.276 OA
ATOM     28  H   UNL     1       0.896   7.622  -0.658  0.00  0.00    +0.177 HD
BRANCH  25  30
ATOM     29  C   UNL     1      -0.708   8.859  -2.209  0.00  0.00    +0.138 C 
ATOM     30  N   UNL     1       0.548   9.130  -2.026  0.00  0.00    -0.188 NA
BRANCH  29  34
ATOM     31  C   UNL     1      -3.012  11.196  -4.901  0.00  0.00    +0.000 A 
ATOM     32  C   UNL     1      -3.603  10.146  -4.221  0.00  0.00    +0.001 A 
ATOM     33  C   UNL     1      -2.861   9.382  -3.344  0.00  0.00    +0.009 A 
ATOM     34  C   UNL     1      -1.508   9.671  -3.145  0.00  0.00    -0.005 A 
ATOM     35  C   UNL     1      -0.918  10.732  -3.836  0.00  0.00    +0.009 A 
ATOM     36  C   UNL     1      -1.673  11.487  -4.708  0.00  0.00    +0.001 A 
ENDBRANCH  29  34
ENDBRANCH  25  30
ENDBRANCH  24  26
ENDBRANCH  16  24
TORSDOF 5
