REMARK  Name = ZINC11904047
REMARK  4 active torsions:
REMARK  status: ('A' for Active; 'I' for Inactive)
REMARK    1  A    between atoms: C_1  and  C_2
REMARK    2  A    between atoms: N_8  and  C_11
REMARK    3  A    between atoms: C_14  and  S_17
REMARK    4  A    between atoms: S_17  and  N_20
REMARK                            x       y       z     vdW  Elec       q    Type
REMARK                         _______ _______ _______ _____ _____    ______ ____
ROOT
ATOM      1  C   UNL     1       5.710  -4.207  -5.447  0.00  0.00    +0.059 A 
ATOM      2  C   UNL     1       5.068  -3.155  -6.087  0.00  0.00    +0.027 A 
ATOM      3  C   UNL     1       4.975  -1.924  -5.467  0.00  0.00    +0.030 A 
ATOM      4  C   UNL     1       5.520  -1.739  -4.209  0.00  0.00    +0.106 A 
ATOM      5  C   UNL     1       6.165  -2.783  -3.572  0.00  0.00    +0.030 A 
ATOM      6  C   UNL     1       6.257  -4.017  -4.185  0.00  0.00    +0.027 A 
ENDROOT
BRANCH   1  13
ATOM      7  C   UNL     1       4.246  -8.294  -6.876  0.00  0.00    +0.019 C 
ATOM      8  C   UNL     1       5.214  -7.314  -7.542  0.00  0.00    +0.097 C 
ATOM      9  C   UNL     1       6.675  -7.723  -7.219  0.00  0.00    +0.201 C 
ATOM     10  S   UNL     1       6.975  -6.616  -5.781  0.00  0.00    +0.053 S 
ATOM     11  O   UNL     1       8.222  -5.946  -5.907  0.00  0.00    -0.155 OA
ATOM     12  O   UNL     1       6.595  -7.247  -4.566  0.00  0.00    -0.155 OA
ATOM     13  N   UNL     1       5.805  -5.455  -6.073  0.00  0.00    -0.144 N 
ATOM     14  C   UNL     1       4.972  -5.934  -7.008  0.00  0.00    +0.243 C 
ATOM     15  O   UNL     1       4.046  -5.265  -7.416  0.00  0.00    -0.273 OA
ENDBRANCH   1  13
BRANCH   4  16
ATOM     16  S   UNL     1       5.400  -0.168  -3.421  0.00  0.00    +0.061 S 
ATOM     17  O   UNL     1       5.234   0.793  -4.455  0.00  0.00    -0.153 OA
ATOM     18  O   UNL     1       6.465  -0.101  -2.483  0.00  0.00    -0.153 OA
BRANCH  16  19
ATOM     19  N   UNL     1       3.995  -0.167  -2.544  0.00  0.00    -0.176 NA
ATOM     20  C   UNL     1       3.986  -0.620  -1.146  0.00  0.00    +0.114 C 
ATOM     21  C   UNL     1       3.365   0.477  -0.276  0.00  0.00    +0.082 C 
ATOM     22  C   UNL     1       1.988   0.846  -0.831  0.00  0.00    +0.173 C 
ATOM     23  C   UNL     1       2.127   1.377  -2.259  0.00  0.00    +0.082 C 
ATOM     24  C   UNL     1       2.736   0.287  -3.148  0.00  0.00    +0.114 C 
ATOM     25  O   UNL     1       1.395   1.858  -0.001  0.00  0.00    -0.346 OA
ATOM     26  C   UNL     1      -0.019   1.545   0.011  0.00  0.00    +0.191 C 
ATOM     27  C   UNL     1       0.002  -0.004   0.002  0.00  0.00    +0.191 C 
ATOM     28  O   UNL     1       1.142  -0.310  -0.827  0.00  0.00    -0.346 OA
ENDBRANCH  16  19
ENDBRANCH   4  16
TORSDOF 3
