REMARK  Name = ZINC15670083
REMARK  6 active torsions:
REMARK  status: ('A' for Active; 'I' for Inactive)
REMARK    1  A    between atoms: C_1  and  C_2
REMARK    2  A    between atoms: C_5  and  C_8
REMARK    3  A    between atoms: C_17  and  C_19
REMARK    4  A    between atoms: C_20  and  C_26
REMARK    5  A    between atoms: C_31  and  O_32
REMARK    6  A    between atoms: O_32  and  C_33
REMARK                            x       y       z     vdW  Elec       q    Type
REMARK                         _______ _______ _______ _____ _____    ______ ____
ROOT
ATOM      1  C   UNL     1      -1.322   3.288   6.728  0.00  0.00    +0.095 A 
ATOM      2  C   UNL     1       0.008   3.233   7.158  0.00  0.00    +0.163 A 
ATOM      3  N   UNL     1       0.944   2.857   6.306  0.00  0.00    -0.152 NA
ATOM      4  N   UNL     1       0.639   2.540   5.097  0.00  0.00    -0.109 NA
ATOM      5  C   UNL     1      -0.612   2.589   4.662  0.00  0.00    +0.273 A 
ATOM      6  N   UNL     1      -1.598   2.957   5.467  0.00  0.00    -0.208 NA
ATOM      7  N   UNL     1      -0.896   2.241   3.342  0.00  0.00    -0.182 N 
ATOM      8  C   UNL     1      -0.000   1.848   2.411  0.00  0.00    +0.136 A 
ATOM      9  C   UNL     1      -0.692   1.578   1.261  0.00  0.00    +0.023 A 
ATOM     10  C   UNL     1      -2.035   1.838   1.497  0.00  0.00    +0.066 A 
ATOM     11  N   UNL     1      -2.165   2.237   2.740  0.00  0.00    -0.167 NA
ATOM     12  C   UNL     1      -3.152   1.689   0.496  0.00  0.00    +0.068 C 
ATOM     13  C   UNL     1      -0.013   1.086   0.008  0.00  0.00    +0.066 C 
ATOM     14  C   UNL     1       1.423   1.622  -0.003  0.00  0.00    +0.109 C 
ATOM     15  C   UNL     1       2.066   1.480   1.348  0.00  0.00    +0.219 C 
ATOM     16  O   UNL     1       3.237   1.169   1.411  0.00  0.00    -0.275 OA
ATOM     17  N   UNL     1       1.382   1.688   2.493  0.00  0.00    -0.270 N 
ATOM     18  H   UNL     1       1.839   1.725   3.347  0.00  0.00    +0.156 HD
ENDROOT
BRANCH   1  23
ATOM     19  C   UNL     1      -5.513   4.909  10.328  0.00  0.00    +0.044 C 
ATOM     20  C   UNL     1      -4.417   4.485   9.386  0.00  0.00    -0.050 A 
ATOM     21  C   UNL     1      -3.097   4.535   9.797  0.00  0.00    +0.004 A 
ATOM     22  C   UNL     1      -2.088   4.148   8.939  0.00  0.00    +0.010 A 
ATOM     23  C   UNL     1      -2.401   3.705   7.655  0.00  0.00    +0.002 A 
ATOM     24  C   UNL     1      -3.732   3.662   7.243  0.00  0.00    +0.010 A 
ATOM     25  C   UNL     1      -4.733   4.047   8.112  0.00  0.00    +0.004 A 
ENDBRANCH   1  23
BRANCH  13  26
ATOM     26  C   UNL     1      -0.753   1.590  -1.204  0.00  0.00    +0.002 A 
ATOM     27  C   UNL     1      -0.899   2.949  -1.409  0.00  0.00    +0.008 A 
ATOM     28  C   UNL     1      -1.577   3.413  -2.521  0.00  0.00    +0.001 A 
ATOM     29  C   UNL     1      -2.110   2.518  -3.431  0.00  0.00    +0.004 A 
ATOM     30  C   UNL     1      -1.967   1.159  -3.231  0.00  0.00    +0.046 A 
ATOM     31  C   UNL     1      -1.282   0.691  -2.118  0.00  0.00    +0.124 A 
BRANCH  31  32
ATOM     32  O   UNL     1      -1.135  -0.645  -1.922  0.00  0.00    -0.495 OA
ATOM     33  C   UNL     1      -1.706  -1.512  -2.904  0.00  0.00    +0.277 C 
ENDBRANCH  31  32
ENDBRANCH  13  26
TORSDOF 3
