REMARK  Name = ZINC12704038
REMARK  9 active torsions:
REMARK  status: ('A' for Active; 'I' for Inactive)
REMARK    1  A    between atoms: C_1  and  C_2
REMARK    2  A    between atoms: C_5  and  C_7
REMARK    3  A    between atoms: C_7  and  C_9
REMARK    4  A    between atoms: C_7  and  N_17
REMARK    5  A    between atoms: N_11  and  C_12
REMARK    6  A    between atoms: N_17  and  C_18
REMARK    7  A    between atoms: C_25  and  C_27
REMARK    8  A    between atoms: C_28  and  N_35
REMARK    9  A    between atoms: C_29  and  C_32
REMARK                            x       y       z     vdW  Elec       q    Type
REMARK                         _______ _______ _______ _____ _____    ______ ____
ROOT
ATOM      1  N   UNL     1      -4.072   1.261   1.957  0.00  0.00    -0.248 N 
ATOM      2  C   UNL     1      -5.387   1.013   2.125  0.00  0.00    +0.262 C 
ATOM      3  O   UNL     1      -5.936   1.322   3.167  0.00  0.00    -0.269 OA
ENDROOT
BRANCH   1   4
ATOM      4  C   UNL     1      -3.432   0.870   0.777  0.00  0.00    +0.038 A 
ATOM      5  C   UNL     1      -3.081  -0.460   0.585  0.00  0.00    +0.025 A 
ATOM      6  C   UNL     1      -2.453  -0.845  -0.584  0.00  0.00    +0.022 A 
ATOM      7  C   UNL     1      -2.164   0.095  -1.558  0.00  0.00    +0.041 A 
ATOM      8  C   UNL     1      -2.508   1.422  -1.366  0.00  0.00    +0.022 A 
ATOM      9  C   UNL     1      -3.141   1.811  -0.202  0.00  0.00    +0.025 A 
ATOM     10 CL   UNL     1      -1.369  -0.391  -3.022  0.00  0.00    -0.084 Cl
ENDBRANCH   1   4
BRANCH   2  11
ATOM     11  C   UNL     1      -6.153   0.372   1.055  0.00  0.00    +0.116 A 
ATOM     12  C   UNL     1      -7.476  -0.074   1.059  0.00  0.00    +0.076 A 
ATOM     13  C   UNL     1      -7.855  -0.633  -0.161  0.00  0.00    +0.155 A 
ATOM     14  N   UNL     1      -6.980  -0.693  -1.140  0.00  0.00    -0.203 NA
ATOM     15  S   UNL     1      -5.645  -0.053  -0.598  0.00  0.00    +0.019 S 
BRANCH  13  16
ATOM     16  C   UNL     1      -9.220  -1.156  -0.349  0.00  0.00    +0.262 C 
ATOM     17  O   UNL     1     -10.025  -1.097   0.561  0.00  0.00    -0.269 OA
ATOM     18  N   UNL     1      -9.577  -1.699  -1.530  0.00  0.00    -0.324 N 
ATOM     19  H   UNL     1      -8.936  -1.746  -2.256  0.00  0.00    +0.145 HD
ATOM     20  H   UNL     1     -10.476  -2.043  -1.654  0.00  0.00    +0.145 HD
ENDBRANCH  13  16
BRANCH  12  21
ATOM     21  N   UNL     1      -8.322   0.029   2.156  0.00  0.00    -0.355 N 
ATOM     22  H   UNL     1      -8.001   0.430   2.979  0.00  0.00    +0.142 HD
ATOM     23  H   UNL     1      -9.232  -0.299   2.099  0.00  0.00    +0.142 HD
ENDBRANCH  12  21
ENDBRANCH   2  11
BRANCH   1  24
ATOM     24  C   UNL     1      -3.315   1.941   3.011  0.00  0.00    +0.233 C 
BRANCH  24  29
ATOM     25  C   UNL     1       0.805  -0.914   2.456  0.00  0.00    +0.086 C 
ATOM     26  C   UNL     1      -0.289  -0.101   3.097  0.00  0.00    +0.102 A 
ATOM     27  C   UNL     1      -0.424   0.137   4.414  0.00  0.00    +0.045 A 
ATOM     28  C   UNL     1      -1.579   0.937   4.570  0.00  0.00    +0.047 A 
ATOM     29  C   UNL     1      -2.081   1.141   3.338  0.00  0.00    +0.135 A 
ATOM     30  O   UNL     1      -1.292   0.515   2.450  0.00  0.00    -0.462 OA
ENDBRANCH  24  29
BRANCH  24  31
ATOM     31  C   UNL     1      -2.913   3.313   2.535  0.00  0.00    +0.242 C 
ATOM     32  O   UNL     1      -3.611   3.909   1.742  0.00  0.00    -0.273 OA
ATOM     33  N   UNL     1      -1.777   3.878   2.990  0.00  0.00    -0.311 N 
ATOM     34  H   UNL     1      -1.218   3.402   3.624  0.00  0.00    +0.149 HD
BRANCH  33  35
ATOM     35  C   UNL     1      -1.386   5.212   2.527  0.00  0.00    +0.073 C 
ATOM     36  C   UNL     1      -0.554   5.099   1.232  0.00  0.00    +0.022 C 
ATOM     37  C   UNL     1       0.515   6.212   1.370  0.00  0.00    +0.002 C 
ATOM     38  C   UNL     1       0.867   6.164   2.877  0.00  0.00    +0.002 C 
ATOM     39  C   UNL     1      -0.482   5.889   3.572  0.00  0.00    +0.022 C 
ENDBRANCH  33  35
ENDBRANCH  24  31
ENDBRANCH   1  24
TORSDOF 8
