REMARK  Name = ZINC39792333
REMARK  9 active torsions:
REMARK  status: ('A' for Active; 'I' for Inactive)
REMARK    1  A    between atoms: C_1  and  C_2
REMARK    2  A    between atoms: C_2  and  C_3
REMARK    3  A    between atoms: C_2  and  C_4
REMARK    4  A    between atoms: C_2  and  C_5
REMARK    5  A    between atoms: C_8  and  C_11
REMARK    6  A    between atoms: N_13  and  N_14
REMARK    7  A    between atoms: C_15  and  C_17
REMARK    8  A    between atoms: C_17  and  C_18
REMARK    9  A    between atoms: C_18  and  C_19
REMARK                            x       y       z     vdW  Elec       q    Type
REMARK                         _______ _______ _______ _____ _____    ______ ____
ROOT
ATOM      1  N   UNL     1       4.637  -1.973  -6.106  0.00  0.00    -0.234 N 
ATOM      2  C   UNL     1       5.922  -1.633  -6.327  0.00  0.00    +0.229 C 
ATOM      3  O   UNL     1       6.511  -0.936  -5.528  0.00  0.00    -0.274 OA
ATOM      4  H   UNL     1       4.166  -2.530  -6.745  0.00  0.00    +0.173 HD
ENDROOT
BRANCH   1   7
ATOM      5  C   UNL     1       2.696  -1.860  -4.732  0.00  0.00    +0.260 C 
ATOM      6  O   UNL     1       2.106  -2.559  -5.533  0.00  0.00    -0.269 OA
ATOM      7  N   UNL     1       3.981  -1.521  -4.953  0.00  0.00    -0.230 N 
ATOM      8  H   UNL     1       4.452  -0.963  -4.314  0.00  0.00    +0.173 HD
BRANCH   5  12
ATOM      9  C   UNL     1       0.707  -0.490  -1.238  0.00  0.00    -0.042 A 
ATOM     10  C   UNL     1       0.033  -1.285  -2.147  0.00  0.00    +0.005 A 
ATOM     11  C   UNL     1       0.672  -1.733  -3.284  0.00  0.00    +0.013 A 
ATOM     12  C   UNL     1       2.004  -1.383  -3.516  0.00  0.00    +0.038 A 
ATOM     13  C   UNL     1       2.679  -0.581  -2.595  0.00  0.00    +0.013 A 
ATOM     14  C   UNL     1       2.025  -0.135  -1.464  0.00  0.00    +0.005 A 
BRANCH   9  16
ATOM     15  C   UNL     1      -0.019   1.526   0.010  0.00  0.00    +0.015 C 
ATOM     16  C   UNL     1       0.002  -0.004   0.002  0.00  0.00    -0.013 C 
ATOM     17  C   UNL     1       0.742  -0.511   1.242  0.00  0.00    +0.015 C 
ATOM     18  C   UNL     1      -1.433  -0.534   0.013  0.00  0.00    +0.015 C 
ENDBRANCH   9  16
ENDBRANCH   5  12
ENDBRANCH   1   7
BRANCH   2  19
ATOM     19  C   UNL     1       6.628  -2.119  -7.566  0.00  0.00    +0.105 C 
BRANCH  19  20
ATOM     20  C   UNL     1       8.065  -1.595  -7.574  0.00  0.00    +0.083 C 
BRANCH  20  21
ATOM     21  C   UNL     1       8.771  -2.082  -8.814  0.00  0.00    +0.124 C 
ATOM     22  N   UNL     1       8.101  -2.829  -9.657  0.00  0.00    -0.161 NA
ATOM     23  C   UNL     1       8.636  -3.306 -10.786  0.00  0.00    +0.271 C 
ATOM     24  O   UNL     1       7.985  -4.002 -11.546  0.00  0.00    -0.268 OA
ATOM     25  C   UNL     1      10.062  -2.958 -11.086  0.00  0.00    +0.071 C 
ATOM     26  C   UNL     1      10.777  -3.271 -12.182  0.00  0.00    -0.042 C 
ATOM     27  C   UNL     1      10.184  -3.922 -13.428  0.00  0.00    +0.033 C 
ATOM     28  C   UNL     1      10.539  -3.014 -14.613  0.00  0.00    +0.004 C 
ATOM     29  C   UNL     1      12.042  -2.748 -14.644  0.00  0.00    +0.002 C 
ATOM     30  C   UNL     1      12.487  -1.987 -13.392  0.00  0.00    +0.019 C 
ATOM     31  C   UNL     1      12.250  -2.877 -12.169  0.00  0.00    +0.079 C 
ATOM     32  S   UNL     1      12.365  -1.879 -10.636  0.00  0.00    -0.097 S 
ATOM     33  C   UNL     1      10.706  -2.119 -10.053  0.00  0.00    +0.111 C 
ATOM     34  N   UNL     1      10.033  -1.728  -8.997  0.00  0.00    -0.227 NA
ENDBRANCH  20  21
ENDBRANCH  19  20
ENDBRANCH   2  19
TORSDOF 6
