REMARK  Name = ZINC09266113
REMARK  7 active torsions:
REMARK  status: ('A' for Active; 'I' for Inactive)
REMARK    1  A    between atoms: C_1  and  C_2
REMARK    2  A    between atoms: N_5  and  C_7
REMARK    3  A    between atoms: C_18  and  C_23
REMARK    4  A    between atoms: C_23  and  O_24
REMARK    5  A    between atoms: O_24  and  N_25
REMARK    6  A    between atoms: C_26  and  C_27
REMARK    7  A    between atoms: C_33  and  C_35
REMARK                            x       y       z     vdW  Elec       q    Type
REMARK                         _______ _______ _______ _____ _____    ______ ____
ROOT
ATOM      1  C   UNL     1       8.642  -0.566   5.887  0.00  0.00    +0.068 C 
ATOM      2  C   UNL     1       9.297  -1.167   4.670  0.00  0.00    +0.068 A 
ATOM      3  C   UNL     1       8.750  -1.223   3.395  0.00  0.00    +0.052 A 
ATOM      4  C   UNL     1       9.649  -1.841   2.572  0.00  0.00    +0.230 A 
ATOM      5  N   UNL     1      10.729  -2.160   3.320  0.00  0.00    -0.200 N 
ATOM      6  N   UNL     1      10.483  -1.727   4.632  0.00  0.00    -0.168 NA
ATOM      7  O   UNL     1       9.415  -2.051   1.256  0.00  0.00    -0.419 OA
ATOM      8  C   UNL     1       8.393  -1.375   0.666  0.00  0.00    +0.232 A 
ATOM      9  C   UNL     1       7.431  -0.734   1.399  0.00  0.00    +0.074 A 
ATOM     10  C   UNL     1       6.427  -0.066   0.677  0.00  0.00    +0.167 A 
ATOM     11  N   UNL     1       5.382   0.638   1.043  0.00  0.00    -0.207 NA
ATOM     12  C   UNL     1       4.732   1.065  -0.037  0.00  0.00    +0.192 A 
ATOM     13  N   UNL     1       5.351   0.650  -1.122  0.00  0.00    -0.145 NA
ATOM     14  N   UNL     1       6.452  -0.084  -0.706  0.00  0.00    -0.201 N 
ATOM     15  C   UNL     1       7.433  -0.740  -1.374  0.00  0.00    +0.229 A 
ATOM     16  N   UNL     1       8.356  -1.354  -0.678  0.00  0.00    -0.201 NA
ATOM     17  C   UNL     1       7.417  -0.723   2.903  0.00  0.00    +0.131 C 
ENDROOT
BRANCH   5  18
ATOM     18  C   UNL     1      11.886  -2.808   2.866  0.00  0.00    +0.069 A 
ATOM     19  C   UNL     1      11.797  -3.787   1.886  0.00  0.00    +0.028 A 
ATOM     20  C   UNL     1      12.940  -4.419   1.437  0.00  0.00    +0.002 A 
ATOM     21  C   UNL     1      14.171  -4.086   1.971  0.00  0.00    +0.000 A 
ATOM     22  C   UNL     1      14.263  -3.114   2.950  0.00  0.00    +0.002 A 
ATOM     23  C   UNL     1      13.124  -2.475   3.400  0.00  0.00    +0.028 A 
ENDBRANCH   5  18
BRANCH  17  24
ATOM     24  C   UNL     1       6.317  -1.622   3.406  0.00  0.00    +0.117 A 
ATOM     25  C   UNL     1       5.279  -1.242   4.172  0.00  0.00    +0.045 A 
ATOM     26  C   UNL     1       4.498  -2.397   4.406  0.00  0.00    +0.041 A 
ATOM     27  C   UNL     1       5.106  -3.414   3.769  0.00  0.00    +0.195 A 
ATOM     28  O   UNL     1       6.204  -2.938   3.160  0.00  0.00    -0.467 OA
ENDBRANCH  17  24
BRANCH  12  29
ATOM     29  C   UNL     1       3.479   1.902  -0.021  0.00  0.00    +0.340 C 
BRANCH  29  30
ATOM     30  O   UNL     1       2.334   1.046  -0.015  0.00  0.00    -0.386 OA
BRANCH  30  31
ATOM     31  N   UNL     1       1.099   1.738   0.001  0.00  0.00    -0.092 NA
ATOM     32  C   UNL     1      -0.013   1.076   0.008  0.00  0.00    +0.160 C 
BRANCH  32  33
ATOM     33  C   UNL     1      -1.301   1.797   0.018  0.00  0.00    -0.004 A 
ATOM     34  C   UNL     1      -1.324   3.192   0.032  0.00  0.00    +0.009 A 
ATOM     35  C   UNL     1      -2.531   3.860   0.035  0.00  0.00    +0.001 A 
ATOM     36  C   UNL     1      -3.718   3.148   0.037  0.00  0.00    +0.000 A 
ATOM     37  C   UNL     1      -3.703   1.765   0.029  0.00  0.00    +0.001 A 
ATOM     38  C   UNL     1      -2.502   1.085   0.020  0.00  0.00    +0.009 A 
ENDBRANCH  32  33
ENDBRANCH  30  31
ENDBRANCH  29  30
ENDBRANCH  12  29
TORSDOF 6
