REMARK  Name = ZINC22691242
REMARK  7 active torsions:
REMARK  status: ('A' for Active; 'I' for Inactive)
REMARK    1  A    between atoms: C_3  and  C_18
REMARK    2  A    between atoms: C_5  and  S_7
REMARK    3  A    between atoms: S_7  and  N_10
REMARK    4  A    between atoms: N_10  and  C_11
REMARK    5  A    between atoms: C_11  and  C_12
REMARK    6  A    between atoms: N_20  and  C_21
REMARK    7  A    between atoms: C_24  and  N_28
REMARK                            x       y       z     vdW  Elec       q    Type
REMARK                         _______ _______ _______ _____ _____    ______ ____
ROOT
ATOM      1  C   UNL     1       1.179   1.781   0.024  0.00  0.00    +0.003 A 
ATOM      2  C   UNL     1       1.167   3.160   0.024  0.00  0.00    +0.013 A 
ATOM      3  C   UNL     1      -0.050   3.845   0.029  0.00  0.00    +0.039 A 
ATOM      4  C   UNL     1      -1.247   3.127   0.035  0.00  0.00    +0.041 A 
ATOM      5  C   UNL     1      -1.221   1.748   0.029  0.00  0.00    +0.106 A 
ATOM      6  C   UNL     1      -0.012   1.076   0.030  0.00  0.00    +0.028 A 
ENDROOT
BRANCH   3   7
ATOM      7  C   UNL     1      -0.070   5.323   0.029  0.00  0.00    +0.248 C 
ATOM      8  O   UNL     1      -1.131   5.916   0.033  0.00  0.00    -0.270 OA
ATOM      9  N   UNL     1       1.088   6.013   0.023  0.00  0.00    -0.281 N 
ATOM     10  H   UNL     1       2.047   5.478   0.096  0.00  0.00    +0.155 HD
BRANCH   9  11
ATOM     11  C   UNL     1       1.070   7.410  -0.075  0.00  0.00    +0.037 A 
ATOM     12  C   UNL     1       2.073   8.069  -0.774  0.00  0.00    +0.045 A 
ATOM     13  C   UNL     1       2.053   9.447  -0.875  0.00  0.00    +0.065 A 
ATOM     14  C   UNL     1       1.036  10.173  -0.270  0.00  0.00    +0.062 A 
ATOM     15  C   UNL     1       0.035   9.514   0.433  0.00  0.00    +0.065 A 
ATOM     16  C   UNL     1       0.053   8.135   0.530  0.00  0.00    +0.045 A 
ATOM     17 CL   UNL     1      -1.237  10.421   1.190  0.00  0.00    -0.082 Cl
ATOM     18 CL   UNL     1       3.304  10.271  -1.754  0.00  0.00    -0.082 Cl
BRANCH  14  19
ATOM     19  N   UNL     1       1.018  11.570  -0.368  0.00  0.00    -0.356 N 
ATOM     20  H   UNL     1       0.212  12.145   0.112  0.00  0.00    +0.142 HD
ATOM     21  H   UNL     1       1.810  12.092  -0.925  0.00  0.00    +0.142 HD
ENDBRANCH  14  19
ENDBRANCH   9  11
ENDBRANCH   3   7
BRANCH   5  22
ATOM     22  S   UNL     1      -2.732   0.840   0.029  0.00  0.00    +0.059 S 
ATOM     23  O   UNL     1      -3.721   1.698  -0.522  0.00  0.00    -0.153 OA
ATOM     24  O   UNL     1      -2.438  -0.436  -0.522  0.00  0.00    -0.153 OA
BRANCH  22  25
ATOM     25  N   UNL     1      -3.152   0.588   1.611  0.00  0.00    -0.187 NA
ATOM     26  H   UNL     1      -3.015  -0.411   2.050  0.00  0.00    +0.148 HD
BRANCH  25  27
ATOM     27  C   UNL     1      -3.491   1.726   2.469  0.00  0.00    +0.137 C 
BRANCH  27  28
ATOM     28  C   UNL     1      -4.189   1.221   3.733  0.00  0.00    +0.134 C 
ATOM     29  C   UNL     1      -4.668   2.411   4.594  0.00  0.00    +0.035 C 
ATOM     30  C   UNL     1      -4.436   1.940   6.047  0.00  0.00    +0.031 C 
ATOM     31  C   UNL     1      -3.844   0.521   5.892  0.00  0.00    +0.160 C 
ATOM     32  O   UNL     1      -3.255   0.509   4.573  0.00  0.00    -0.375 OA
ENDBRANCH  27  28
ENDBRANCH  25  27
ENDBRANCH  22  25
ENDBRANCH   5  22
TORSDOF 7
