REMARK  Name = ZINC35302717
REMARK  7 active torsions:
REMARK  status: ('A' for Active; 'I' for Inactive)
REMARK    1  A    between atoms: C_4  and  C_7
REMARK    2  A    between atoms: C_7  and  C_8
REMARK    3  A    between atoms: C_8  and  C_10
REMARK    4  A    between atoms: C_8  and  N_27
REMARK    5  A    between atoms: C_16  and  C_18
REMARK    6  A    between atoms: C_28  and  C_30
REMARK    7  A    between atoms: C_33  and  N_36
REMARK                            x       y       z     vdW  Elec       q    Type
REMARK                         _______ _______ _______ _____ _____    ______ ____
ROOT
ATOM      1  C   UNL     1       4.171  -0.963   1.399  0.00  0.00    +0.164 C 
ENDROOT
BRANCH   1   2
ATOM      2  C   UNL     1       5.543  -1.588   1.383  0.00  0.00    +0.239 C 
ATOM      3  O   UNL     1       5.715  -2.683   1.875  0.00  0.00    -0.273 OA
ATOM      4  N   UNL     1       6.577  -0.931   0.823  0.00  0.00    -0.262 N 
ATOM      5  C   UNL     1       7.841  -1.507   0.808  0.00  0.00    +0.188 A 
ATOM      6  N   UNL     1       8.249  -2.679   1.276  0.00  0.00    -0.125 NA
ATOM      7  N   UNL     1       9.449  -3.055   1.180  0.00  0.00    -0.140 NA
ATOM      8  C   UNL     1      10.376  -2.300   0.604  0.00  0.00    +0.134 A 
ATOM      9  S   UNL     1       9.383  -0.882   0.145  0.00  0.00    -0.030 S 
ATOM     10  H   UNL     1       6.438  -0.055   0.429  0.00  0.00    +0.157 HD
BRANCH   8  11
ATOM     11  C   UNL     1      11.816  -2.558   0.395  0.00  0.00    +0.013 A 
ATOM     12  C   UNL     1      12.613  -1.603  -0.239  0.00  0.00    +0.014 A 
ATOM     13  C   UNL     1      13.957  -1.845  -0.433  0.00  0.00    +0.050 A 
ATOM     14  C   UNL     1      14.521  -3.036   0.001  0.00  0.00    +0.166 A 
ATOM     15  C   UNL     1      13.731  -3.993   0.635  0.00  0.00    +0.167 A 
ATOM     16  C   UNL     1      12.384  -3.753   0.837  0.00  0.00    +0.060 A 
ATOM     17  O   UNL     1      14.517  -5.061   0.961  0.00  0.00    -0.453 OA
ATOM     18  C   UNL     1      15.704  -4.924   0.158  0.00  0.00    +0.466 C 
ATOM     19  O   UNL     1      15.802  -3.505  -0.069  0.00  0.00    -0.453 OA
ENDBRANCH   8  11
ENDBRANCH   1   2
BRANCH   1  20
ATOM     20  N   UNL     1       3.229  -1.870   2.059  0.00  0.00    -0.300 N 
ATOM     21  C   UNL     1       2.116  -1.379   2.640  0.00  0.00    +0.245 C 
ATOM     22  O   UNL     1       1.895  -0.184   2.616  0.00  0.00    -0.270 OA
ATOM     23  H   UNL     1       3.406  -2.823   2.078  0.00  0.00    +0.150 HD
BRANCH  21  24
ATOM     24  C   UNL     1       1.165  -2.294   3.307  0.00  0.00    +0.037 A 
ATOM     25  C   UNL     1       1.419  -3.666   3.341  0.00  0.00    +0.015 A 
ATOM     26  C   UNL     1       0.528  -4.514   3.965  0.00  0.00    +0.033 A 
ATOM     27  C   UNL     1      -0.616  -4.008   4.556  0.00  0.00    +0.126 A 
ATOM     28  C   UNL     1      -0.874  -2.648   4.525  0.00  0.00    +0.033 A 
ATOM     29  C   UNL     1       0.012  -1.789   3.909  0.00  0.00    +0.015 A 
BRANCH  27  30
ATOM     30  N   UNL     1      -1.568  -4.923   5.223  0.00  0.00    +0.056 N 
ATOM     31  O   UNL     1      -1.345  -6.111   5.251  0.00  0.00    -0.126 OA
ATOM     32  O   UNL     1      -2.569  -4.484   5.740  0.00  0.00    -0.126 OA
ENDBRANCH  27  30
ENDBRANCH  21  24
ENDBRANCH   1  20
BRANCH   1  33
ATOM     33  C   UNL     1       3.711  -0.707  -0.038  0.00  0.00    +0.067 C 
BRANCH  33  37
ATOM     34  C   UNL     1      -0.017   1.378   0.010  0.00  0.00    +0.000 A 
ATOM     35  C   UNL     1       1.171   2.086   0.002  0.00  0.00    +0.000 A 
ATOM     36  C   UNL     1       2.377   1.411  -0.013  0.00  0.00    +0.004 A 
ATOM     37  C   UNL     1       2.396   0.029  -0.020  0.00  0.00    -0.045 A 
ATOM     38  C   UNL     1       1.208  -0.679  -0.012  0.00  0.00    +0.004 A 
ATOM     39  C   UNL     1       0.002  -0.004   0.002  0.00  0.00    +0.000 A 
ENDBRANCH  33  37
ENDBRANCH   1  33
TORSDOF 7
