REMARK  Name = ZINC58929265
REMARK  3 active torsions:
REMARK  status: ('A' for Active; 'I' for Inactive)
REMARK    1  A    between atoms: C_4  and  N_25
REMARK    2  A    between atoms: C_5  and  C_7
REMARK    3  A    between atoms: C_20  and  C_23
REMARK                            x       y       z     vdW  Elec       q    Type
REMARK                         _______ _______ _______ _____ _____    ______ ____
ROOT
ATOM      1  C   UNL     1       1.194  -2.151  -0.451  0.00  0.00    +0.107 C 
ATOM      2  C   UNL     1       1.636  -2.415  -1.875  0.00  0.00    +0.029 C 
ATOM      3  C   UNL     1       3.185  -2.536  -1.885  0.00  0.00    +0.033 C 
ATOM      4  C   UNL     1       3.443  -4.017  -1.717  0.00  0.00    -0.030 C 
ATOM      5  C   UNL     1       2.369  -4.713  -1.996  0.00  0.00    -0.023 C 
ATOM      6  C   UNL     1       1.225  -3.788  -2.402  0.00  0.00    +0.049 C 
ATOM      7  C   UNL     1      -0.103  -4.264  -1.919  0.00  0.00    -0.018 A 
ATOM      8  C   UNL     1      -0.718  -5.322  -2.574  0.00  0.00    +0.006 A 
ATOM      9  C   UNL     1      -1.955  -5.786  -2.166  0.00  0.00    +0.002 A 
ATOM     10  C   UNL     1      -2.604  -5.200  -1.100  0.00  0.00    +0.021 A 
ATOM     11  C   UNL     1      -2.001  -4.137  -0.426  0.00  0.00    +0.073 A 
ATOM     12  C   UNL     1      -0.737  -3.677  -0.836  0.00  0.00    +0.049 A 
ATOM     13  N   UNL     1      -0.119  -2.668  -0.134  0.00  0.00    -0.335 N 
ATOM     14  H   UNL     1      -0.606  -2.268   0.604  0.00  0.00    +0.147 HD
ENDROOT
BRANCH   1  19
ATOM     15  C   UNL     1       1.077   1.570  -1.075  0.00  0.00    +0.000 A 
ATOM     16  C   UNL     1       1.190   2.069   0.210  0.00  0.00    +0.002 A 
ATOM     17  C   UNL     1       1.304   1.202   1.280  0.00  0.00    +0.033 A 
ATOM     18  C   UNL     1       1.305  -0.164   1.067  0.00  0.00    +0.131 A 
ATOM     19  C   UNL     1       1.192  -0.662  -0.218  0.00  0.00    +0.003 A 
ATOM     20  C   UNL     1       1.079   0.205  -1.288  0.00  0.00    +0.008 A 
BRANCH  18  21
ATOM     21  N   UNL     1       1.429  -1.093   2.213  0.00  0.00    +0.057 N 
ATOM     22  O   UNL     1       1.641  -0.659   3.321  0.00  0.00    -0.126 OA
ATOM     23  O   UNL     1       1.317  -2.284   2.040  0.00  0.00    -0.126 OA
ENDBRANCH  18  21
ENDBRANCH   1  19
BRANCH  11  24
ATOM     24  C   UNL     1      -2.667  -3.517   0.679  0.00  0.00    +0.101 C 
ATOM     25  N   UNL     1      -3.196  -3.024   1.556  0.00  0.00    -0.191 NA
ENDBRANCH  11  24
TORSDOF 3
