REMARK  Name = ZINC39674316
REMARK  9 active torsions:
REMARK  status: ('A' for Active; 'I' for Inactive)
REMARK    1  A    between atoms: C_1  and  C_2
REMARK    2  A    between atoms: C_3  and  C_14
REMARK    3  A    between atoms: C_4  and  C_7
REMARK    4  A    between atoms: C_18  and  C_27
REMARK    5  A    between atoms: N_29  and  C_30
REMARK    6  A    between atoms: C_30  and  C_32
REMARK    7  A    between atoms: C_30  and  C_33
REMARK    8  A    between atoms: C_34  and  C_40
REMARK    9  A    between atoms: C_37  and  C_39
REMARK                            x       y       z     vdW  Elec       q    Type
REMARK                         _______ _______ _______ _____ _____    ______ ____
ROOT
ATOM      1  C   UNL     1      -3.051   0.066  -0.120  0.00  0.00    +0.252 C 
ATOM      2  O   UNL     1      -3.743   0.282  -1.097  0.00  0.00    -0.270 OA
ATOM      3  N   UNL     1      -3.591   0.122   1.114  0.00  0.00    -0.296 N 
ATOM      4  C   UNL     1      -2.913  -0.102   2.412  0.00  0.00    +0.121 C 
ATOM      5  C   UNL     1      -3.521   0.958   3.358  0.00  0.00    +0.100 C 
ATOM      6  C   UNL     1      -4.888   1.296   2.741  0.00  0.00    -0.004 C 
ATOM      7  C   UNL     1      -4.995   0.428   1.478  0.00  0.00    +0.115 C 
ATOM      8  C   UNL     1      -6.009   0.951   3.717  0.00  0.00    -0.010 C 
ATOM      9  C   UNL     1      -7.354   1.350   3.104  0.00  0.00    -0.082 C 
ATOM     10  N   UNL     1      -7.356   2.789   2.816  0.00  0.00    +0.379 N 
ATOM     11  C   UNL     1      -6.336   3.099   1.806  0.00  0.00    -0.082 C 
ATOM     12  C   UNL     1      -4.948   2.774   2.364  0.00  0.00    -0.010 C 
ATOM     13  H   UNL     1      -8.264   3.061   2.469  0.00  0.00    -0.086 HD
ATOM     14  H   UNL     1      -7.155   3.300   3.663  0.00  0.00    -0.086 HD
ENDROOT
BRANCH   1  17
ATOM     15  C   UNL     1      -0.703   2.127  -0.188  0.00  0.00    +0.090 C 
ATOM     16  C   UNL     1      -0.588   0.630  -0.317  0.00  0.00    +0.147 A 
ATOM     17  C   UNL     1      -1.624  -0.257  -0.286  0.00  0.00    +0.106 A 
ATOM     18  C   UNL     1      -1.040  -1.597  -0.448  0.00  0.00    +0.127 A 
ATOM     19  N   UNL     1       0.254  -1.437  -0.562  0.00  0.00    -0.077 NA
ATOM     20  O   UNL     1       0.545  -0.056  -0.487  0.00  0.00    -0.359 OA
BRANCH  18  21
ATOM     21  C   UNL     1      -1.778  -2.884  -0.478  0.00  0.00    +0.023 A 
ATOM     22  C   UNL     1      -3.166  -2.898  -0.349  0.00  0.00    +0.011 A 
ATOM     23  C   UNL     1      -3.846  -4.098  -0.378  0.00  0.00    +0.001 A 
ATOM     24  C   UNL     1      -3.155  -5.286  -0.533  0.00  0.00    +0.001 A 
ATOM     25  C   UNL     1      -1.778  -5.279  -0.661  0.00  0.00    +0.020 A 
ATOM     26  C   UNL     1      -1.086  -4.083  -0.640  0.00  0.00    +0.050 A 
ATOM     27 CL   UNL     1       0.642  -4.075  -0.808  0.00  0.00    -0.083 Cl
ENDBRANCH  18  21
ENDBRANCH   1  17
BRANCH   5  28
ATOM     28  C   UNL     1      -3.694   0.389   4.742  0.00  0.00    +0.219 C 
ATOM     29  O   UNL     1      -3.955  -0.786   4.887  0.00  0.00    -0.275 OA
ATOM     30  N   UNL     1      -3.558   1.186   5.821  0.00  0.00    -0.309 N 
ATOM     31  H   UNL     1      -3.350   2.127   5.705  0.00  0.00    +0.149 HD
BRANCH  30  32
ATOM     32  C   UNL     1      -3.727   0.633   7.167  0.00  0.00    +0.100 C 
ATOM     33  C   UNL     1      -5.211   0.633   7.536  0.00  0.00    +0.033 C 
BRANCH  32  34
ATOM     34  C   UNL     1      -2.963   1.476   8.155  0.00  0.00    -0.001 C 
ATOM     35  C   UNL     1      -2.064   1.075   9.057  0.00  0.00    +0.063 C 
ATOM     36  N   UNL     1      -1.594   2.125   9.766  0.00  0.00    -0.159 NA
ATOM     37  N   UNL     1      -2.075   3.215   9.447  0.00  0.00    -0.180 NA
ATOM     38  C   UNL     1      -3.033   2.980   8.353  0.00  0.00    +0.154 C 
ATOM     39  C   UNL     1      -4.442   3.407   8.769  0.00  0.00    +0.039 C 
ATOM     40  C   UNL     1      -1.633  -0.355   9.257  0.00  0.00    +0.067 C 
ENDBRANCH  32  34
ENDBRANCH  30  32
ENDBRANCH   5  28
TORSDOF 5
