REMARK  Name = ZINC38633475
REMARK  7 active torsions:
REMARK  status: ('A' for Active; 'I' for Inactive)
REMARK    1  A    between atoms: C_1  and  C_2
REMARK    2  A    between atoms: C_5  and  S_8
REMARK    3  A    between atoms: S_8  and  N_11
REMARK    4  A    between atoms: N_18  and  S_21
REMARK    5  A    between atoms: S_21  and  C_24
REMARK    6  A    between atoms: C_25  and  C_30
REMARK    7  A    between atoms: C_28  and  C_29
REMARK                            x       y       z     vdW  Elec       q    Type
REMARK                         _______ _______ _______ _____ _____    ______ ____
ROOT
ATOM      1  N   UNL     1       1.625  -5.065  -0.153  0.00  0.00    -0.144 NA
ATOM      2  C   UNL     1       2.403  -5.245  -1.399  0.00  0.00    +0.140 C 
ATOM      3  C   UNL     1       3.868  -5.212  -0.896  0.00  0.00    +0.179 C 
ATOM      4  O   UNL     1       3.771  -5.881   0.383  0.00  0.00    -0.356 OA
ATOM      5  C   UNL     1       2.522  -5.450   0.947  0.00  0.00    +0.144 C 
ATOM      6  C   UNL     1       2.758  -4.249   1.863  0.00  0.00    +0.070 C 
ATOM      7  C   UNL     1       1.418  -3.777   2.437  0.00  0.00    +0.113 C 
ATOM      8  N   UNL     1       0.754  -4.916   3.086  0.00  0.00    -0.176 NA
ATOM      9  C   UNL     1       0.551  -6.149   2.313  0.00  0.00    +0.113 C 
ATOM     10  C   UNL     1       1.899  -6.600   1.740  0.00  0.00    +0.070 C 
ENDROOT
BRANCH   1  11
ATOM     11  S   UNL     1       0.063  -4.530  -0.023  0.00  0.00    +0.063 S 
ATOM     12  O   UNL     1      -0.229  -4.463   1.366  0.00  0.00    -0.153 OA
ATOM     13  O   UNL     1      -0.709  -5.309  -0.927  0.00  0.00    -0.153 OA
BRANCH  11  18
ATOM     14  C   UNL     1      -0.064   1.138  -2.087  0.00  0.00    +0.044 C 
ATOM     15  C   UNL     1      -0.032  -0.278  -1.571  0.00  0.00    -0.050 A 
ATOM     16  C   UNL     1      -0.087  -1.337  -2.457  0.00  0.00    +0.005 A 
ATOM     17  C   UNL     1      -0.058  -2.636  -1.984  0.00  0.00    +0.029 A 
ATOM     18  C   UNL     1       0.027  -2.875  -0.626  0.00  0.00    +0.106 A 
ATOM     19  C   UNL     1       0.083  -1.815   0.260  0.00  0.00    +0.029 A 
ATOM     20  C   UNL     1       0.058  -0.517  -0.213  0.00  0.00    +0.005 A 
ENDBRANCH  11  18
ENDBRANCH   1  11
BRANCH   8  21
ATOM     21  S   UNL     1       0.244  -4.812   4.658  0.00  0.00    +0.066 S 
ATOM     22  O   UNL     1       0.181  -6.143   5.153  0.00  0.00    -0.153 OA
ATOM     23  O   UNL     1       1.035  -3.807   5.275  0.00  0.00    -0.153 OA
BRANCH  21  24
ATOM     24  C   UNL     1      -1.410  -4.207   4.630  0.00  0.00    +0.170 A 
ATOM     25  C   UNL     1      -1.794  -2.854   4.667  0.00  0.00    +0.107 A 
ATOM     26  N   UNL     1      -3.096  -2.803   4.630  0.00  0.00    -0.081 NA
ATOM     27  O   UNL     1      -3.583  -4.131   4.568  0.00  0.00    -0.358 OA
ATOM     28  C   UNL     1      -2.526  -4.957   4.564  0.00  0.00    +0.161 A 
ATOM     29  C   UNL     1      -2.578  -6.462   4.502  0.00  0.00    +0.091 C 
ATOM     30  C   UNL     1      -0.863  -1.671   4.738  0.00  0.00    +0.071 C 
ENDBRANCH  21  24
ENDBRANCH   8  21
TORSDOF 4
