REMARK  Name = ZINC39421822
REMARK  8 active torsions:
REMARK  status: ('A' for Active; 'I' for Inactive)
REMARK    1  A    between atoms: C_1  and  C_2
REMARK    2  A    between atoms: C_2  and  C_3
REMARK    3  A    between atoms: C_8  and  C_12
REMARK    4  A    between atoms: C_12  and  C_14
REMARK    5  A    between atoms: C_14  and  C_16
REMARK    6  A    between atoms: C_14  and  S_22
REMARK    7  A    between atoms: S_22  and  C_23
REMARK    8  A    between atoms: C_26  and  C_28
REMARK                            x       y       z     vdW  Elec       q    Type
REMARK                         _______ _______ _______ _____ _____    ______ ____
ROOT
ATOM      1  C   UNL     1       6.604  -1.554  -2.885  0.00  0.00    +0.156 C 
ENDROOT
BRANCH   1   2
ATOM      2  C   UNL     1       7.174  -0.176  -3.106  0.00  0.00    -0.027 A 
ATOM      3  C   UNL     1       7.149   0.388  -4.367  0.00  0.00    +0.005 A 
ATOM      4  C   UNL     1       7.671   1.652  -4.570  0.00  0.00    +0.000 A 
ATOM      5  C   UNL     1       8.218   2.352  -3.510  0.00  0.00    +0.000 A 
ATOM      6  C   UNL     1       8.242   1.788  -2.248  0.00  0.00    +0.000 A 
ATOM      7  C   UNL     1       7.716   0.526  -2.045  0.00  0.00    +0.005 A 
ENDBRANCH   1   2
BRANCH   1   8
ATOM      8  C   UNL     1       5.146  -1.561  -3.264  0.00  0.00    +0.179 C 
ATOM      9  O   UNL     1       4.809  -1.916  -4.375  0.00  0.00    -0.291 OA
BRANCH   8  15
ATOM     10  C   UNL     1       0.707  -0.490  -1.238  0.00  0.00    -0.024 A 
ATOM     11  C   UNL     1       0.003  -0.812  -2.344  0.00  0.00    +0.005 A 
ATOM     12  C   UNL     1       0.628  -1.268  -3.517  0.00  0.00    +0.001 A 
ATOM     13  C   UNL     1       1.968  -1.413  -3.615  0.00  0.00    +0.010 A 
ATOM     14  C   UNL     1       2.802  -1.105  -2.514  0.00  0.00    +0.006 A 
ATOM     15  C   UNL     1       4.172  -1.156  -2.327  0.00  0.00    +0.025 C 
ATOM     16  C   UNL     1       4.406  -0.688  -0.908  0.00  0.00    +0.152 C 
ATOM     17  N   UNL     1       3.082  -0.386  -0.356  0.00  0.00    -0.380 N 
ATOM     18  C   UNL     1       2.174  -0.615  -1.262  0.00  0.00    +0.046 A 
ATOM     19  H   UNL     1       2.908  -0.062   0.542  0.00  0.00    +0.160 HD
BRANCH  10  21
ATOM     20  C   UNL     1      -0.019   1.526   0.010  0.00  0.00    +0.009 C 
ATOM     21  C   UNL     1       0.002  -0.004   0.002  0.00  0.00    +0.034 C 
ENDBRANCH  10  21
ENDBRANCH   8  15
ENDBRANCH   1   8
BRANCH   1  22
ATOM     22  S   UNL     1       7.502  -2.751  -3.912  0.00  0.00    -0.049 S 
BRANCH  22  23
ATOM     23  C   UNL     1       9.137  -2.732  -3.256  0.00  0.00    +0.279 A 
ATOM     24  N   UNL     1       9.563  -2.006  -2.249  0.00  0.00    -0.101 NA
ATOM     25  N   UNL     1      10.810  -2.245  -2.045  0.00  0.00    -0.106 NA
ATOM     26  C   UNL     1      11.231  -3.133  -2.912  0.00  0.00    +0.249 A 
ATOM     27  O   UNL     1      10.180  -3.465  -3.694  0.00  0.00    -0.411 OA
BRANCH  26  28
ATOM     28  C   UNL     1      12.601  -3.676  -3.013  0.00  0.00    +0.042 A 
ATOM     29  C   UNL     1      12.910  -4.618  -3.996  0.00  0.00    +0.017 A 
ATOM     30  C   UNL     1      14.190  -5.123  -4.088  0.00  0.00    +0.050 A 
ATOM     31  C   UNL     1      15.174  -4.700  -3.207  0.00  0.00    +0.166 A 
ATOM     32  C   UNL     1      14.871  -3.760  -2.222  0.00  0.00    +0.167 A 
ATOM     33  C   UNL     1      13.592  -3.244  -2.129  0.00  0.00    +0.062 A 
ATOM     34  O   UNL     1      15.999  -3.514  -1.493  0.00  0.00    -0.453 OA
ATOM     35  C   UNL     1      16.886  -4.612  -1.776  0.00  0.00    +0.466 C 
ATOM     36  O   UNL     1      16.490  -5.042  -3.092  0.00  0.00    -0.453 OA
ENDBRANCH  26  28
ENDBRANCH  22  23
ENDBRANCH   1  22
TORSDOF 7
