REMARK  Name = ZINC35808020
REMARK  12 active torsions:
REMARK  status: ('A' for Active; 'I' for Inactive)
REMARK    1  A    between atoms: C_1  and  C_2
REMARK    2  A    between atoms: C_2  and  C_3
REMARK    3  A    between atoms: C_2  and  C_4
REMARK    4  A    between atoms: C_2  and  C_5
REMARK    5  A    between atoms: C_8  and  C_11
REMARK    6  A    between atoms: C_11  and  N_12
REMARK    7  A    between atoms: N_12  and  C_13
REMARK    8  A    between atoms: N_12  and  C_21
REMARK    9  A    between atoms: C_13  and  C_14
REMARK   10  A    between atoms: C_21  and  C_22
REMARK   11  A    between atoms: C_24  and  C_27
REMARK   12  A    between atoms: N_29  and  C_30
REMARK                            x       y       z     vdW  Elec       q    Type
REMARK                         _______ _______ _______ _____ _____    ______ ____
ROOT
ATOM      1  N   UNL     1       2.123  -0.952  -5.792  0.00  0.00    +0.389 N 
ATOM      2  H   UNL     1       1.196  -0.603  -5.982  0.00  0.00    -0.080 HD
ENDROOT
BRANCH   1   3
ATOM      3  C   UNL     1       2.102  -1.750  -4.558  0.00  0.00    -0.042 C 
BRANCH   3   7
ATOM      4  C   UNL     1       0.475   0.588  -1.375  0.00  0.00    -0.042 A 
ATOM      5  C   UNL     1      -0.360  -0.182  -2.164  0.00  0.00    +0.004 A 
ATOM      6  C   UNL     1       0.167  -0.939  -3.194  0.00  0.00    +0.002 A 
ATOM      7  C   UNL     1       1.528  -0.925  -3.436  0.00  0.00    -0.064 A 
ATOM      8  C   UNL     1       2.362  -0.154  -2.648  0.00  0.00    +0.002 A 
ATOM      9  C   UNL     1       1.835   0.606  -1.620  0.00  0.00    +0.004 A 
BRANCH   4  11
ATOM     10  C   UNL     1       0.213   2.890  -0.493  0.00  0.00    +0.015 C 
ATOM     11  C   UNL     1      -0.099   1.412  -0.252  0.00  0.00    -0.013 C 
ATOM     12  C   UNL     1       0.521   0.970   1.075  0.00  0.00    +0.015 C 
ATOM     13  C   UNL     1      -1.615   1.214  -0.197  0.00  0.00    +0.015 C 
ENDBRANCH   4  11
ENDBRANCH   3   7
ENDBRANCH   1   3
BRANCH   1  14
ATOM     14  C   UNL     1       3.048   0.178  -5.628  0.00  0.00    -0.042 C 
BRANCH  14  15
ATOM     15  C   UNL     1       2.972   1.069  -6.841  0.00  0.00    -0.064 A 
ATOM     16  C   UNL     1       3.885   0.917  -7.867  0.00  0.00    +0.004 A 
ATOM     17  C   UNL     1       3.816   1.733  -8.980  0.00  0.00    +0.038 A 
ATOM     18  C   UNL     1       2.832   2.703  -9.067  0.00  0.00    +0.123 A 
ATOM     19  C   UNL     1       1.918   2.854  -8.038  0.00  0.00    +0.038 A 
ATOM     20  C   UNL     1       1.985   2.033  -6.929  0.00  0.00    +0.004 A 
ATOM     21  F   UNL     1       2.764   3.502 -10.155  0.00  0.00    -0.205 F 
ENDBRANCH  14  15
ENDBRANCH   1  14
BRANCH   1  22
ATOM     22  C   UNL     1       2.570  -1.792  -6.911  0.00  0.00    -0.014 C 
BRANCH  22  23
ATOM     23  C   UNL     1       1.557  -2.880  -7.159  0.00  0.00    +0.063 A 
ATOM     24  N   UNL     1       0.456  -2.810  -7.857  0.00  0.00    -0.241 NA
ATOM     25  C   UNL     1      -0.307  -3.904  -7.950  0.00  0.00    +0.133 A 
ATOM     26  C   UNL     1       0.149  -5.014  -7.290  0.00  0.00    +0.079 A 
ATOM     27  S   UNL     1       1.583  -4.465  -6.607  0.00  0.00    -0.082 S 
BRANCH  25  28
ATOM     28  C   UNL     1      -1.564  -3.915  -8.716  0.00  0.00    +0.264 C 
ATOM     29  O   UNL     1      -2.279  -4.899  -8.699  0.00  0.00    -0.268 OA
ATOM     30  N   UNL     1      -1.923  -2.834  -9.437  0.00  0.00    -0.299 N 
ATOM     31  H   UNL     1      -1.318  -2.079  -9.514  0.00  0.00    +0.150 HD
BRANCH  30  32
ATOM     32  C   UNL     1      -3.226  -2.799 -10.105  0.00  0.00    +0.159 C 
ATOM     33  C   UNL     1      -3.658  -1.345 -10.315  0.00  0.00    +0.032 C 
ATOM     34  C   UNL     1      -5.169  -1.244 -10.424  0.00  0.00    +0.004 C 
ATOM     35  C   UNL     1      -5.739  -1.902 -11.667  0.00  0.00    +0.019 C 
ATOM     36  C   UNL     1      -5.553  -3.420 -11.614  0.00  0.00    +0.104 C 
ATOM     37  N   UNL     1      -4.224  -3.750 -12.155  0.00  0.00    -0.314 N 
ATOM     38  C   UNL     1      -3.123  -3.473 -11.457  0.00  0.00    +0.233 C 
ATOM     39  O   UNL     1      -2.035  -3.758 -11.909  0.00  0.00    -0.274 OA
ATOM     40  H   UNL     1      -4.150  -4.176 -13.024  0.00  0.00    +0.149 HD
ENDBRANCH  30  32
ENDBRANCH  25  28
ENDBRANCH  22  23
ENDBRANCH   1  22
TORSDOF 9
