REMARK  Name = ZINC37282145
REMARK  10 active torsions:
REMARK  status: ('A' for Active; 'I' for Inactive)
REMARK    1  A    between atoms: C_1  and  C_2
REMARK    2  A    between atoms: C_2  and  C_3
REMARK    3  A    between atoms: C_2  and  C_4
REMARK    4  A    between atoms: C_12  and  O_24
REMARK    5  A    between atoms: C_15  and  C_17
REMARK    6  A    between atoms: O_24  and  C_25
REMARK    7  A    between atoms: C_25  and  C_26
REMARK    8  A    between atoms: C_28  and  C_31
REMARK    9  A    between atoms: N_33  and  C_34
REMARK   10  A    between atoms: C_34  and  C_35
REMARK                            x       y       z     vdW  Elec       q    Type
REMARK                         _______ _______ _______ _____ _____    ______ ____
ROOT
ATOM      1  C   UNL     1      -1.517  -0.764   0.440  0.00  0.00    +0.219 C 
ATOM      2  O   UNL     1      -1.972  -1.493   1.295  0.00  0.00    -0.275 OA
ATOM      3  N   UNL     1      -2.268  -0.427  -0.628  0.00  0.00    -0.290 N 
ATOM      4  C   UNL     1      -1.710   0.363  -1.738  0.00  0.00    +0.113 C 
ATOM      5  C   UNL     1      -1.726  -0.511  -2.991  0.00  0.00    +0.054 C 
ATOM      6  C   UNL     1      -3.064  -1.181  -3.160  0.00  0.00    -0.040 A 
ATOM      7  C   UNL     1      -3.394  -1.649  -4.427  0.00  0.00    +0.007 A 
ATOM      8  C   UNL     1      -4.598  -2.280  -4.652  0.00  0.00    +0.046 A 
ATOM      9  C   UNL     1      -5.492  -2.453  -3.604  0.00  0.00    +0.122 A 
ATOM     10  C   UNL     1      -5.165  -1.984  -2.343  0.00  0.00    +0.051 A 
ATOM     11  C   UNL     1      -3.954  -1.343  -2.122  0.00  0.00    -0.016 A 
ATOM     12  C   UNL     1      -3.672  -0.839  -0.734  0.00  0.00    +0.137 C 
ENDROOT
BRANCH  12  13
ATOM     13  C   UNL     1      -4.563   0.341  -0.443  0.00  0.00    -0.020 A 
ATOM     14  C   UNL     1      -4.565   1.432  -1.293  0.00  0.00    +0.006 A 
ATOM     15  C   UNL     1      -5.382   2.514  -1.028  0.00  0.00    +0.003 A 
ATOM     16  C   UNL     1      -6.198   2.508   0.088  0.00  0.00    +0.038 A 
ATOM     17  C   UNL     1      -6.197   1.417   0.940  0.00  0.00    +0.124 A 
ATOM     18  C   UNL     1      -5.382   0.330   0.670  0.00  0.00    +0.044 A 
ATOM     19  F   UNL     1      -6.993   1.410   2.031  0.00  0.00    -0.205 F 
ENDBRANCH  12  13
BRANCH   1  21
ATOM     20  C   UNL     1      -0.153   1.175   1.165  0.00  0.00    +0.017 C 
ATOM     21  C   UNL     1      -0.113  -0.234   0.571  0.00  0.00    +0.069 C 
ATOM     22  C   UNL     1       0.696  -1.152   1.489  0.00  0.00    +0.017 C 
ENDBRANCH   1  21
BRANCH   9  23
ATOM     23  O   UNL     1      -6.680  -3.078  -3.815  0.00  0.00    -0.483 OA
BRANCH  23  24
ATOM     24  C   UNL     1      -6.947  -3.534  -5.143  0.00  0.00    +0.324 C 
BRANCH  24  25
ATOM     25  C   UNL     1      -8.299  -4.196  -5.184  0.00  0.00    +0.234 A 
ATOM     26  N   UNL     1      -9.423  -3.597  -5.439  0.00  0.00    -0.206 NA
ATOM     27  C   UNL     1     -10.424  -4.517  -5.388  0.00  0.00    +0.164 A 
ATOM     28  C   UNL     1      -9.852  -5.714  -5.088  0.00  0.00    +0.230 A 
ATOM     29  O   UNL     1      -8.532  -5.499  -4.969  0.00  0.00    -0.444 OA
BRANCH  27  30
ATOM     30  C   UNL     1     -11.859  -4.264  -5.615  0.00  0.00    +0.266 C 
ATOM     31  O   UNL     1     -12.657  -5.178  -5.540  0.00  0.00    -0.268 OA
ATOM     32  N   UNL     1     -12.286  -3.019  -5.907  0.00  0.00    -0.308 N 
ATOM     33  H   UNL     1     -11.649  -2.290  -5.968  0.00  0.00    +0.149 HD
BRANCH  32  34
ATOM     34  C   UNL     1     -13.711  -2.768  -6.133  0.00  0.00    +0.136 C 
BRANCH  34  35
ATOM     35  C   UNL     1     -13.925  -1.285  -6.444  0.00  0.00    +0.135 C 
ATOM     36  C   UNL     1     -15.435  -0.987  -6.564  0.00  0.00    +0.035 C 
ATOM     37  C   UNL     1     -15.480   0.016  -7.748  0.00  0.00    +0.031 C 
ATOM     38  C   UNL     1     -14.320  -0.515  -8.628  0.00  0.00    +0.160 C 
ATOM     39  O   UNL     1     -13.316  -0.959  -7.699  0.00  0.00    -0.375 OA
ENDBRANCH  34  35
ENDBRANCH  32  34
ENDBRANCH  27  30
ENDBRANCH  24  25
ENDBRANCH  23  24
ENDBRANCH   9  23
TORSDOF 8
