REMARK  Name = ZINC21882277
REMARK  8 active torsions:
REMARK  status: ('A' for Active; 'I' for Inactive)
REMARK    1  A    between atoms: C_1  and  C_2
REMARK    2  A    between atoms: C_2  and  C_3
REMARK    3  A    between atoms: C_2  and  C_4
REMARK    4  A    between atoms: C_4  and  N_5
REMARK    5  A    between atoms: C_17  and  C_18
REMARK    6  A    between atoms: C_18  and  C_19
REMARK    7  A    between atoms: C_19  and  C_20
REMARK    8  A    between atoms: C_28  and  C_30
REMARK                            x       y       z     vdW  Elec       q    Type
REMARK                         _______ _______ _______ _____ _____    ______ ____
ROOT
ATOM      1  N   UNL     1      -1.805   1.185  -1.130  0.00  0.00    -0.276 N 
ATOM      2  C   UNL     1      -2.971   0.578  -1.444  0.00  0.00    +0.270 A 
ATOM      3  O   UNL     1      -3.336  -0.406  -0.826  0.00  0.00    -0.266 OA
ATOM      4  C   UNL     1      -3.762   1.093  -2.480  0.00  0.00    +0.101 A 
ATOM      5  C   UNL     1      -3.377   2.215  -3.216  0.00  0.00    +0.071 A 
ATOM      6  C   UNL     1      -4.271   2.594  -4.214  0.00  0.00    +0.034 A 
ATOM      7  C   UNL     1      -5.408   1.888  -4.407  0.00  0.00    +0.048 A 
ATOM      8  S   UNL     1      -5.315   0.640  -3.207  0.00  0.00    -0.090 S 
ATOM      9  N   UNL     1      -2.154   2.803  -2.854  0.00  0.00    -0.264 N 
ATOM     10  C   UNL     1      -1.398   2.298  -1.842  0.00  0.00    +0.239 A 
ATOM     11  N   UNL     1      -0.330   3.059  -1.749  0.00  0.00    -0.110 NA
ATOM     12  N   UNL     1      -0.381   3.992  -2.633  0.00  0.00    -0.132 NA
ATOM     13  C   UNL     1      -1.476   3.883  -3.336  0.00  0.00    +0.140 A 
ENDROOT
BRANCH   1  14
ATOM     14  C   UNL     1      -0.972   0.661  -0.045  0.00  0.00    +0.131 C 
BRANCH  14  16
ATOM     15  C   UNL     1      -2.804   0.933   1.633  0.00  0.00    +0.009 C 
ATOM     16  C   UNL     1      -1.371   1.330   1.272  0.00  0.00    +0.003 C 
ATOM     17  C   UNL     1      -0.421   0.877   2.382  0.00  0.00    +0.009 C 
ENDBRANCH  14  16
ENDBRANCH   1  14
BRANCH  13  18
ATOM     18  C   UNL     1      -1.907   4.781  -4.467  0.00  0.00    +0.086 C 
BRANCH  18  19
ATOM     19  C   UNL     1      -2.742   5.936  -3.911  0.00  0.00    +0.104 C 
BRANCH  19  20
ATOM     20  C   UNL     1      -3.173   6.834  -5.042  0.00  0.00    +0.216 C 
ATOM     21  O   UNL     1      -2.845   6.575  -6.181  0.00  0.00    -0.276 OA
ATOM     22  N   UNL     1      -3.924   7.924  -4.789  0.00  0.00    -0.298 N 
ATOM     23  C   UNL     1      -4.333   8.247  -3.415  0.00  0.00    +0.126 C 
ATOM     24  C   UNL     1      -3.873   9.680  -3.095  0.00  0.00    +0.127 C 
ATOM     25  N   UNL     1      -4.301  10.564  -4.188  0.00  0.00    -0.292 N 
ATOM     26  C   UNL     1      -3.896  10.238  -5.562  0.00  0.00    +0.127 C 
ATOM     27  C   UNL     1      -4.351   8.809  -5.882  0.00  0.00    +0.126 C 
ATOM     28  C   UNL     1      -5.052  11.654  -3.934  0.00  0.00    +0.282 C 
ATOM     29  O   UNL     1      -5.496  11.841  -2.816  0.00  0.00    -0.267 OA
BRANCH  28  30
ATOM     30  C   UNL     1      -5.335  12.615  -5.005  0.00  0.00    +0.189 A 
ATOM     31  C   UNL     1      -6.192  13.675  -4.926  0.00  0.00    +0.054 A 
ATOM     32  C   UNL     1      -6.152  14.320  -6.173  0.00  0.00    +0.042 A 
ATOM     33  C   UNL     1      -5.283  13.634  -6.948  0.00  0.00    +0.196 A 
ATOM     34  O   UNL     1      -4.789  12.610  -6.239  0.00  0.00    -0.458 OA
ENDBRANCH  28  30
ENDBRANCH  19  20
ENDBRANCH  18  19
ENDBRANCH  13  18
TORSDOF 6
