REMARK  Name = ZINC67589427
REMARK  13 active torsions:
REMARK  status: ('A' for Active; 'I' for Inactive)
REMARK    1  A    between atoms: C_1  and  C_2
REMARK    2  A    between atoms: C_6  and  C_28
REMARK    3  A    between atoms: C_7  and  O_8
REMARK    4  A    between atoms: O_8  and  C_9
REMARK    5  A    between atoms: C_9  and  C_10
REMARK    6  A    between atoms: C_10  and  C_12
REMARK    7  A    between atoms: C_10  and  O_27
REMARK    8  A    between atoms: C_12  and  N_13
REMARK    9  A    between atoms: N_16  and  C_17
REMARK   10  A    between atoms: C_19  and  C_25
REMARK   11  A    between atoms: C_19  and  C_26
REMARK   12  A    between atoms: C_21  and  C_23
REMARK   13  A    between atoms: C_21  and  C_24
REMARK                            x       y       z     vdW  Elec       q    Type
REMARK                         _______ _______ _______ _____ _____    ______ ____
ROOT
ATOM      1  N   UNL     1      -2.856   2.446   6.099  0.00  0.00    -0.297 N 
ATOM      2  C   UNL     1      -3.854   2.933   6.862  0.00  0.00    +0.300 C 
ATOM      3  O   UNL     1      -5.011   2.709   6.566  0.00  0.00    -0.253 OA
ATOM      4  N   UNL     1      -3.569   3.669   7.955  0.00  0.00    -0.297 N 
ATOM      5  H   UNL     1      -1.932   2.625   6.336  0.00  0.00    +0.150 HD
ATOM      6  H   UNL     1      -2.645   3.848   8.192  0.00  0.00    +0.151 HD
ENDROOT
BRANCH   4   7
ATOM      7  C   UNL     1      -4.656   4.200   8.787  0.00  0.00    +0.072 C 
ATOM      8  C   UNL     1      -5.056   3.147   9.822  0.00  0.00    +0.009 C 
ATOM      9  C   UNL     1      -6.180   3.689  10.705  0.00  0.00    -0.072 C 
ATOM     10  N   UNL     1      -5.832   4.965  11.312  0.00  0.00    +0.386 N 
ATOM     11  C   UNL     1      -5.246   5.984  10.456  0.00  0.00    -0.072 C 
ATOM     12  C   UNL     1      -4.162   5.440   9.531  0.00  0.00    +0.009 C 
ATOM     13  C   UNL     1      -6.311   6.718   9.638  0.00  0.00    -0.010 C 
ATOM     14  C   UNL     1      -4.579   7.035  11.375  0.00  0.00    -0.010 C 
ATOM     15  C   UNL     1      -6.397   2.671  11.848  0.00  0.00    -0.010 C 
ATOM     16  C   UNL     1      -7.485   3.765   9.912  0.00  0.00    -0.010 C 
ATOM     17  H   UNL     1      -6.673   5.354  11.746  0.00  0.00    -0.084 HD
ATOM     18  H   UNL     1      -5.189   4.787  12.088  0.00  0.00    -0.084 HD
ENDBRANCH   4   7
BRANCH   1  19
ATOM     19  C   UNL     1      -3.166   1.646   4.911  0.00  0.00    +0.140 C 
BRANCH  19  20
ATOM     20  C   UNL     1      -1.864   1.220   4.229  0.00  0.00    +0.169 C 
BRANCH  20  21
ATOM     21  O   UNL     1      -1.137   0.346   5.095  0.00  0.00    -0.387 OA
ATOM     22  H   UNL     1      -1.614  -0.462   5.329  0.00  0.00    +0.210 HD
ENDBRANCH  20  21
BRANCH  20  23
ATOM     23  C   UNL     1      -2.187   0.493   2.923  0.00  0.00    +0.261 C 
BRANCH  23  24
ATOM     24  O   UNL     1      -0.973   0.198   2.229  0.00  0.00    -0.489 OA
BRANCH  24  31
ATOM     25  C   UNL     1      -1.225   1.776  -0.100  0.00  0.00    +0.047 C 
ATOM     26  C   UNL     1      -1.210   0.270  -0.137  0.00  0.00    -0.009 A 
ATOM     27  C   UNL     1      -1.316  -0.393  -1.344  0.00  0.00    +0.007 A 
ATOM     28  C   UNL     1      -1.303  -1.776  -1.379  0.00  0.00    +0.001 A 
ATOM     29  C   UNL     1      -1.183  -2.498  -0.206  0.00  0.00    +0.007 A 
ATOM     30  C   UNL     1      -1.076  -1.839   1.004  0.00  0.00    -0.009 A 
ATOM     31  C   UNL     1      -1.084  -0.452   1.041  0.00  0.00    +0.126 A 
ATOM     32  C   UNL     1      -0.945  -2.627   2.282  0.00  0.00    +0.047 C 
ENDBRANCH  24  31
ENDBRANCH  23  24
ENDBRANCH  20  23
ENDBRANCH  19  20
ENDBRANCH   1  19
TORSDOF 7
