REMARK  Name = ZINC12702256
REMARK  9 active torsions:
REMARK  status: ('A' for Active; 'I' for Inactive)
REMARK    1  A    between atoms: C_1  and  C_2
REMARK    2  A    between atoms: C_5  and  C_8
REMARK    3  A    between atoms: C_8  and  C_10
REMARK    4  A    between atoms: C_8  and  N_18
REMARK    5  A    between atoms: N_12  and  C_13
REMARK    6  A    between atoms: N_18  and  C_19
REMARK    7  A    between atoms: C_29  and  C_31
REMARK    8  A    between atoms: C_32  and  N_39
REMARK    9  A    between atoms: C_33  and  C_36
REMARK                            x       y       z     vdW  Elec       q    Type
REMARK                         _______ _______ _______ _____ _____    ______ ____
ROOT
ATOM      1  N   UNL     1      -2.289   6.455   0.141  0.00  0.00    -0.250 N 
ATOM      2  C   UNL     1      -2.225   7.649   0.764  0.00  0.00    +0.262 C 
ATOM      3  O   UNL     1      -1.820   8.627   0.164  0.00  0.00    -0.269 OA
ENDROOT
BRANCH   1   4
ATOM      4  C   UNL     1      -2.753   5.334   0.829  0.00  0.00    +0.045 A 
ATOM      5  C   UNL     1      -1.963   4.726   1.781  0.00  0.00    +0.024 A 
ATOM      6  C   UNL     1      -2.416   3.606   2.472  0.00  0.00    +0.002 A 
ATOM      7  C   UNL     1      -3.649   3.081   2.229  0.00  0.00    +0.008 A 
ATOM      8  C   UNL     1      -4.486   3.671   1.266  0.00  0.00    -0.016 A 
ATOM      9  C   UNL     1      -4.035   4.811   0.556  0.00  0.00    +0.004 A 
ATOM     10  C   UNL     1      -4.872   5.399  -0.405  0.00  0.00    +0.010 A 
ATOM     11  C   UNL     1      -6.101   4.865  -0.647  0.00  0.00    +0.001 A 
ATOM     12  C   UNL     1      -6.547   3.747   0.054  0.00  0.00    +0.001 A 
ATOM     13  C   UNL     1      -5.763   3.151   0.994  0.00  0.00    +0.008 A 
ENDBRANCH   1   4
BRANCH   2  14
ATOM     14  C   UNL     1      -2.643   7.768   2.162  0.00  0.00    +0.116 A 
ATOM     15  C   UNL     1      -2.653   8.893   2.989  0.00  0.00    +0.076 A 
ATOM     16  C   UNL     1      -3.127   8.609   4.270  0.00  0.00    +0.155 A 
ATOM     17  N   UNL     1      -3.490   7.380   4.564  0.00  0.00    -0.203 NA
ATOM     18  S   UNL     1      -3.267   6.517   3.264  0.00  0.00    +0.019 S 
BRANCH  16  19
ATOM     19  C   UNL     1      -3.216   9.675   5.285  0.00  0.00    +0.262 C 
ATOM     20  O   UNL     1      -2.878  10.810   5.006  0.00  0.00    -0.269 OA
ATOM     21  N   UNL     1      -3.670   9.392   6.522  0.00  0.00    -0.324 N 
ATOM     22  H   UNL     1      -3.939   8.487   6.744  0.00  0.00    +0.145 HD
ATOM     23  H   UNL     1      -3.728  10.093   7.190  0.00  0.00    +0.145 HD
ENDBRANCH  16  19
BRANCH  15  24
ATOM     24  N   UNL     1      -2.239  10.154   2.582  0.00  0.00    -0.355 N 
ATOM     25  H   UNL     1      -1.920  10.291   1.676  0.00  0.00    +0.142 HD
ATOM     26  H   UNL     1      -2.269  10.899   3.203  0.00  0.00    +0.142 HD
ENDBRANCH  15  24
ENDBRANCH   2  14
BRANCH   1  27
ATOM     27  C   UNL     1      -1.871   6.336  -1.258  0.00  0.00    +0.197 C 
BRANCH  27  32
ATOM     28  C   UNL     1       3.761   7.555  -1.695  0.00  0.00    +0.044 C 
ATOM     29  C   UNL     1       2.292   7.237  -1.581  0.00  0.00    -0.050 A 
ATOM     30  C   UNL     1       1.386   7.842  -2.432  0.00  0.00    +0.004 A 
ATOM     31  C   UNL     1       0.039   7.550  -2.327  0.00  0.00    +0.006 A 
ATOM     32  C   UNL     1      -0.402   6.653  -1.372  0.00  0.00    -0.018 A 
ATOM     33  C   UNL     1       0.503   6.052  -0.518  0.00  0.00    +0.006 A 
ATOM     34  C   UNL     1       1.851   6.340  -0.626  0.00  0.00    +0.004 A 
ENDBRANCH  27  32
BRANCH  27  35
ATOM     35  C   UNL     1      -2.119   4.929  -1.738  0.00  0.00    +0.239 C 
ATOM     36  O   UNL     1      -2.008   3.997  -0.969  0.00  0.00    -0.273 OA
ATOM     37  N   UNL     1      -2.466   4.706  -3.021  0.00  0.00    -0.311 N 
ATOM     38  H   UNL     1      -2.555   5.451  -3.636  0.00  0.00    +0.149 HD
BRANCH  37  39
ATOM     39  C   UNL     1      -2.708   3.339  -3.488  0.00  0.00    +0.073 C 
ATOM     40  C   UNL     1      -1.385   2.700  -3.962  0.00  0.00    +0.022 C 
ATOM     41  C   UNL     1      -1.794   1.846  -5.187  0.00  0.00    +0.002 C 
ATOM     42  C   UNL     1      -2.865   2.727  -5.876  0.00  0.00    +0.002 C 
ATOM     43  C   UNL     1      -3.649   3.356  -4.705  0.00  0.00    +0.022 C 
ENDBRANCH  37  39
ENDBRANCH  27  35
ENDBRANCH   1  27
TORSDOF 8
