REMARK  Name = ZINC39007738
REMARK  8 active torsions:
REMARK  status: ('A' for Active; 'I' for Inactive)
REMARK    1  A    between atoms: C_1  and  C_2
REMARK    2  A    between atoms: C_2  and  C_3
REMARK    3  A    between atoms: C_2  and  C_4
REMARK    4  A    between atoms: C_4  and  N_5
REMARK    5  A    between atoms: N_5  and  C_6
REMARK    6  A    between atoms: C_6  and  C_7
REMARK    7  A    between atoms: C_19  and  C_21
REMARK    8  A    between atoms: C_25  and  N_27
REMARK                            x       y       z     vdW  Elec       q    Type
REMARK                         _______ _______ _______ _____ _____    ______ ____
ROOT
ATOM      1  N   UNL     1       2.180   0.125  -1.081  0.00  0.00    -0.296 N 
ATOM      2  C   UNL     1       2.592   1.164  -1.834  0.00  0.00    +0.247 C 
ATOM      3  O   UNL     1       1.776   1.890  -2.367  0.00  0.00    -0.270 OA
ENDROOT
BRANCH   2   4
ATOM      4  C   UNL     1       4.037   1.420  -2.012  0.00  0.00    +0.039 A 
ATOM      5  C   UNL     1       4.962   0.393  -1.809  0.00  0.00    +0.013 A 
ATOM      6  C   UNL     1       6.308   0.639  -1.977  0.00  0.00    +0.003 A 
ATOM      7  C   UNL     1       6.744   1.899  -2.346  0.00  0.00    +0.033 A 
ATOM      8  C   UNL     1       5.834   2.921  -2.549  0.00  0.00    +0.127 A 
ATOM      9  C   UNL     1       4.483   2.687  -2.390  0.00  0.00    +0.045 A 
BRANCH   8  10
ATOM     10  N   UNL     1       6.309   4.266  -2.943  0.00  0.00    +0.056 N 
ATOM     11  O   UNL     1       7.492   4.471  -3.087  0.00  0.00    -0.126 OA
ATOM     12  O   UNL     1       5.514   5.160  -3.120  0.00  0.00    -0.126 OA
ENDBRANCH   8  10
ENDBRANCH   2   4
BRANCH   1  13
ATOM     13  C   UNL     1       0.748  -0.105  -0.872  0.00  0.00    +0.111 C 
BRANCH  13  15
ATOM     14  C   UNL     1       0.347   2.253  -0.153  0.00  0.00    +0.009 C 
ATOM     15  C   UNL     1       0.249   0.786   0.267  0.00  0.00    +0.000 C 
ATOM     16  C   UNL     1      -1.209   0.442   0.582  0.00  0.00    +0.009 C 
ENDBRANCH  13  15
ENDBRANCH   1  13
BRANCH   1  17
ATOM     17  C   UNL     1       3.163  -0.773  -0.470  0.00  0.00    +0.125 C 
BRANCH  17  18
ATOM     18  C   UNL     1       3.413  -1.963  -1.399  0.00  0.00    +0.116 C 
ATOM     19  C   UNL     1       4.559  -2.770  -0.823  0.00  0.00    -0.003 C 
ATOM     20  C   UNL     1       4.317  -4.080  -0.533  0.00  0.00    -0.007 A 
ATOM     21  C   UNL     1       5.367  -4.932   0.026  0.00  0.00    +0.009 A 
ATOM     22  C   UNL     1       5.080  -6.231   0.299  0.00  0.00    +0.001 A 
ATOM     23  C   UNL     1       3.813  -6.762   0.057  0.00  0.00    +0.002 A 
ATOM     24  C   UNL     1       2.796  -6.024  -0.461  0.00  0.00    +0.024 A 
ATOM     25  C   UNL     1       2.988  -4.667  -0.778  0.00  0.00    +0.040 A 
ATOM     26  N   UNL     1       1.983  -3.953  -1.284  0.00  0.00    -0.284 N 
ATOM     27  C   UNL     1       2.095  -2.676  -1.605  0.00  0.00    +0.226 C 
ATOM     28  O   UNL     1       1.142  -2.076  -2.064  0.00  0.00    -0.275 OA
ATOM     29  H   UNL     1       1.129  -4.391  -1.424  0.00  0.00    +0.155 HD
ENDBRANCH  17  18
ENDBRANCH   1  17
TORSDOF 6
