REMARK  Name = ZINC14625324
REMARK  10 active torsions:
REMARK  status: ('A' for Active; 'I' for Inactive)
REMARK    1  A    between atoms: C_1  and  C_2
REMARK    2  A    between atoms: C_2  and  C_3
REMARK    3  A    between atoms: C_3  and  C_4
REMARK    4  A    between atoms: C_4  and  N_5
REMARK    5  A    between atoms: C_6  and  N_35
REMARK    6  A    between atoms: C_7  and  N_14
REMARK    7  A    between atoms: N_14  and  C_15
REMARK    8  A    between atoms: C_15  and  C_16
REMARK    9  A    between atoms: C_22  and  C_24
REMARK   10  A    between atoms: C_24  and  C_25
REMARK                            x       y       z     vdW  Elec       q    Type
REMARK                         _______ _______ _______ _____ _____    ______ ____
ROOT
ATOM      1  N   UNL     1      -1.218   1.722  -0.192  0.00  0.00    -0.260 N 
ATOM      2  C   UNL     1      -0.116   0.976  -0.415  0.00  0.00    +0.221 C 
ATOM      3  O   UNL     1      -0.207  -0.232  -0.496  0.00  0.00    -0.275 OA
ENDROOT
BRANCH   1   6
ATOM      4  N   UNL     1      -4.694   0.598  -0.582  0.00  0.00    -0.280 N 
ATOM      5  C   UNL     1      -3.499   1.226  -0.845  0.00  0.00    +0.127 A 
ATOM      6  C   UNL     1      -2.458   1.095   0.051  0.00  0.00    +0.140 A 
ATOM      7  C   UNL     1      -2.656   0.329   1.216  0.00  0.00    +0.277 A 
ATOM      8  O   UNL     1      -1.754   0.200   2.027  0.00  0.00    -0.266 OA
ATOM      9  N   UNL     1      -3.849  -0.261   1.428  0.00  0.00    -0.273 N 
ATOM     10  H   UNL     1      -3.991  -0.805   2.255  0.00  0.00    +0.173 HD
ATOM     11  C   UNL     1      -4.850  -0.126   0.541  0.00  0.00    +0.331 A 
ATOM     12  O   UNL     1      -5.917  -0.669   0.757  0.00  0.00    -0.246 OA
BRANCH   5  13
ATOM     13  N   UNL     1      -3.341   1.971  -1.989  0.00  0.00    -0.343 N 
ATOM     14  H   UNL     1      -2.468   2.323  -2.222  0.00  0.00    +0.144 HD
ATOM     15  H   UNL     1      -4.104   2.144  -2.564  0.00  0.00    +0.144 HD
ENDBRANCH   5  13
BRANCH   4  16
ATOM     16  C   UNL     1      -5.806   0.724  -1.528  0.00  0.00    +0.128 C 
BRANCH  16  17
ATOM     17  C   UNL     1      -6.652   1.945  -1.161  0.00  0.00    +0.021 C 
BRANCH  17  19
ATOM     18  C   UNL     1      -8.658   3.298  -1.783  0.00  0.00    +0.004 C 
ATOM     19  C   UNL     1      -7.813   2.076  -2.149  0.00  0.00    -0.002 C 
ENDBRANCH  17  19
ENDBRANCH  16  17
ENDBRANCH   4  16
ENDBRANCH   1   6
BRANCH   1  20
ATOM     20  C   UNL     1      -1.126   3.184  -0.204  0.00  0.00    +0.149 C 
BRANCH  20  21
ATOM     21  C   UNL     1      -0.961   3.688   1.207  0.00  0.00    -0.030 A 
ATOM     22  C   UNL     1      -2.073   3.911   1.996  0.00  0.00    +0.005 A 
ATOM     23  C   UNL     1      -1.920   4.368   3.292  0.00  0.00    +0.000 A 
ATOM     24  C   UNL     1      -0.656   4.613   3.794  0.00  0.00    +0.000 A 
ATOM     25  C   UNL     1       0.456   4.396   3.002  0.00  0.00    +0.000 A 
ATOM     26  C   UNL     1       0.304   3.933   1.709  0.00  0.00    +0.005 A 
ENDBRANCH  20  21
ENDBRANCH   1  20
BRANCH   2  27
ATOM     27  C   UNL     1       1.227   1.641  -0.569  0.00  0.00    +0.103 C 
BRANCH  27  28
ATOM     28  C   UNL     1       2.288   0.584  -0.878  0.00  0.00    -0.020 C 
ATOM     29  C   UNL     1       2.349  -0.428   0.268  0.00  0.00    +0.011 C 
ATOM     30  C   UNL     1       3.410  -1.486  -0.041  0.00  0.00    -0.010 C 
ATOM     31  C   UNL     1       4.774  -0.810  -0.197  0.00  0.00    +0.007 C 
ATOM     32  C   UNL     1       4.713   0.202  -1.343  0.00  0.00    -0.010 C 
ATOM     33  C   UNL     1       3.652   1.260  -1.034  0.00  0.00    +0.011 C 
ATOM     34  C   UNL     1       4.350  -0.520  -2.642  0.00  0.00    +0.007 C 
ATOM     35  C   UNL     1       2.987  -1.196  -2.486  0.00  0.00    -0.010 C 
ATOM     36  C   UNL     1       3.047  -2.208  -1.340  0.00  0.00    +0.007 C 
ATOM     37  C   UNL     1       1.925  -0.138  -2.177  0.00  0.00    +0.011 C 
ENDBRANCH  27  28
ENDBRANCH   2  27
TORSDOF 9
