REMARK  Name = ZINC32622870
REMARK  10 active torsions:
REMARK  status: ('A' for Active; 'I' for Inactive)
REMARK    1  A    between atoms: C_1  and  N_2
REMARK    2  A    between atoms: N_2  and  C_3
REMARK    3  A    between atoms: N_2  and  C_4
REMARK    4  A    between atoms: C_4  and  C_5
REMARK    5  A    between atoms: C_5  and  C_6
REMARK    6  A    between atoms: C_6  and  N_7
REMARK    7  A    between atoms: C_8  and  C_24
REMARK    8  A    between atoms: C_27  and  O_32
REMARK    9  A    between atoms: C_28  and  O_30
REMARK   10  A    between atoms: O_30  and  C_31
REMARK                            x       y       z     vdW  Elec       q    Type
REMARK                         _______ _______ _______ _____ _____    ______ ____
ROOT
ATOM      1  N   UNL     1       1.207  -2.530   2.558  0.00  0.00    -0.284 N 
ATOM      2  C   UNL     1       0.469  -2.835   3.789  0.00  0.00    +0.145 C 
ATOM      3  C   UNL     1       1.498  -3.298   4.787  0.00  0.00    +0.072 A 
ATOM      4  C   UNL     1       1.401  -3.741   6.181  0.00  0.00    +0.199 A 
ATOM      5  O   UNL     1       0.332  -3.790   6.763  0.00  0.00    -0.287 OA
ATOM      6  C   UNL     1       2.663  -4.125   6.843  0.00  0.00    +0.066 A 
ATOM      7  C   UNL     1       2.686  -4.560   8.167  0.00  0.00    +0.035 A 
ATOM      8  C   UNL     1       3.887  -4.911   8.746  0.00  0.00    +0.042 A 
ATOM      9  C   UNL     1       5.065  -4.828   8.015  0.00  0.00    +0.023 A 
ATOM     10  C   UNL     1       5.054  -4.398   6.706  0.00  0.00    +0.048 A 
ATOM     11  C   UNL     1       3.853  -4.040   6.100  0.00  0.00    +0.140 A 
ATOM     12  O   UNL     1       3.831  -3.619   4.822  0.00  0.00    -0.450 OA
ATOM     13  C   UNL     1       2.706  -3.259   4.174  0.00  0.00    +0.199 A 
ATOM     14  C   UNL     1       2.508  -2.783   2.782  0.00  0.00    +0.283 C 
ATOM     15  O   UNL     1       3.395  -2.640   1.964  0.00  0.00    -0.267 OA
ATOM     16 CL   UNL     1       3.928  -5.456  10.394  0.00  0.00    -0.084 Cl
ENDROOT
BRANCH   2  17
ATOM     17  C   UNL     1      -0.227  -1.598   4.297  0.00  0.00    -0.019 A 
ATOM     18  C   UNL     1       0.416  -0.375   4.245  0.00  0.00    +0.009 A 
ATOM     19  C   UNL     1      -0.219   0.763   4.704  0.00  0.00    +0.049 A 
ATOM     20  C   UNL     1      -1.499   0.679   5.228  0.00  0.00    +0.158 A 
ATOM     21  C   UNL     1      -2.144  -0.553   5.286  0.00  0.00    +0.162 A 
ATOM     22  C   UNL     1      -1.504  -1.690   4.818  0.00  0.00    +0.055 A 
BRANCH  21  23
ATOM     23  O   UNL     1      -3.401  -0.641   5.799  0.00  0.00    -0.491 OA
ATOM     24  C   UNL     1      -4.001  -1.938   5.825  0.00  0.00    +0.277 C 
ENDBRANCH  21  23
BRANCH  20  25
ATOM     25  O   UNL     1      -2.123   1.797   5.686  0.00  0.00    -0.503 OA
ATOM     26  H   UNL     1      -3.140   1.728   6.102  0.00  0.00    +0.292 HD
ENDBRANCH  20  25
ENDBRANCH   2  17
BRANCH   1  27
ATOM     27  C   UNL     1       0.628  -2.043   1.303  0.00  0.00    +0.107 C 
BRANCH  27  28
ATOM     28  C   UNL     1       0.607  -0.513   1.312  0.00  0.00    +0.000 C 
BRANCH  28  29
ATOM     29  C   UNL     1       0.002  -0.004   0.002  0.00  0.00    -0.078 C 
BRANCH  29  31
ATOM     30  C   UNL     1       1.346   2.010   0.000  0.00  0.00    -0.097 C 
ATOM     31  N   UNL     1      -0.018   1.465   0.010  0.00  0.00    +0.376 N 
ATOM     32  C   UNL     1      -0.802   1.987  -1.117  0.00  0.00    -0.097 C 
ATOM     33  H   UNL     1      -0.505   1.791   0.941  0.00  0.00    -0.083 HD
ENDBRANCH  29  31
ENDBRANCH  28  29
ENDBRANCH  27  28
ENDBRANCH   1  27
TORSDOF 7
