REMARK  Name = ZINC20705722
REMARK  7 active torsions:
REMARK  status: ('A' for Active; 'I' for Inactive)
REMARK    1  A    between atoms: C_1  and  N_2
REMARK    2  A    between atoms: N_2  and  C_3
REMARK    3  A    between atoms: N_2  and  S_10
REMARK    4  A    between atoms: C_3  and  C_4
REMARK    5  A    between atoms: S_10  and  C_13
REMARK    6  A    between atoms: C_26  and  C_29
REMARK    7  A    between atoms: C_31  and  N_36
REMARK                            x       y       z     vdW  Elec       q    Type
REMARK                         _______ _______ _______ _____ _____    ______ ____
ROOT
ATOM      1  C   UNL     1      -1.332   1.877   0.038  0.00  0.00    +0.106 A 
ATOM      2  C   UNL     1      -0.150   1.159   0.032  0.00  0.00    +0.030 A 
ATOM      3  C   UNL     1       1.057   1.829   0.020  0.00  0.00    +0.025 A 
ATOM      4  C   UNL     1       1.080   3.219   0.021  0.00  0.00    +0.031 A 
ATOM      5  C   UNL     1      -0.100   3.940   0.035  0.00  0.00    -0.018 A 
ATOM      6  C   UNL     1      -1.308   3.256   0.045  0.00  0.00    +0.034 A 
ATOM      7  C   UNL     1      -0.138   5.445   0.043  0.00  0.00    +0.049 C 
ATOM      8  C   UNL     1      -0.874   5.875   1.306  0.00  0.00    -0.023 C 
ATOM      9  C   UNL     1      -0.020   6.160   2.257  0.00  0.00    -0.030 C 
ATOM     10  C   UNL     1       1.404   5.966   1.768  0.00  0.00    +0.033 C 
ATOM     11  C   UNL     1       1.258   6.065   0.231  0.00  0.00    +0.029 C 
ATOM     12  C   UNL     1       2.339   5.267  -0.472  0.00  0.00    +0.106 C 
ATOM     13  N   UNL     1       2.314   3.880   0.005  0.00  0.00    -0.336 N 
ATOM     14  H   UNL     1       3.244   3.394   0.334  0.00  0.00    +0.147 HD
ENDROOT
BRANCH  12  15
ATOM     15  C   UNL     1       2.094   5.291  -1.959  0.00  0.00    -0.007 A 
ATOM     16  C   UNL     1       1.530   4.195  -2.585  0.00  0.00    +0.039 A 
ATOM     17  C   UNL     1       1.301   4.219  -3.948  0.00  0.00    +0.127 A 
ATOM     18  C   UNL     1       1.645   5.335  -4.688  0.00  0.00    +0.034 A 
ATOM     19  C   UNL     1       2.214   6.430  -4.064  0.00  0.00    +0.022 A 
ATOM     20  C   UNL     1       2.439   6.408  -2.699  0.00  0.00    +0.046 A 
ATOM     21 CL   UNL     1       3.154   7.782  -1.915  0.00  0.00    -0.083 Cl
BRANCH  17  22
ATOM     22  N   UNL     1       0.692   3.048  -4.616  0.00  0.00    +0.056 N 
ATOM     23  O   UNL     1       0.494   3.067  -5.818  0.00  0.00    -0.126 OA
ATOM     24  O   UNL     1       0.388   2.064  -3.964  0.00  0.00    -0.126 OA
ENDBRANCH  17  22
ENDBRANCH  12  15
BRANCH   1  25
ATOM     25  S   UNL     1      -2.875   1.026   0.045  0.00  0.00    +0.061 S 
ATOM     26  O   UNL     1      -3.835   1.921  -0.501  0.00  0.00    -0.153 OA
ATOM     27  O   UNL     1      -2.632  -0.260  -0.508  0.00  0.00    -0.153 OA
BRANCH  25  29
ATOM     28  C   UNL     1      -2.870  -0.428   2.325  0.00  0.00    +0.132 C 
ATOM     29  N   UNL     1      -3.296   0.788   1.628  0.00  0.00    -0.175 NA
BRANCH  29  30
ATOM     30  C   UNL     1      -4.096   1.794   2.333  0.00  0.00    +0.144 C 
BRANCH  30  31
ATOM     31  C   UNL     1      -5.553   1.417   2.263  0.00  0.00    -0.032 A 
ATOM     32  C   UNL     1      -6.335   1.871   1.218  0.00  0.00    +0.005 A 
ATOM     33  C   UNL     1      -7.671   1.521   1.152  0.00  0.00    +0.000 A 
ATOM     34  C   UNL     1      -8.227   0.725   2.136  0.00  0.00    +0.000 A 
ATOM     35  C   UNL     1      -7.445   0.275   3.184  0.00  0.00    +0.000 A 
ATOM     36  C   UNL     1      -6.109   0.621   3.248  0.00  0.00    +0.005 A 
ENDBRANCH  30  31
ENDBRANCH  29  30
ENDBRANCH  25  29
ENDBRANCH   1  25
TORSDOF 6
