REMARK  Name = ZINC09569519
REMARK  6 active torsions:
REMARK  status: ('A' for Active; 'I' for Inactive)
REMARK    1  A    between atoms: C_1  and  S_2
REMARK    2  A    between atoms: S_2  and  N_5
REMARK    3  A    between atoms: C_12  and  N_15
REMARK    4  A    between atoms: N_15  and  S_16
REMARK    5  A    between atoms: S_16  and  C_19
REMARK    6  A    between atoms: C_22  and  N_25
REMARK                            x       y       z     vdW  Elec       q    Type
REMARK                         _______ _______ _______ _____ _____    ______ ____
ROOT
ATOM      1  N   UNL     1       1.167   3.361   0.206  0.00  0.00    -0.207 N 
ATOM      2  C   UNL     1       2.443   4.055   0.422  0.00  0.00    +0.131 C 
ATOM      3  C   UNL     1       3.496   3.390  -0.474  0.00  0.00    +0.025 C 
ATOM      4  C   UNL     1       3.671   1.936  -0.035  0.00  0.00    +0.038 C 
ATOM      5  C   UNL     1       2.336   1.245   0.044  0.00  0.00    -0.025 A 
ATOM      6  C   UNL     1       1.155   1.962   0.165  0.00  0.00    +0.056 A 
ATOM      7  C   UNL     1      -0.061   1.295   0.243  0.00  0.00    +0.049 A 
ATOM      8  C   UNL     1      -0.095  -0.091   0.196  0.00  0.00    +0.050 A 
ATOM      9  C   UNL     1       1.089  -0.806   0.071  0.00  0.00    +0.025 A 
ATOM     10  C   UNL     1       2.296  -0.139  -0.004  0.00  0.00    +0.007 A 
ENDROOT
BRANCH   1  12
ATOM     11  C   UNL     1      -1.016   4.215   1.650  0.00  0.00    +0.218 C 
ATOM     12  S   UNL     1      -0.236   4.220   0.013  0.00  0.00    +0.043 S 
ATOM     13  O   UNL     1       0.188   5.535  -0.324  0.00  0.00    -0.155 OA
ATOM     14  O   UNL     1      -1.009   3.453  -0.900  0.00  0.00    -0.155 OA
ENDBRANCH   1  12
BRANCH   8  15
ATOM     15  N   UNL     1      -1.316  -0.765   0.274  0.00  0.00    -0.216 N 
ATOM     16  H   UNL     1      -1.968  -0.511   0.945  0.00  0.00    +0.174 HD
BRANCH  15  17
ATOM     17  S   UNL     1      -1.650  -1.997  -0.780  0.00  0.00    +0.072 S 
ATOM     18  O   UNL     1      -0.553  -2.898  -0.713  0.00  0.00    -0.150 OA
ATOM     19  O   UNL     1      -2.986  -2.404  -0.520  0.00  0.00    -0.150 OA
BRANCH  17  20
ATOM     20  C   UNL     1      -1.640  -1.312  -2.404  0.00  0.00    +0.109 A 
ATOM     21  C   UNL     1      -2.780  -0.714  -2.908  0.00  0.00    +0.031 A 
ATOM     22  C   UNL     1      -2.770  -0.172  -4.180  0.00  0.00    +0.034 A 
ATOM     23  C   UNL     1      -1.625  -0.237  -4.950  0.00  0.00    +0.126 A 
ATOM     24  C   UNL     1      -0.487  -0.839  -4.448  0.00  0.00    +0.034 A 
ATOM     25  C   UNL     1      -0.494  -1.377  -3.174  0.00  0.00    +0.031 A 
BRANCH  23  26
ATOM     26  N   UNL     1      -1.616   0.339  -6.314  0.00  0.00    +0.056 N 
ATOM     27  O   UNL     1      -0.607   0.283  -6.993  0.00  0.00    -0.126 OA
ATOM     28  O   UNL     1      -2.619   0.870  -6.757  0.00  0.00    -0.126 OA
ENDBRANCH  23  26
ENDBRANCH  17  20
ENDBRANCH  15  17
ENDBRANCH   8  15
TORSDOF 5
