REMARK  Name = ZINC36499162
REMARK  14 active torsions:
REMARK  status: ('A' for Active; 'I' for Inactive)
REMARK    1  A    between atoms: C_1  and  C_2
REMARK    2  A    between atoms: C_2  and  C_3
REMARK    3  A    between atoms: C_2  and  C_4
REMARK    4  A    between atoms: C_2  and  C_5
REMARK    5  A    between atoms: C_5  and  C_6
REMARK    6  A    between atoms: C_6  and  C_7
REMARK    7  A    between atoms: C_6  and  C_8
REMARK    8  A    between atoms: C_6  and  N_9
REMARK    9  A    between atoms: C_10  and  C_12
REMARK   10  A    between atoms: C_12  and  C_14
REMARK   11  A    between atoms: C_12  and  N_21
REMARK   12  A    between atoms: N_21  and  C_22
REMARK   13  A    between atoms: C_22  and  C_23
REMARK   14  A    between atoms: C_28  and  C_30
REMARK                            x       y       z     vdW  Elec       q    Type
REMARK                         _______ _______ _______ _____ _____    ______ ____
ROOT
ATOM      1  C   UNL     1       5.079   0.074  -5.672  0.00  0.00    +0.193 C 
ENDROOT
BRANCH   1   2
ATOM      2  C   UNL     1       4.434  -1.274  -5.473  0.00  0.00    -0.018 A 
ATOM      3  C   UNL     1       5.084  -2.250  -4.741  0.00  0.00    +0.007 A 
ATOM      4  C   UNL     1       4.494  -3.486  -4.559  0.00  0.00    +0.020 A 
ATOM      5  C   UNL     1       3.252  -3.747  -5.109  0.00  0.00    +0.041 A 
ATOM      6  C   UNL     1       2.601  -2.770  -5.842  0.00  0.00    +0.020 A 
ATOM      7  C   UNL     1       3.191  -1.532  -6.019  0.00  0.00    +0.007 A 
ATOM      8 CL   UNL     1       2.509  -5.299  -4.881  0.00  0.00    -0.084 Cl
ENDBRANCH   1   2
BRANCH   1  10
ATOM      9  N   UNL     1       3.378   1.174  -4.253  0.00  0.00    -0.308 N 
ATOM     10  C   UNL     1       4.681   0.992  -4.545  0.00  0.00    +0.239 C 
ATOM     11  O   UNL     1       5.533   1.567  -3.901  0.00  0.00    -0.273 OA
ATOM     12  H   UNL     1       2.700   0.660  -4.718  0.00  0.00    +0.149 HD
BRANCH   9  13
ATOM     13  C   UNL     1       2.986   2.149  -3.232  0.00  0.00    +0.030 C 
ATOM     14  C   UNL     1       3.822   3.420  -3.392  0.00  0.00    +0.031 C 
ATOM     15  C   UNL     1       3.222   1.555  -1.842  0.00  0.00    +0.031 C 
BRANCH  13  16
ATOM     16  C   UNL     1       1.503   2.490  -3.395  0.00  0.00    +0.031 C 
BRANCH  16  18
ATOM     17  C   UNL     1       0.924   1.243  -5.481  0.00  0.00    +0.010 C 
ATOM     18  C   UNL     1       1.173   2.629  -4.882  0.00  0.00    -0.036 C 
ATOM     19  C   UNL     1       2.345   3.295  -5.605  0.00  0.00    +0.010 C 
ATOM     20  C   UNL     1      -0.082   3.489  -5.047  0.00  0.00    +0.010 C 
ENDBRANCH  16  18
ENDBRANCH  13  16
ENDBRANCH   9  13
ENDBRANCH   1  10
BRANCH   1  21
ATOM     21  N   UNL     1       6.536  -0.079  -5.686  0.00  0.00    -0.275 N 
ATOM     22  C   UNL     1       7.150  -0.583  -6.774  0.00  0.00    +0.248 C 
ATOM     23  O   UNL     1       8.329  -0.877  -6.725  0.00  0.00    -0.270 OA
BRANCH  22  24
ATOM     24  C   UNL     1       6.391  -0.778  -8.028  0.00  0.00    +0.038 A 
ATOM     25  C   UNL     1       4.996  -0.815  -8.003  0.00  0.00    +0.013 A 
ATOM     26  C   UNL     1       4.293  -0.997  -9.176  0.00  0.00    +0.002 A 
ATOM     27  C   UNL     1       4.967  -1.143 -10.375  0.00  0.00    +0.020 A 
ATOM     28  C   UNL     1       6.351  -1.107 -10.407  0.00  0.00    +0.042 A 
ATOM     29  C   UNL     1       7.066  -0.921  -9.241  0.00  0.00    +0.033 A 
ATOM     30 CL   UNL     1       7.188  -1.292 -11.917  0.00  0.00    -0.084 Cl
ENDBRANCH  22  24
BRANCH  21  31
ATOM     31  C   UNL     1       7.325   0.316  -4.516  0.00  0.00    +0.183 C 
BRANCH  31  32
ATOM     32  C   UNL     1       7.964   1.656  -4.771  0.00  0.00    +0.122 A 
ATOM     33  C   UNL     1       7.389   2.854  -4.564  0.00  0.00    +0.046 A 
ATOM     34  C   UNL     1       8.339   3.834  -4.933  0.00  0.00    +0.041 A 
ATOM     35  C   UNL     1       9.438   3.177  -5.344  0.00  0.00    +0.195 A 
ATOM     36  O   UNL     1       9.207   1.858  -5.238  0.00  0.00    -0.466 OA
ENDBRANCH  31  32
ENDBRANCH  21  31
ENDBRANCH   1  21
TORSDOF 9
