REMARK  Name = ZINC01405750
REMARK  8 active torsions:
REMARK  status: ('A' for Active; 'I' for Inactive)
REMARK    1  A    between atoms: C_1  and  C_2
REMARK    2  A    between atoms: C_2  and  N_3
REMARK    3  A    between atoms: C_4  and  C_30
REMARK    4  A    between atoms: C_5  and  N_15
REMARK    5  A    between atoms: C_16  and  C_18
REMARK    6  A    between atoms: C_18  and  O_19
REMARK    7  A    between atoms: O_19  and  C_20
REMARK    8  A    between atoms: C_30  and  C_32
REMARK                            x       y       z     vdW  Elec       q    Type
REMARK                         _______ _______ _______ _____ _____    ______ ____
ROOT
ATOM      1  N   UNL     1      -1.292  -2.182  -0.055  0.00  0.00    -0.198 N 
ATOM      2  C   UNL     1      -1.191  -0.781  -0.119  0.00  0.00    +0.120 C 
ATOM      3  C   UNL     1      -2.280   0.034   0.011  0.00  0.00    +0.069 C 
ATOM      4  C   UNL     1      -3.649  -0.450   0.225  0.00  0.00    +0.025 A 
ATOM      5  C   UNL     1      -4.740   0.401   0.015  0.00  0.00    +0.012 A 
ATOM      6  C   UNL     1      -6.022  -0.064   0.218  0.00  0.00    +0.001 A 
ATOM      7  C   UNL     1      -6.240  -1.368   0.628  0.00  0.00    +0.002 A 
ATOM      8  C   UNL     1      -5.167  -2.219   0.840  0.00  0.00    +0.029 A 
ATOM      9  C   UNL     1      -3.886  -1.765   0.642  0.00  0.00    +0.118 A 
ATOM     10  S   UNL     1      -2.495  -2.823   0.907  0.00  0.00    +0.075 S 
ATOM     11  O   UNL     1      -2.091  -2.647   2.258  0.00  0.00    -0.150 OA
ATOM     12  O   UNL     1      -2.829  -4.092   0.363  0.00  0.00    -0.150 OA
ENDROOT
BRANCH   3  13
ATOM     13  N   UNL     1      -2.079   1.403  -0.066  0.00  0.00    -0.281 N 
ATOM     14  C   UNL     1      -2.723   2.128  -1.002  0.00  0.00    +0.255 C 
ATOM     15  O   UNL     1      -3.429   1.574  -1.818  0.00  0.00    -0.272 OA
ATOM     16  H   UNL     1      -1.475   1.841   0.555  0.00  0.00    +0.155 HD
BRANCH  14  17
ATOM     17  C   UNL     1      -2.566   3.626  -1.036  0.00  0.00    +0.324 C 
BRANCH  17  18
ATOM     18  O   UNL     1      -3.439   4.175  -2.025  0.00  0.00    -0.482 OA
BRANCH  18  19
ATOM     19  C   UNL     1      -3.421   5.523  -2.184  0.00  0.00    +0.129 A 
ATOM     20  C   UNL     1      -2.592   6.295  -1.419  0.00  0.00    +0.046 A 
ATOM     21  C   UNL     1      -2.561   7.678  -1.571  0.00  0.00    +0.004 A 
ATOM     22  C   UNL     1      -3.355   8.303  -2.484  0.00  0.00    +0.009 A 
ATOM     23  C   UNL     1      -4.221   7.545  -3.291  0.00  0.00    -0.014 A 
ATOM     24  C   UNL     1      -4.251   6.136  -3.144  0.00  0.00    +0.024 A 
ATOM     25  C   UNL     1      -5.120   5.379  -3.947  0.00  0.00    +0.012 A 
ATOM     26  C   UNL     1      -5.912   6.006  -4.859  0.00  0.00    +0.001 A 
ATOM     27  C   UNL     1      -5.879   7.391  -5.007  0.00  0.00    +0.001 A 
ATOM     28  C   UNL     1      -5.053   8.157  -4.244  0.00  0.00    +0.008 A 
ENDBRANCH  18  19
ENDBRANCH  17  18
ENDBRANCH  14  17
ENDBRANCH   3  13
BRANCH   1  30
ATOM     29  C   UNL     1       0.873  -3.315   0.041  0.00  0.00    +0.026 C 
ATOM     30  C   UNL     1      -0.374  -3.044  -0.803  0.00  0.00    +0.128 C 
ENDBRANCH   1  30
BRANCH   2  31
ATOM     31  C   UNL     1       0.080  -0.197  -0.331  0.00  0.00    +0.210 C 
ATOM     32  O   UNL     1       1.013  -0.486   0.398  0.00  0.00    -0.285 OA
BRANCH  31  33
ATOM     33  C   UNL     1       0.277   0.765  -1.437  0.00  0.00    +0.024 A 
ATOM     34  C   UNL     1      -0.774   1.057  -2.308  0.00  0.00    +0.012 A 
ATOM     35  C   UNL     1      -0.586   1.958  -3.335  0.00  0.00    +0.001 A 
ATOM     36  C   UNL     1       0.645   2.566  -3.508  0.00  0.00    +0.000 A 
ATOM     37  C   UNL     1       1.693   2.277  -2.652  0.00  0.00    +0.001 A 
ATOM     38  C   UNL     1       1.516   1.382  -1.618  0.00  0.00    +0.012 A 
ENDBRANCH  31  33
ENDBRANCH   2  31
TORSDOF 7
