REMARK  Name = ZINC01864734
REMARK  5 active torsions:
REMARK  status: ('A' for Active; 'I' for Inactive)
REMARK    1  A    between atoms: C_3  and  C_6
REMARK    2  A    between atoms: C_17  and  C_21
REMARK    3  A    between atoms: C_24  and  O_27
REMARK    4  A    between atoms: O_27  and  C_28
REMARK    5  A    between atoms: C_28  and  C_30
REMARK                            x       y       z     vdW  Elec       q    Type
REMARK                         _______ _______ _______ _____ _____    ______ ____
ROOT
ATOM      1  C   UNL     1       3.933  -0.058   0.082  0.00  0.00    +0.082 C 
ATOM      2  C   UNL     1       4.908  -1.001   0.145  0.00  0.00    +0.026 C 
ATOM      3  C   UNL     1       6.189  -0.213   0.078  0.00  0.00    +0.138 C 
ATOM      4  C   UNL     1       7.304  -0.663   0.963  0.00  0.00    +0.018 A 
ATOM      5  C   UNL     1       7.564  -1.999   1.179  0.00  0.00    +0.024 A 
ATOM      6  C   UNL     1       8.614  -2.379   1.997  0.00  0.00    +0.018 A 
ATOM      7  C   UNL     1       9.402  -1.413   2.597  0.00  0.00    +0.019 A 
ATOM      8  C   UNL     1       9.143  -0.075   2.386  0.00  0.00    +0.047 A 
ATOM      9  C   UNL     1       8.087   0.316   1.571  0.00  0.00    +0.128 A 
ATOM     10  O   UNL     1       7.839   1.643   1.406  0.00  0.00    -0.468 OA
ATOM     11  C   UNL     1       6.789   2.057   0.513  0.00  0.00    +0.294 C 
ATOM     12  N   UNL     1       5.717   1.096   0.627  0.00  0.00    -0.175 NA
ATOM     13  N   UNL     1       4.527   1.225  -0.008  0.00  0.00    -0.271 N 
ATOM     14 BR   UNL     1       8.969  -4.212   2.294  0.00  0.00    -0.050 Br
ATOM     15  H   UNL     1       4.160   2.018  -0.428  0.00  0.00    +0.167 HD
ENDROOT
BRANCH  11  16
ATOM     16  C   UNL     1       7.297   2.077  -0.905  0.00  0.00    +0.009 A 
ATOM     17  C   UNL     1       6.405   2.171  -1.957  0.00  0.00    +0.012 A 
ATOM     18  C   UNL     1       6.868   2.191  -3.258  0.00  0.00    +0.047 A 
ATOM     19  C   UNL     1       8.231   2.115  -3.509  0.00  0.00    +0.132 A 
ATOM     20  C   UNL     1       9.124   2.021  -2.452  0.00  0.00    +0.047 A 
ATOM     21  C   UNL     1       8.656   2.008  -1.153  0.00  0.00    +0.012 A 
BRANCH  19  22
ATOM     22  O   UNL     1       8.689   2.134  -4.788  0.00  0.00    -0.422 OA
BRANCH  22  23
ATOM     23  C   UNL     1       8.710   3.315  -5.436  0.00  0.00    +0.344 C 
ATOM     24  O   UNL     1       8.416   4.336  -4.847  0.00  0.00    -0.245 OA
BRANCH  23  25
ATOM     25  C   UNL     1       9.091   3.369  -6.862  0.00  0.00    +0.059 A 
ATOM     26  C   UNL     1       9.424   2.196  -7.543  0.00  0.00    +0.016 A 
ATOM     27  C   UNL     1       9.779   2.253  -8.875  0.00  0.00    +0.016 A 
ATOM     28  C   UNL     1       9.805   3.469  -9.536  0.00  0.00    +0.018 A 
ATOM     29  C   UNL     1       9.477   4.636  -8.866  0.00  0.00    +0.016 A 
ATOM     30  C   UNL     1       9.115   4.592  -7.536  0.00  0.00    +0.016 A 
ATOM     31 BR   UNL     1      10.293   3.538 -11.362  0.00  0.00    -0.050 Br
ENDBRANCH  23  25
ENDBRANCH  22  23
ENDBRANCH  19  22
ENDBRANCH  11  16
BRANCH   1  34
ATOM     32  C   UNL     1       0.274  -0.092   0.076  0.00  0.00    +0.042 A 
ATOM     33  C   UNL     1       1.496   0.606   0.030  0.00  0.00    +0.051 A 
ATOM     34  C   UNL     1       2.484  -0.328   0.098  0.00  0.00    +0.149 A 
ATOM     35  O   UNL     1       1.906  -1.543   0.181  0.00  0.00    -0.462 OA
ATOM     36  C   UNL     1       0.571  -1.404   0.168  0.00  0.00    +0.196 A 
ENDBRANCH   1  34
TORSDOF 5
