REMARK  Name = ZINC12569006
REMARK  6 active torsions:
REMARK  status: ('A' for Active; 'I' for Inactive)
REMARK    1  A    between atoms: C_1  and  C_2
REMARK    2  A    between atoms: N_11  and  C_15
REMARK    3  A    between atoms: C_15  and  C_16
REMARK    4  A    between atoms: C_19  and  C_22
REMARK    5  A    between atoms: C_22  and  N_23
REMARK    6  A    between atoms: C_31  and  C_33
REMARK                            x       y       z     vdW  Elec       q    Type
REMARK                         _______ _______ _______ _____ _____    ______ ____
ROOT
ATOM      1  C   UNL     1      -3.995   2.475  -1.714  0.00  0.00    -0.030 A 
ATOM      2  C   UNL     1      -3.983   1.683  -2.847  0.00  0.00    +0.005 A 
ATOM      3  C   UNL     1      -5.028   0.813  -3.093  0.00  0.00    +0.005 A 
ATOM      4  C   UNL     1      -6.091   0.742  -2.212  0.00  0.00    -0.030 A 
ATOM      5  C   UNL     1      -6.106   1.538  -1.082  0.00  0.00    +0.005 A 
ATOM      6  C   UNL     1      -5.058   2.404  -0.833  0.00  0.00    +0.005 A 
ENDROOT
BRANCH   1   7
ATOM      7  C   UNL     1      -2.853   3.420  -1.443  0.00  0.00    +0.153 C 
BRANCH   7  17
ATOM      8  C   UNL     1       1.345   3.608   0.044  0.00  0.00    +0.010 C 
ATOM      9  C   UNL     1       1.400   2.080  -0.000  0.00  0.00    +0.018 C 
ATOM     10  C   UNL     1       2.165   1.562   1.220  0.00  0.00    +0.006 C 
ATOM     11  C   UNL     1       2.202   0.033   1.186  0.00  0.00    +0.000 C 
ATOM     12  C   UNL     1       0.773  -0.514   1.222  0.00  0.00    +0.003 C 
ATOM     13  C   UNL     1       0.002  -0.004   0.002  0.00  0.00    +0.035 C 
ATOM     14  C   UNL     1      -0.019   1.520   0.010  0.00  0.00    +0.115 C 
ATOM     15  C   UNL     1      -0.800   2.043  -1.174  0.00  0.00    +0.247 C 
ATOM     16  O   UNL     1      -0.551   1.875  -2.348  0.00  0.00    -0.273 OA
ATOM     17  N   UNL     1      -1.831   2.735  -0.648  0.00  0.00    -0.220 N 
ATOM     18  C   UNL     1      -1.804   2.719   0.691  0.00  0.00    +0.310 C 
ATOM     19  O   UNL     1      -2.630   3.273   1.390  0.00  0.00    -0.252 OA
ATOM     20  N   UNL     1      -0.761   2.019   1.175  0.00  0.00    -0.285 N 
ATOM     21  H   UNL     1      -0.542   1.873   2.109  0.00  0.00    +0.151 HD
ENDBRANCH   7  17
ENDBRANCH   1   7
BRANCH   4  22
ATOM     22  C   UNL     1      -7.234  -0.202  -2.484  0.00  0.00    +0.153 C 
BRANCH  22  23
ATOM     23  N   UNL     1      -8.255   0.483  -3.279  0.00  0.00    -0.220 N 
ATOM     24  C   UNL     1      -8.282   0.500  -4.628  0.00  0.00    +0.247 C 
ATOM     25  O   UNL     1      -7.495  -0.028  -5.384  0.00  0.00    -0.273 OA
ATOM     26  C   UNL     1      -9.499   1.317  -4.997  0.00  0.00    +0.115 C 
ATOM     27  C   UNL     1      -9.088   2.552  -5.791  0.00  0.00    +0.035 C 
ATOM     28  C   UNL     1     -10.330   3.380  -6.131  0.00  0.00    +0.003 C 
ATOM     29  C   UNL     1     -11.302   2.527  -6.949  0.00  0.00    +0.000 C 
ATOM     30  C   UNL     1     -11.723   1.305  -6.130  0.00  0.00    +0.006 C 
ATOM     31  C   UNL     1     -10.487   0.469  -5.790  0.00  0.00    +0.018 C 
ATOM     32  C   UNL     1     -10.905  -0.742  -4.953  0.00  0.00    +0.010 C 
ATOM     33  N   UNL     1     -10.075   1.705  -3.703  0.00  0.00    -0.285 N 
ATOM     34  C   UNL     1      -9.282   1.166  -2.757  0.00  0.00    +0.310 C 
ATOM     35  O   UNL     1      -9.475   1.288  -1.563  0.00  0.00    -0.252 OA
ATOM     36  H   UNL     1     -10.871   2.239  -3.558  0.00  0.00    +0.151 HD
ENDBRANCH  22  23
ENDBRANCH   4  22
TORSDOF 4
