REMARK  Name = ZINC14978357
REMARK  8 active torsions:
REMARK  status: ('A' for Active; 'I' for Inactive)
REMARK    1  A    between atoms: C_1  and  C_2
REMARK    2  A    between atoms: C_4  and  C_7
REMARK    3  A    between atoms: C_7  and  C_9
REMARK    4  A    between atoms: C_7  and  N_60
REMARK    5  A    between atoms: C_10  and  C_11
REMARK    6  A    between atoms: C_10  and  N_60
REMARK    7  A    between atoms: N_19  and  C_22
REMARK    8  A    between atoms: C_22  and  C_23
REMARK                            x       y       z     vdW  Elec       q    Type
REMARK                         _______ _______ _______ _____ _____    ______ ____
ROOT
ATOM      1  C   UNL     1       6.405  -4.156   0.472  0.00  0.00    +0.001 A 
ATOM      2  C   UNL     1       5.899  -4.954  -0.500  0.00  0.00    +0.017 A 
ATOM      3  C   UNL     1       4.446  -5.118  -0.584  0.00  0.00    -0.001 A 
ATOM      4  C   UNL     1       3.864  -5.926  -1.564  0.00  0.00    +0.014 A 
ATOM      5  C   UNL     1       2.504  -6.075  -1.610  0.00  0.00    -0.043 A 
ATOM      6  C   UNL     1       1.693  -5.412  -0.697  0.00  0.00    -0.042 A 
ATOM      7  C   UNL     1       2.250  -4.604   0.276  0.00  0.00    +0.030 A 
ATOM      8  C   UNL     1       3.629  -4.449   0.346  0.00  0.00    +0.053 A 
ATOM      9  N   UNL     1       4.207  -3.648   1.308  0.00  0.00    -0.304 N 
ATOM     10  C   UNL     1       5.542  -3.503   1.377  0.00  0.00    +0.253 A 
ATOM     11  O   UNL     1       6.018  -2.790   2.244  0.00  0.00    -0.267 OA
ATOM     12  C   UNL     1       0.240  -5.737  -0.977  0.00  0.00    +0.036 C 
ATOM     13  C   UNL     1       0.222  -6.305  -2.411  0.00  0.00    +0.009 C 
ATOM     14  C   UNL     1       1.645  -6.884  -2.559  0.00  0.00    +0.036 C 
ENDROOT
BRANCH   1  15
ATOM     15  C   UNL     1       7.896  -3.965   0.586  0.00  0.00    -0.040 C 
BRANCH  15  16
ATOM     16  N   UNL     1       8.283  -2.741  -0.139  0.00  0.00    +0.387 N 
ATOM     17  H   UNL     1       8.018  -2.833  -1.127  0.00  0.00    -0.085 HD
ATOM     18  H   UNL     1       7.796  -1.935   0.272  0.00  0.00    -0.085 HD
BRANCH  16  19
ATOM     19  C   UNL     1       9.740  -2.528  -0.044  0.00  0.00    -0.024 C 
ATOM     20  C   UNL     1      10.065  -1.787   1.254  0.00  0.00    -0.007 C 
BRANCH  19  24
ATOM     21  C   UNL     1       8.945   0.789  -3.704  0.00  0.00    +0.073 C 
ATOM     22  C   UNL     1       9.749  -0.177  -2.871  0.00  0.00    +0.075 A 
ATOM     23  N   UNL     1       9.363  -0.900  -1.845  0.00  0.00    -0.251 NA
ATOM     24  C   UNL     1      10.197  -1.705  -1.221  0.00  0.00    +0.035 A 
ATOM     25  C   UNL     1      11.480  -1.771  -1.658  0.00  0.00    +0.068 A 
ATOM     26  S   UNL     1      11.421  -0.620  -3.025  0.00  0.00    -0.081 S 
ENDBRANCH  19  24
ENDBRANCH  16  19
ENDBRANCH  15  16
ENDBRANCH   1  15
BRANCH   9  27
ATOM     27  C   UNL     1       3.354  -2.949   2.273  0.00  0.00    +0.162 C 
BRANCH  27  28
ATOM     28  C   UNL     1       2.881  -1.649   1.676  0.00  0.00    -0.006 A 
ATOM     29  C   UNL     1       3.363  -1.238   0.447  0.00  0.00    +0.056 A 
ATOM     30  C   UNL     1       2.929  -0.044  -0.104  0.00  0.00    +0.167 A 
ATOM     31  C   UNL     1       2.006   0.742   0.582  0.00  0.00    +0.168 A 
ATOM     32  C   UNL     1       1.527   0.325   1.813  0.00  0.00    +0.070 A 
ATOM     33  C   UNL     1       1.964  -0.870   2.358  0.00  0.00    +0.050 A 
ATOM     34 CL   UNL     1       1.361  -1.390   3.900  0.00  0.00    -0.083 Cl
ATOM     35  O   UNL     1       1.742   1.855  -0.163  0.00  0.00    -0.453 OA
ATOM     36  C   UNL     1       2.198   1.545  -1.492  0.00  0.00    +0.466 C 
ATOM     37  O   UNL     1       3.243   0.577  -1.279  0.00  0.00    -0.453 OA
ENDBRANCH  27  28
ENDBRANCH   9  27
TORSDOF 6
