REMARK  Name = ZINC36811853
REMARK  9 active torsions:
REMARK  status: ('A' for Active; 'I' for Inactive)
REMARK    1  A    between atoms: C_1  and  C_2
REMARK    2  A    between atoms: C_2  and  C_3
REMARK    3  A    between atoms: C_3  and  C_4
REMARK    4  A    between atoms: C_4  and  N_5
REMARK    5  A    between atoms: C_11  and  C_16
REMARK    6  A    between atoms: N_18  and  C_19
REMARK    7  A    between atoms: C_19  and  C_20
REMARK    8  A    between atoms: C_20  and  C_22
REMARK    9  A    between atoms: C_20  and  N_27
REMARK                            x       y       z     vdW  Elec       q    Type
REMARK                         _______ _______ _______ _____ _____    ______ ____
ROOT
ATOM      1  C   UNL     1       5.197  -4.039  -6.817  0.00  0.00    +0.244 C 
ATOM      2  O   UNL     1       6.196  -4.048  -6.123  0.00  0.00    -0.270 OA
ATOM      3  N   UNL     1       5.244  -4.525  -8.073  0.00  0.00    -0.312 N 
ATOM      4  H   UNL     1       4.448  -4.518  -8.626  0.00  0.00    +0.149 HD
ENDROOT
BRANCH   1  11
ATOM      5  N   UNL     1       0.983  -1.558  -3.264  0.00  0.00    -0.234 N 
ATOM      6  C   UNL     1       0.469  -1.873  -4.467  0.00  0.00    +0.254 C 
ATOM      7  O   UNL     1      -0.679  -1.692  -4.817  0.00  0.00    -0.270 OA
ATOM      8  C   UNL     1       1.540  -2.474  -5.294  0.00  0.00    +0.049 A 
ATOM      9  C   UNL     1       1.595  -2.975  -6.585  0.00  0.00    +0.014 A 
ATOM     10  C   UNL     1       2.785  -3.483  -7.078  0.00  0.00    +0.014 A 
ATOM     11  C   UNL     1       3.930  -3.493  -6.281  0.00  0.00    +0.037 A 
ATOM     12  C   UNL     1       3.883  -2.990  -4.978  0.00  0.00    +0.027 A 
ATOM     13  C   UNL     1       2.694  -2.481  -4.484  0.00  0.00    +0.050 A 
ATOM     14  C   UNL     1       2.287  -1.880  -3.196  0.00  0.00    +0.254 C 
ATOM     15  O   UNL     1       3.010  -1.708  -2.235  0.00  0.00    -0.270 OA
BRANCH   5  16
ATOM     16  C   UNL     1       0.223  -0.941  -2.175  0.00  0.00    +0.117 C 
BRANCH  16  17
ATOM     17  C   UNL     1       0.308   0.582  -2.293  0.00  0.00    +0.019 C 
BRANCH  17  19
ATOM     18  C   UNL     1      -0.401   2.750  -1.273  0.00  0.00    +0.004 C 
ATOM     19  C   UNL     1      -0.485   1.226  -1.155  0.00  0.00    -0.002 C 
ENDBRANCH  17  19
ENDBRANCH  16  17
ENDBRANCH   5  16
ENDBRANCH   1  11
BRANCH   3  20
ATOM     20  C   UNL     1       6.499  -5.065  -8.602  0.00  0.00    +0.097 C 
BRANCH  20  21
ATOM     21  C   UNL     1       6.251  -5.666  -9.988  0.00  0.00    +0.016 C 
BRANCH  21  22
ATOM     22  N   UNL     1       5.163  -6.650  -9.907  0.00  0.00    +0.387 N 
ATOM     23  C   UNL     1       5.541  -7.720  -8.977  0.00  0.00    -0.078 C 
ATOM     24  C   UNL     1       4.380  -8.705  -8.827  0.00  0.00    -0.019 C 
ATOM     25  C   UNL     1       4.050  -9.309 -10.195  0.00  0.00    -0.004 C 
ATOM     26  C   UNL     1       3.729  -8.178 -11.177  0.00  0.00    -0.019 C 
ATOM     27  C   UNL     1       4.915  -7.213 -11.239  0.00  0.00    -0.078 C 
ATOM     28  H   UNL     1       4.325  -6.197  -9.572  0.00  0.00    -0.081 HD
ENDBRANCH  21  22
BRANCH  21  29
ATOM     29  C   UNL     1       5.867  -4.571 -10.949  0.00  0.00    +0.093 A 
ATOM     30  C   UNL     1       6.686  -3.986 -11.842  0.00  0.00    +0.043 A 
ATOM     31  C   UNL     1       5.917  -3.019 -12.530  0.00  0.00    +0.041 A 
ATOM     32  C   UNL     1       4.675  -3.072 -12.017  0.00  0.00    +0.195 A 
ATOM     33  O   UNL     1       4.649  -4.017 -11.063  0.00  0.00    -0.469 OA
ENDBRANCH  21  29
ENDBRANCH  20  21
ENDBRANCH   3  20
TORSDOF 8
