REMARK  Name = ZINC37357595
REMARK  7 active torsions:
REMARK  status: ('A' for Active; 'I' for Inactive)
REMARK    1  A    between atoms: C_1  and  C_2
REMARK    2  A    between atoms: C_6  and  N_8
REMARK    3  A    between atoms: C_9  and  N_33
REMARK    4  A    between atoms: C_11  and  C_26
REMARK    5  A    between atoms: N_17  and  C_18
REMARK    6  A    between atoms: C_18  and  C_19
REMARK    7  A    between atoms: C_19  and  N_20
REMARK                            x       y       z     vdW  Elec       q    Type
REMARK                         _______ _______ _______ _____ _____    ______ ____
ROOT
ATOM      1  N   UNL     1      -0.294  -2.682   2.574  0.00  0.00    -0.216 N 
ATOM      2  C   UNL     1      -0.635  -3.982   2.666  0.00  0.00    +0.131 A 
ATOM      3  C   UNL     1      -0.086  -4.475   3.844  0.00  0.00    +0.086 A 
ATOM      4  C   UNL     1      -0.070  -5.722   4.508  0.00  0.00    +0.089 A 
ATOM      5  N   UNL     1       0.585  -5.812   5.659  0.00  0.00    -0.214 NA
ATOM      6  C   UNL     1       1.219  -4.774   6.196  0.00  0.00    +0.218 A 
ATOM      7  N   UNL     1       1.255  -3.578   5.644  0.00  0.00    -0.193 NA
ATOM      8  C   UNL     1       0.630  -3.350   4.473  0.00  0.00    +0.189 A 
ATOM      9  N   UNL     1       0.480  -2.312   3.680  0.00  0.00    -0.144 NA
ATOM     10  N   UNL     1       1.876  -4.960   7.399  0.00  0.00    -0.315 N 
ATOM     11  H   UNL     1       1.867  -5.830   7.827  0.00  0.00    +0.149 HD
ENDROOT
BRANCH   1  17
ATOM     12  C   UNL     1      -1.572   1.804   1.016  0.00  0.00    +0.044 C 
ATOM     13  C   UNL     1      -1.282   0.351   0.742  0.00  0.00    -0.048 A 
ATOM     14  C   UNL     1      -1.375  -0.141  -0.547  0.00  0.00    +0.003 A 
ATOM     15  C   UNL     1      -1.110  -1.474  -0.803  0.00  0.00    +0.002 A 
ATOM     16  C   UNL     1      -0.752  -2.319   0.230  0.00  0.00    +0.028 A 
ATOM     17  C   UNL     1      -0.657  -1.828   1.525  0.00  0.00    +0.068 A 
ATOM     18  C   UNL     1      -0.919  -0.487   1.778  0.00  0.00    +0.031 A 
ENDBRANCH   1  17
BRANCH   4  19
ATOM     19  C   UNL     1      -0.766  -6.896   3.937  0.00  0.00    +0.001 A 
ATOM     20  C   UNL     1      -0.611  -7.214   2.587  0.00  0.00    +0.011 A 
ATOM     21  C   UNL     1      -1.262  -8.309   2.060  0.00  0.00    +0.020 A 
ATOM     22  C   UNL     1      -2.068  -9.094   2.868  0.00  0.00    +0.041 A 
ATOM     23  C   UNL     1      -2.225  -8.784   4.208  0.00  0.00    +0.020 A 
ATOM     24  C   UNL     1      -1.575  -7.694   4.747  0.00  0.00    +0.011 A 
ATOM     25 CL   UNL     1      -2.884 -10.472   2.197  0.00  0.00    -0.084 Cl
ENDBRANCH   4  19
BRANCH   2  26
ATOM     26  N   UNL     1      -1.392  -4.695   1.756  0.00  0.00    -0.342 N 
ATOM     27  H   UNL     1      -1.593  -4.313   0.887  0.00  0.00    +0.144 HD
ATOM     28  H   UNL     1      -1.722  -5.578   1.986  0.00  0.00    +0.144 HD
ENDBRANCH   2  26
BRANCH  10  29
ATOM     29  C   UNL     1       2.587  -3.842   8.025  0.00  0.00    +0.086 C 
BRANCH  29  30
ATOM     30  C   UNL     1       3.222  -4.312   9.335  0.00  0.00    -0.060 C 
BRANCH  30  31
ATOM     31  N   UNL     1       3.935  -3.191   9.963  0.00  0.00    +0.381 N 
ATOM     32  C   UNL     1       5.053  -2.782   9.105  0.00  0.00    -0.079 C 
ATOM     33  C   UNL     1       5.750  -1.563   9.715  0.00  0.00    -0.019 C 
ATOM     34  C   UNL     1       6.278  -1.927  11.105  0.00  0.00    -0.004 C 
ATOM     35  C   UNL     1       5.114  -2.423  11.969  0.00  0.00    -0.019 C 
ATOM     36  C   UNL     1       4.441  -3.610  11.276  0.00  0.00    -0.079 C 
ATOM     37  H   UNL     1       3.301  -2.414  10.080  0.00  0.00    -0.082 HD
ENDBRANCH  30  31
ENDBRANCH  29  30
ENDBRANCH  10  29
TORSDOF 6
