REMARK  Name = ZINC24145139
REMARK  9 active torsions:
REMARK  status: ('A' for Active; 'I' for Inactive)
REMARK    1  A    between atoms: C_4  and  N_7
REMARK    2  A    between atoms: C_11  and  C_31
REMARK    3  A    between atoms: C_16  and  S_17
REMARK    4  A    between atoms: S_17  and  C_18
REMARK    5  A    between atoms: C_18  and  C_19
REMARK    6  A    between atoms: C_19  and  O_20
REMARK    7  A    between atoms: O_20  and  C_21
REMARK    8  A    between atoms: C_24  and  S_27
REMARK    9  A    between atoms: S_27  and  N_30
REMARK                            x       y       z     vdW  Elec       q    Type
REMARK                         _______ _______ _______ _____ _____    ______ ____
ROOT
ATOM      1  N   UNL     1       1.148   2.030   0.002  0.00  0.00    -0.255 N 
ATOM      2  C   UNL     1       2.139   1.405   0.663  0.00  0.00    +0.268 A 
ATOM      3  O   UNL     1       2.983   2.048   1.264  0.00  0.00    -0.267 OA
ATOM      4  C   UNL     1       2.190  -0.025   0.652  0.00  0.00    +0.076 A 
ATOM      5  C   UNL     1       3.150  -0.915   1.282  0.00  0.00    -0.023 A 
ATOM      6  C   UNL     1       3.005  -2.241   1.139  0.00  0.00    +0.052 A 
ATOM      7  S   UNL     1       1.544  -2.392   0.130  0.00  0.00    -0.077 S 
ATOM      8  C   UNL     1       1.169  -0.669  -0.072  0.00  0.00    +0.116 A 
ATOM      9  N   UNL     1       0.218   0.008  -0.704  0.00  0.00    -0.216 NA
ATOM     10  C   UNL     1       0.194   1.325  -0.677  0.00  0.00    +0.177 A 
ENDROOT
BRANCH   1  14
ATOM     11  C   UNL     1       0.985   6.195   0.025  0.00  0.00    +0.000 A 
ATOM     12  C   UNL     1       1.690   5.537  -0.967  0.00  0.00    +0.002 A 
ATOM     13  C   UNL     1       1.745   4.157  -0.977  0.00  0.00    +0.026 A 
ATOM     14  C   UNL     1       1.093   3.430   0.010  0.00  0.00    +0.052 A 
ATOM     15  C   UNL     1       0.382   4.093   1.001  0.00  0.00    +0.026 A 
ATOM     16  C   UNL     1       0.335   5.474   1.009  0.00  0.00    +0.002 A 
ENDBRANCH   1  14
BRANCH   5  17
ATOM     17  C   UNL     1       4.294  -0.356   2.088  0.00  0.00    +0.020 C 
ATOM     18  C   UNL     1       5.375  -1.333   2.553  0.00  0.00    +0.009 C 
ATOM     19  C   UNL     1       4.381  -0.755   3.562  0.00  0.00    +0.009 C 
ENDBRANCH   5  17
BRANCH  10  20
ATOM     20  S   UNL     1      -1.080   2.189  -1.534  0.00  0.00    -0.084 S 
BRANCH  20  21
ATOM     21  C   UNL     1      -2.001   0.791  -2.221  0.00  0.00    +0.118 C 
BRANCH  21  22
ATOM     22  C   UNL     1      -3.191   1.311  -3.030  0.00  0.00    +0.240 C 
BRANCH  22  23
ATOM     23  O   UNL     1      -3.918   0.207  -3.572  0.00  0.00    -0.491 OA
BRANCH  23  24
ATOM     24  C   UNL     1      -5.013   0.498  -4.323  0.00  0.00    +0.121 A 
ATOM     25  C   UNL     1      -5.382   1.819  -4.530  0.00  0.00    +0.047 A 
ATOM     26  C   UNL     1      -6.492   2.113  -5.299  0.00  0.00    +0.032 A 
ATOM     27  C   UNL     1      -7.241   1.091  -5.852  0.00  0.00    +0.105 A 
ATOM     28  C   UNL     1      -6.878  -0.227  -5.643  0.00  0.00    +0.032 A 
ATOM     29  C   UNL     1      -5.766  -0.525  -4.880  0.00  0.00    +0.047 A 
BRANCH  27  30
ATOM     30  S   UNL     1      -8.660   1.468  -6.826  0.00  0.00    +0.056 S 
ATOM     31  O   UNL     1      -8.472   2.786  -7.324  0.00  0.00    -0.153 OA
ATOM     32  O   UNL     1      -8.873   0.354  -7.682  0.00  0.00    -0.153 OA
BRANCH  30  33
ATOM     33  N   UNL     1      -9.957   1.531  -5.798  0.00  0.00    -0.204 NA
ATOM     34  H   UNL     1     -10.867   1.765  -6.370  0.00  0.00    +0.144 HD
ATOM     35  H   UNL     1      -9.788   2.311  -5.042  0.00  0.00    +0.144 HD
ENDBRANCH  30  33
ENDBRANCH  27  30
ENDBRANCH  23  24
ENDBRANCH  22  23
ENDBRANCH  21  22
ENDBRANCH  20  21
ENDBRANCH  10  20
TORSDOF 9
