REMARK  Name = ZINC34789390
REMARK  11 active torsions:
REMARK  status: ('A' for Active; 'I' for Inactive)
REMARK    1  A    between atoms: C_1  and  C_2
REMARK    2  A    between atoms: C_2  and  N_3
REMARK    3  A    between atoms: N_3  and  C_4
REMARK    4  A    between atoms: N_3  and  C_6
REMARK    5  A    between atoms: C_4  and  C_5
REMARK    6  A    between atoms: C_6  and  C_7
REMARK    7  A    between atoms: C_7  and  C_8
REMARK    8  A    between atoms: C_8  and  N_9
REMARK    9  A    between atoms: C_10  and  C_12
REMARK   10  A    between atoms: C_12  and  N_13
REMARK   11  A    between atoms: C_25  and  C_30
REMARK                            x       y       z     vdW  Elec       q    Type
REMARK                         _______ _______ _______ _____ _____    ______ ____
ROOT
ATOM      1  N   UNL     1      -4.987  -6.845  -2.485  0.00  0.00    -0.277 N 
ATOM      2  C   UNL     1      -5.034  -7.325  -3.765  0.00  0.00    +0.096 A 
ATOM      3  C   UNL     1      -5.245  -8.675  -4.034  0.00  0.00    +0.054 A 
ATOM      4  C   UNL     1      -5.273  -9.054  -5.446  0.00  0.00    -0.024 A 
ATOM      5  C   UNL     1      -5.091  -8.065  -6.348  0.00  0.00    -0.004 A 
ATOM      6  S   UNL     1      -4.877  -6.599  -5.376  0.00  0.00    -0.075 S 
ATOM      7  C   UNL     1      -5.075  -8.188  -7.840  0.00  0.00    +0.043 C 
ATOM      8  C   UNL     1      -4.929  -9.674  -8.202  0.00  0.00    +0.005 C 
ATOM      9  C   UNL     1      -5.928 -10.483  -7.370  0.00  0.00    +0.005 C 
ATOM     10  C   UNL     1      -5.495 -10.493  -5.903  0.00  0.00    +0.037 C 
ATOM     11  C   UNL     1      -5.415  -9.540  -2.841  0.00  0.00    +0.172 A 
ATOM     12  N   UNL     1      -5.626 -10.831  -2.702  0.00  0.00    -0.206 NA
ATOM     13  C   UNL     1      -5.708 -11.132  -1.399  0.00  0.00    +0.182 A 
ATOM     14  N   UNL     1      -5.550 -10.036  -0.689  0.00  0.00    -0.141 NA
ATOM     15  N   UNL     1      -5.356  -8.983  -1.597  0.00  0.00    -0.161 N 
ATOM     16  C   UNL     1      -5.142  -7.668  -1.429  0.00  0.00    +0.353 A 
ATOM     17  O   UNL     1      -5.091  -7.210  -0.304  0.00  0.00    -0.244 OA
ENDROOT
BRANCH  13  18
ATOM     18  C   UNL     1      -5.942 -12.489  -0.844  0.00  0.00    +0.021 A 
ATOM     19  C   UNL     1      -6.090 -13.578  -1.700  0.00  0.00    +0.011 A 
ATOM     20  C   UNL     1      -6.307 -14.838  -1.179  0.00  0.00    +0.001 A 
ATOM     21  C   UNL     1      -6.377 -15.020   0.190  0.00  0.00    +0.000 A 
ATOM     22  C   UNL     1      -6.231 -13.941   1.045  0.00  0.00    +0.001 A 
ATOM     23  C   UNL     1      -6.008 -12.679   0.534  0.00  0.00    +0.011 A 
ENDBRANCH  13  18
BRANCH   1  24
ATOM     24  C   UNL     1      -4.760  -5.415  -2.259  0.00  0.00    +0.223 C 
BRANCH  24  26
ATOM     25  N   UNL     1      -2.831  -3.899  -1.943  0.00  0.00    -0.314 N 
ATOM     26  C   UNL     1      -3.280  -5.152  -2.153  0.00  0.00    +0.233 C 
ATOM     27  O   UNL     1      -2.492  -6.069  -2.256  0.00  0.00    -0.274 OA
ATOM     28  H   UNL     1      -3.461  -3.166  -1.860  0.00  0.00    +0.149 HD
BRANCH  25  29
ATOM     29  C   UNL     1      -1.392  -3.644  -1.840  0.00  0.00    +0.102 C 
BRANCH  29  30
ATOM     30  C   UNL     1      -1.155  -2.151  -1.603  0.00  0.00    +0.000 C 
BRANCH  30  31
ATOM     31  C   UNL     1       0.348  -1.884  -1.496  0.00  0.00    -0.077 C 
BRANCH  31  32
ATOM     32  N   UNL     1       0.576  -0.451  -1.269  0.00  0.00    +0.379 N 
ATOM     33  H   UNL     1       0.124   0.081  -1.998  0.00  0.00    -0.082 HD
BRANCH  32  35
ATOM     34  C   UNL     1       0.128   1.449   0.210  0.00  0.00    -0.017 C 
ATOM     35  C   UNL     1       0.019  -0.067   0.035  0.00  0.00    -0.082 C 
ENDBRANCH  32  35
BRANCH  32  36
ATOM     36  C   UNL     1       2.019  -0.176  -1.285  0.00  0.00    -0.082 C 
ATOM     37  C   UNL     1       2.573  -0.440  -2.687  0.00  0.00    -0.017 C 
ENDBRANCH  32  36
ENDBRANCH  31  32
ENDBRANCH  30  31
ENDBRANCH  29  30
ENDBRANCH  25  29
ENDBRANCH  24  26
ENDBRANCH   1  24
TORSDOF 9
