REMARK  Name = ZINC22103185
REMARK  11 active torsions:
REMARK  status: ('A' for Active; 'I' for Inactive)
REMARK    1  A    between atoms: C_1  and  C_2
REMARK    2  A    between atoms: C_2  and  C_4
REMARK    3  A    between atoms: C_2  and  N_33
REMARK    4  A    between atoms: C_7  and  S_16
REMARK    5  A    between atoms: N_8  and  C_9
REMARK    6  A    between atoms: S_16  and  C_17
REMARK    7  A    between atoms: C_17  and  C_19
REMARK    8  A    between atoms: C_17  and  C_20
REMARK    9  A    between atoms: N_22  and  C_23
REMARK   10  A    between atoms: N_33  and  C_34
REMARK   11  A    between atoms: N_33  and  C_35
REMARK                            x       y       z     vdW  Elec       q    Type
REMARK                         _______ _______ _______ _____ _____    ______ ____
ROOT
ATOM      1  C   UNL     1      -1.442   3.435   2.533  0.00  0.00    +0.125 A 
ATOM      2  N   UNL     1      -2.555   2.951   3.008  0.00  0.00    -0.135 NA
ATOM      3  N   UNL     1      -2.883   3.570   4.085  0.00  0.00    -0.122 NA
ATOM      4  C   UNL     1      -1.990   4.492   4.361  0.00  0.00    +0.197 A 
ATOM      5  N   UNL     1      -1.038   4.432   3.381  0.00  0.00    -0.275 N 
ENDROOT
BRANCH   5   6
ATOM      6  C   UNL     1       0.112   5.227   3.266  0.00  0.00    +0.050 A 
ATOM      7  C   UNL     1       1.370   4.651   3.376  0.00  0.00    +0.028 A 
ATOM      8  C   UNL     1       2.501   5.435   3.257  0.00  0.00    +0.022 A 
ATOM      9  C   UNL     1       2.380   6.796   3.041  0.00  0.00    +0.041 A 
ATOM     10  C   UNL     1       1.127   7.374   2.937  0.00  0.00    +0.022 A 
ATOM     11  C   UNL     1      -0.006   6.593   3.049  0.00  0.00    +0.028 A 
ATOM     12 CL   UNL     1       3.803   7.781   2.899  0.00  0.00    -0.084 Cl
ENDBRANCH   5   6
BRANCH   1  14
ATOM     13  C   UNL     1      -1.476   3.493   0.054  0.00  0.00    -0.005 C 
ATOM     14  C   UNL     1      -0.729   2.978   1.286  0.00  0.00    -0.003 C 
BRANCH  14  15
ATOM     15  N   UNL     1      -0.688   1.510   1.256  0.00  0.00    +0.382 N 
ATOM     16  C   UNL     1       0.001   1.028   0.052  0.00  0.00    -0.096 C 
ATOM     17  C   UNL     1      -0.060   0.976   2.472  0.00  0.00    -0.096 C 
ATOM     18  H   UNL     1      -1.725   1.143   1.222  0.00  0.00    -0.082 HD
ENDBRANCH  14  15
ENDBRANCH   1  14
BRANCH   4  19
ATOM     19  S   UNL     1      -2.010   5.592   5.737  0.00  0.00    -0.073 S 
BRANCH  19  20
ATOM     20  C   UNL     1      -3.537   5.056   6.546  0.00  0.00    +0.137 C 
ATOM     21  C   UNL     1      -3.374   3.618   7.043  0.00  0.00    +0.029 C 
BRANCH  20  22
ATOM     22  C   UNL     1      -3.831   5.961   7.715  0.00  0.00    +0.230 C 
ATOM     23  O   UNL     1      -2.944   6.629   8.203  0.00  0.00    -0.274 OA
ATOM     24  N   UNL     1      -5.080   6.028   8.218  0.00  0.00    -0.284 N 
ATOM     25  H   UNL     1      -5.902   5.494   7.721  0.00  0.00    +0.155 HD
BRANCH  24  26
ATOM     26  C   UNL     1      -5.329   6.776   9.369  0.00  0.00    +0.043 A 
ATOM     27  C   UNL     1      -4.317   7.017  10.275  0.00  0.00    +0.024 A 
ATOM     28  C   UNL     1      -4.556   7.767  11.422  0.00  0.00    +0.004 A 
ATOM     29  C   UNL     1      -5.793   8.271  11.689  0.00  0.00    +0.028 A 
ATOM     30  C   UNL     1      -6.853   8.044  10.796  0.00  0.00    +0.073 A 
ATOM     31  C   UNL     1      -6.618   7.287   9.621  0.00  0.00    +0.022 A 
ATOM     32  C   UNL     1      -7.682   7.061   8.730  0.00  0.00    +0.013 A 
ATOM     33  C   UNL     1      -8.905   7.587   9.039  0.00  0.00    +0.020 A 
ATOM     34  C   UNL     1      -9.069   8.322  10.210  0.00  0.00    +0.111 A 
ATOM     35  N   UNL     1      -8.075   8.530  11.040  0.00  0.00    -0.255 NA
ENDBRANCH  24  26
ENDBRANCH  20  22
ENDBRANCH  19  20
ENDBRANCH   4  19
TORSDOF 7
