REMARK  Name = ZINC41512802
REMARK  12 active torsions:
REMARK  status: ('A' for Active; 'I' for Inactive)
REMARK    1  A    between atoms: C_1  and  C_2
REMARK    2  A    between atoms: C_4  and  O_33
REMARK    3  A    between atoms: C_5  and  C_25
REMARK    4  A    between atoms: C_11  and  C_12
REMARK    5  A    between atoms: C_14  and  O_22
REMARK    6  A    between atoms: C_15  and  O_20
REMARK    7  A    between atoms: C_17  and  O_18
REMARK    8  A    between atoms: O_18  and  C_19
REMARK    9  A    between atoms: O_20  and  C_21
REMARK   10  A    between atoms: O_22  and  C_23
REMARK   11  A    between atoms: C_25  and  N_26
REMARK   12  A    between atoms: C_29  and  C_32
REMARK                            x       y       z     vdW  Elec       q    Type
REMARK                         _______ _______ _______ _____ _____    ______ ____
ROOT
ATOM      1  C   UNL     1      -0.540   1.566   0.092  0.00  0.00    +0.045 C 
ATOM      2  C   UNL     1      -0.568   0.060   0.068  0.00  0.00    -0.033 A 
ATOM      3  C   UNL     1      -0.741  -0.602  -1.115  0.00  0.00    +0.050 A 
ATOM      4  C   UNL     1      -0.767  -1.994  -1.141  0.00  0.00    +0.122 A 
ATOM      5  C   UNL     1      -0.618  -2.723   0.028  0.00  0.00    +0.020 A 
ATOM      6  C   UNL     1      -0.440  -2.066   1.239  0.00  0.00    +0.145 A 
ATOM      7  C   UNL     1      -0.410  -0.662   1.251  0.00  0.00    +0.071 A 
ATOM      8  C   UNL     1      -0.205  -0.263   2.656  0.00  0.00    +0.232 C 
ATOM      9  O   UNL     1      -0.124   0.867   3.106  0.00  0.00    -0.283 OA
ATOM     10  C   UNL     1      -0.121  -1.531   3.390  0.00  0.00    +0.176 C 
ATOM     11  C   UNL     1       0.067  -1.672   4.730  0.00  0.00    +0.062 C 
ATOM     12  O   UNL     1      -0.275  -2.535   2.494  0.00  0.00    -0.451 OA
ENDROOT
BRANCH  11  13
ATOM     13  C   UNL     1      -0.019  -2.998   5.346  0.00  0.00    +0.024 A 
ATOM     14  C   UNL     1      -0.622  -4.058   4.654  0.00  0.00    +0.061 A 
ATOM     15  C   UNL     1      -0.701  -5.304   5.239  0.00  0.00    +0.162 A 
ATOM     16  C   UNL     1      -0.182  -5.512   6.519  0.00  0.00    +0.165 A 
ATOM     17  C   UNL     1       0.415  -4.468   7.210  0.00  0.00    +0.095 A 
ATOM     18  C   UNL     1       0.506  -3.215   6.632  0.00  0.00    +0.131 A 
BRANCH  18  19
ATOM     19  O   UNL     1       1.097  -2.196   7.306  0.00  0.00    -0.494 OA
ATOM     20  C   UNL     1       1.609  -2.489   8.608  0.00  0.00    +0.277 C 
ENDBRANCH  18  19
BRANCH  16  21
ATOM     21  O   UNL     1      -0.264  -6.741   7.090  0.00  0.00    -0.491 OA
ATOM     22  C   UNL     1       0.286  -6.886   8.400  0.00  0.00    +0.277 C 
ENDBRANCH  16  21
BRANCH  15  23
ATOM     23  O   UNL     1      -1.286  -6.333   4.569  0.00  0.00    -0.491 OA
ATOM     24  C   UNL     1      -1.796  -6.051   3.264  0.00  0.00    +0.277 C 
ENDBRANCH  15  23
ENDBRANCH  11  13
BRANCH   4  25
ATOM     25  O   UNL     1      -0.941  -2.642  -2.321  0.00  0.00    -0.506 OA
ATOM     26  H   UNL     1      -0.116  -2.844  -2.784  0.00  0.00    +0.292 HD
ENDBRANCH   4  25
BRANCH   5  27
ATOM     27  C   UNL     1      -0.649  -4.229  -0.015  0.00  0.00    -0.036 C 
BRANCH  27  28
ATOM     28  N   UNL     1       0.713  -4.742  -0.218  0.00  0.00    +0.383 N 
ATOM     29  C   UNL     1       1.202  -4.318  -1.535  0.00  0.00    -0.078 C 
ATOM     30  C   UNL     1       2.649  -4.780  -1.719  0.00  0.00    -0.016 C 
ATOM     31  C   UNL     1       2.708  -6.307  -1.618  0.00  0.00    -0.018 C 
ATOM     32  C   UNL     1       2.127  -6.742  -0.270  0.00  0.00    -0.016 C 
ATOM     33  C   UNL     1       0.699  -6.207  -0.139  0.00  0.00    -0.078 C 
ATOM     34  C   UNL     1       4.162  -6.770  -1.722  0.00  0.00    +0.007 C 
ATOM     35  H   UNL     1       1.320  -4.373   0.499  0.00  0.00    -0.081 HD
ENDBRANCH  27  28
ENDBRANCH   5  27
TORSDOF 7
