REMARK  Name = ZINC02780844
REMARK  9 active torsions:
REMARK  status: ('A' for Active; 'I' for Inactive)
REMARK    1  A    between atoms: C_1  and  C_2
REMARK    2  A    between atoms: C_2  and  C_3
REMARK    3  A    between atoms: C_9  and  C_31
REMARK    4  A    between atoms: N_10  and  N_13
REMARK    5  A    between atoms: C_14  and  C_16
REMARK    6  A    between atoms: C_16  and  C_17
REMARK    7  A    between atoms: C_17  and  N_18
REMARK    8  A    between atoms: C_19  and  C_28
REMARK    9  A    between atoms: C_21  and  C_23
REMARK                            x       y       z     vdW  Elec       q    Type
REMARK                         _______ _______ _______ _____ _____    ______ ____
ROOT
ATOM      1  N   UNL     1       5.386   0.537  -3.872  0.00  0.00    -0.219 N 
ATOM      2  C   UNL     1       5.030   0.621  -2.575  0.00  0.00    +0.233 C 
ATOM      3  O   UNL     1       5.883   0.710  -1.717  0.00  0.00    -0.274 OA
ATOM      4  H   UNL     1       4.612   0.455  -4.650  0.00  0.00    +0.176 HD
ENDROOT
BRANCH   1  12
ATOM      5  C   UNL     1      11.131  -1.315  -4.687  0.00  0.00    -0.008 A 
ATOM      6  C   UNL     1       9.878  -1.561  -4.271  0.00  0.00    +0.026 A 
ATOM      7  C   UNL     1       8.874  -0.520  -4.391  0.00  0.00    +0.074 A 
ATOM      8  C   UNL     1       9.332   0.686  -4.951  0.00  0.00    +0.116 A 
ATOM      9  S   UNL     1      11.046   0.364  -5.279  0.00  0.00    -0.073 S 
ATOM     10  N   UNL     1       8.528   1.730  -5.125  0.00  0.00    -0.225 NA
ATOM     11  C   UNL     1       7.269   1.674  -4.783  0.00  0.00    +0.129 A 
ATOM     12  N   UNL     1       6.740   0.553  -4.229  0.00  0.00    -0.210 N 
ATOM     13  C   UNL     1       7.490  -0.546  -4.022  0.00  0.00    +0.279 A 
ATOM     14  O   UNL     1       6.999  -1.546  -3.529  0.00  0.00    -0.265 OA
ATOM     15  C   UNL     1       6.388   2.877  -5.002  0.00  0.00    +0.088 C 
BRANCH   5  17
ATOM     16  C   UNL     1      12.383  -3.030  -5.967  0.00  0.00    +0.009 C 
ATOM     17  C   UNL     1      12.322  -2.237  -4.660  0.00  0.00    +0.039 C 
ENDBRANCH   5  17
ENDBRANCH   1  12
BRANCH   2  18
ATOM     18  C   UNL     1       3.573   0.604  -2.190  0.00  0.00    +0.120 C 
BRANCH  18  19
ATOM     19  C   UNL     1       3.446   0.711  -0.669  0.00  0.00    +0.153 C 
BRANCH  19  20
ATOM     20  N   UNL     1       2.030   0.695  -0.295  0.00  0.00    -0.266 N 
ATOM     21  C   UNL     1       1.296  -0.403  -0.013  0.00  0.00    +0.057 A 
ATOM     22  C   UNL     1       0.040   0.006   0.284  0.00  0.00    +0.071 A 
ATOM     23  C   UNL     1       0.005   1.401   0.179  0.00  0.00    +0.179 A 
ATOM     24  N   UNL     1       1.198   1.814  -0.168  0.00  0.00    -0.166 NA
ATOM     25 BR   UNL     1      -1.411  -1.110   0.758  0.00  0.00    -0.046 Br
BRANCH  23  26
ATOM     26  C   UNL     1      -1.198   2.276   0.418  0.00  0.00    +0.437 C 
ATOM     27  F   UNL     1      -1.242   2.651   1.765  0.00  0.00    -0.164 F 
ATOM     28  F   UNL     1      -1.109   3.420  -0.382  0.00  0.00    -0.164 F 
ATOM     29  F   UNL     1      -2.361   1.569   0.092  0.00  0.00    -0.164 F 
ENDBRANCH  23  26
BRANCH  21  30
ATOM     30  C   UNL     1       1.786  -1.828  -0.026  0.00  0.00    +0.039 C 
ATOM     31  C   UNL     1       0.735  -2.936  -0.107  0.00  0.00    +0.010 C 
ATOM     32  C   UNL     1       1.486  -2.689   1.203  0.00  0.00    +0.010 C 
ENDBRANCH  21  30
ENDBRANCH  19  20
ENDBRANCH  18  19
ENDBRANCH   2  18
TORSDOF 7
