REMARK  Name = ZINC39197503
REMARK  12 active torsions:
REMARK  status: ('A' for Active; 'I' for Inactive)
REMARK    1  A    between atoms: C_1  and  C_2
REMARK    2  A    between atoms: C_2  and  C_3
REMARK    3  A    between atoms: C_8  and  N_9
REMARK    4  A    between atoms: C_10  and  C_30
REMARK    5  A    between atoms: C_12  and  C_14
REMARK    6  A    between atoms: N_16  and  C_17
REMARK    7  A    between atoms: C_17  and  C_19
REMARK    8  A    between atoms: C_17  and  C_20
REMARK    9  A    between atoms: N_22  and  C_23
REMARK   10  A    between atoms: C_28  and  C_29
REMARK   11  A    between atoms: C_33  and  S_36
REMARK   12  A    between atoms: S_36  and  C_37
REMARK                            x       y       z     vdW  Elec       q    Type
REMARK                         _______ _______ _______ _____ _____    ______ ____
ROOT
ATOM      1  N   UNL     1       3.022  -0.274  -0.195  0.00  0.00    -0.231 N 
ATOM      2  C   UNL     1       4.351   0.029  -0.291  0.00  0.00    +0.075 A 
ATOM      3  C   UNL     1       4.705   0.629   0.886  0.00  0.00    +0.063 A 
ATOM      4  C   UNL     1       3.527   0.658   1.663  0.00  0.00    +0.148 A 
ATOM      5  N   UNL     1       2.567   0.106   0.945  0.00  0.00    -0.161 NA
ENDROOT
BRANCH   1  11
ATOM      6  C   UNL     1       1.149  -0.267  -1.721  0.00  0.00    -0.022 A 
ATOM      7  C   UNL     1       0.409  -0.885  -2.709  0.00  0.00    +0.006 A 
ATOM      8  C   UNL     1       0.775  -2.137  -3.169  0.00  0.00    +0.000 A 
ATOM      9  C   UNL     1       1.884  -2.774  -2.641  0.00  0.00    +0.002 A 
ATOM     10  C   UNL     1       2.628  -2.161  -1.652  0.00  0.00    +0.028 A 
ATOM     11  C   UNL     1       2.266  -0.901  -1.193  0.00  0.00    +0.069 A 
BRANCH   6  13
ATOM     12  C   UNL     1       1.621   2.162  -1.889  0.00  0.00    +0.009 C 
ATOM     13  C   UNL     1       0.749   1.097  -1.220  0.00  0.00    +0.034 C 
ENDBRANCH   6  13
ENDBRANCH   1  11
BRANCH   2  14
ATOM     14  C   UNL     1       5.235  -0.239  -1.446  0.00  0.00    +0.001 A 
ATOM     15  C   UNL     1       4.688  -0.433  -2.715  0.00  0.00    +0.011 A 
ATOM     16  C   UNL     1       5.514  -0.683  -3.789  0.00  0.00    +0.015 A 
ATOM     17  C   UNL     1       6.892  -0.741  -3.610  0.00  0.00    +0.008 A 
ATOM     18  C   UNL     1       7.440  -0.549  -2.345  0.00  0.00    +0.015 A 
ATOM     19  C   UNL     1       6.619  -0.293  -1.269  0.00  0.00    +0.011 A 
BRANCH  17  20
ATOM     20  S   UNL     1       7.946  -1.060  -4.985  0.00  0.00    -0.129 S 
ATOM     21  C   UNL     1       9.615  -1.042  -4.274  0.00  0.00    +0.090 C 
ENDBRANCH  17  20
ENDBRANCH   2  14
BRANCH   4  22
ATOM     22  C   UNL     1       3.392   1.211   3.026  0.00  0.00    +0.265 C 
ATOM     23  O   UNL     1       4.356   1.701   3.582  0.00  0.00    -0.268 OA
ATOM     24  N   UNL     1       2.200   1.172   3.654  0.00  0.00    -0.299 N 
ATOM     25  H   UNL     1       1.430   0.781   3.210  0.00  0.00    +0.150 HD
BRANCH  24  26
ATOM     26  C   UNL     1       2.066   1.720   5.006  0.00  0.00    +0.156 C 
ATOM     27  C   UNL     1       2.474   0.659   6.029  0.00  0.00    +0.038 C 
BRANCH  26  28
ATOM     28  C   UNL     1       0.633   2.124   5.244  0.00  0.00    +0.237 C 
ATOM     29  O   UNL     1      -0.194   1.969   4.371  0.00  0.00    -0.273 OA
ATOM     30  N   UNL     1       0.272   2.657   6.428  0.00  0.00    -0.284 N 
ATOM     31  H   UNL     1       0.914   2.708   7.153  0.00  0.00    +0.155 HD
BRANCH  30  32
ATOM     32  C   UNL     1      -1.030   3.136   6.611  0.00  0.00    +0.036 A 
ATOM     33  C   UNL     1      -1.782   3.542   5.517  0.00  0.00    +0.023 A 
ATOM     34  C   UNL     1      -3.067   4.015   5.701  0.00  0.00    +0.002 A 
ATOM     35  C   UNL     1      -3.604   4.085   6.973  0.00  0.00    +0.000 A 
ATOM     36  C   UNL     1      -2.857   3.682   8.065  0.00  0.00    +0.005 A 
ATOM     37  C   UNL     1      -1.574   3.202   7.887  0.00  0.00    -0.029 A 
ATOM     38  C   UNL     1      -0.764   2.756   9.077  0.00  0.00    +0.045 C 
ENDBRANCH  30  32
ENDBRANCH  26  28
ENDBRANCH  24  26
ENDBRANCH   4  22
TORSDOF 8
