REMARK  Name = ZINC10538576
REMARK  7 active torsions:
REMARK  status: ('A' for Active; 'I' for Inactive)
REMARK    1  A    between atoms: C_1  and  N_2
REMARK    2  A    between atoms: C_3  and  C_11
REMARK    3  A    between atoms: N_7  and  C_10
REMARK    4  A    between atoms: C_11  and  S_12
REMARK    5  A    between atoms: S_12  and  C_13
REMARK    6  A    between atoms: C_16  and  C_19
REMARK    7  A    between atoms: N_17  and  N_18
REMARK                            x       y       z     vdW  Elec       q    Type
REMARK                         _______ _______ _______ _____ _____    ______ ____
ROOT
ATOM      1  C   UNL     1       1.884   5.284  -0.530  0.00  0.00    +0.209 A 
ATOM      2  N   UNL     1       1.030   5.890  -1.324  0.00  0.00    -0.121 NA
ATOM      3  N   UNL     1       1.661   6.537  -2.239  0.00  0.00    -0.127 NA
ATOM      4  C   UNL     1       2.955   6.377  -2.090  0.00  0.00    +0.183 A 
ATOM      5  N   UNL     1       3.138   5.569  -0.991  0.00  0.00    -0.224 N 
ENDROOT
BRANCH   4   6
ATOM      6  C   UNL     1       4.016   6.955  -2.942  0.00  0.00    +0.039 A 
ATOM      7  C   UNL     1       5.065   6.154  -3.395  0.00  0.00    +0.014 A 
ATOM      8  C   UNL     1       6.049   6.698  -4.194  0.00  0.00    +0.021 A 
ATOM      9  C   UNL     1       6.004   8.039  -4.538  0.00  0.00    +0.042 A 
ATOM     10  C   UNL     1       4.969   8.841  -4.088  0.00  0.00    +0.040 A 
ATOM     11  C   UNL     1       3.975   8.307  -3.292  0.00  0.00    +0.053 A 
ATOM     12 CL   UNL     1       2.678   9.313  -2.727  0.00  0.00    -0.083 Cl
ATOM     13 CL   UNL     1       7.250   8.717  -5.538  0.00  0.00    -0.083 Cl
ENDBRANCH   4   6
BRANCH   5  14
ATOM     14  N   UNL     1       4.326   5.141  -0.470  0.00  0.00    -0.295 N 
ATOM     15  H   UNL     1       4.652   4.313  -0.945  0.00  0.00    +0.163 HD
ATOM     16  H   UNL     1       5.020   5.873  -0.502  0.00  0.00    +0.163 HD
ENDBRANCH   5  14
BRANCH   1  17
ATOM     17  S   UNL     1       1.486   4.283   0.864  0.00  0.00    -0.078 S 
BRANCH  17  18
ATOM     18  C   UNL     1      -0.321   4.388   0.820  0.00  0.00    +0.131 C 
BRANCH  18  21
ATOM     19  C   UNL     1      -0.372   1.539   0.711  0.00  0.00    +0.154 C 
ATOM     20  N   UNL     1      -0.916   2.217   1.891  0.00  0.00    -0.300 N 
ATOM     21  C   UNL     1      -0.898   3.583   1.956  0.00  0.00    +0.038 A 
ATOM     22  C   UNL     1      -1.406   4.207   3.041  0.00  0.00    +0.092 A 
ATOM     23  C   UNL     1      -1.938   3.430   4.097  0.00  0.00    +0.257 A 
ATOM     24  O   UNL     1      -2.396   3.970   5.088  0.00  0.00    -0.268 OA
ATOM     25  N   UNL     1      -1.932   2.085   3.997  0.00  0.00    -0.264 N 
ATOM     26  C   UNL     1      -1.425   1.489   2.901  0.00  0.00    +0.332 A 
ATOM     27  O   UNL     1      -1.427   0.275   2.824  0.00  0.00    -0.246 OA
ATOM     28  C   UNL     1      -2.479   1.270   5.084  0.00  0.00    +0.157 C 
ENDBRANCH  18  21
ENDBRANCH  17  18
ENDBRANCH   1  17
TORSDOF 5
