REMARK  Name = ZINC38966385
REMARK  5 active torsions:
REMARK  status: ('A' for Active; 'I' for Inactive)
REMARK    1  A    between atoms: C_1  and  C_2
REMARK    2  A    between atoms: C_5  and  N_9
REMARK    3  A    between atoms: C_6  and  C_8
REMARK    4  A    between atoms: C_10  and  S_33
REMARK    5  A    between atoms: C_14  and  C_17
REMARK                            x       y       z     vdW  Elec       q    Type
REMARK                         _______ _______ _______ _____ _____    ______ ____
ROOT
ATOM      1  N   UNL     1       0.059  -4.170  -0.021  0.00  0.00    -0.242 N 
ATOM      2  C   UNL     1      -1.212  -4.877  -0.024  0.00  0.00    +0.225 C 
ATOM      3  N   UNL     1      -1.079  -6.248   0.441  0.00  0.00    -0.288 N 
ATOM      4  C   UNL     1       0.082  -6.912   0.447  0.00  0.00    +0.229 C 
ATOM      5  C   UNL     1       1.364  -6.285  -0.016  0.00  0.00    +0.184 C 
ATOM      6  C   UNL     1       1.244  -4.788  -0.031  0.00  0.00    +0.236 C 
ATOM      7  O   UNL     1       2.255  -4.119  -0.047  0.00  0.00    -0.274 OA
ATOM      8  O   UNL     1       0.099  -8.059   0.840  0.00  0.00    -0.275 OA
ATOM      9  H   UNL     1      -1.871  -6.704   0.764  0.00  0.00    +0.151 HD
ENDROOT
BRANCH   5  10
ATOM     10  C   UNL     1       1.685  -6.775  -1.430  0.00  0.00    +0.122 C 
ATOM     11  C   UNL     1       1.823  -8.279  -1.426  0.00  0.00    +0.039 A 
ATOM     12  H   UNL     1       2.953  -8.708   0.271  0.00  0.00    +0.166 HD
ATOM     13  C   UNL     1       1.282  -9.070  -2.380  0.00  0.00    -0.016 A 
ATOM     14  C   UNL     1       1.619 -10.436  -2.044  0.00  0.00    +0.003 A 
ATOM     15  C   UNL     1       1.337 -11.662  -2.654  0.00  0.00    +0.010 A 
ATOM     16  C   UNL     1       1.831 -12.788  -2.042  0.00  0.00    +0.001 A 
ATOM     17  C   UNL     1       2.574 -12.726  -0.875  0.00  0.00    +0.002 A 
ATOM     18  C   UNL     1       2.868 -11.526  -0.250  0.00  0.00    +0.026 A 
ATOM     19  C   UNL     1       2.381 -10.366  -0.849  0.00  0.00    +0.047 A 
ATOM     20  N   UNL     1       2.483  -9.048  -0.507  0.00  0.00    -0.356 N 
ATOM     21  C   UNL     1       0.488  -8.542  -3.548  0.00  0.00    +0.052 C 
ATOM     22  C   UNL     1       0.756  -7.035  -3.660  0.00  0.00    +0.086 C 
ATOM     23  N   UNL     1       0.591  -6.404  -2.342  0.00  0.00    -0.307 NA
ATOM     24  H   UNL     1      -0.306  -6.636  -1.943  0.00  0.00    +0.123 HD
ENDBRANCH   5  10
BRANCH   1  29
ATOM     25  C   UNL     1      -0.018   1.503   0.010  0.00  0.00    +0.044 C 
ATOM     26  C   UNL     1       0.002  -0.004   0.002  0.00  0.00    -0.050 A 
ATOM     27  C   UNL     1       0.006  -0.688  -1.200  0.00  0.00    +0.005 A 
ATOM     28  C   UNL     1       0.025  -2.068  -1.211  0.00  0.00    +0.024 A 
ATOM     29  C   UNL     1       0.040  -2.771  -0.013  0.00  0.00    +0.042 A 
ATOM     30  C   UNL     1       0.037  -2.082   1.192  0.00  0.00    -0.029 A 
ATOM     31  C   UNL     1       0.023  -0.700   1.196  0.00  0.00    +0.008 A 
ATOM     32  C   UNL     1       0.054  -2.840   2.494  0.00  0.00    +0.045 C 
ENDBRANCH   1  29
BRANCH   2  33
ATOM     33  S   UNL     1      -1.874  -4.892  -1.713  0.00  0.00    -0.136 S 
ATOM     34  H   UNL     1      -3.035  -5.562  -1.602  0.00  0.00    +0.105 HD
ENDBRANCH   2  33
TORSDOF 3
