REMARK  Name = ZINC04898830
REMARK  4 active torsions:
REMARK  status: ('A' for Active; 'I' for Inactive)
REMARK    1  A    between atoms: C_1  and  C_2
REMARK    2  A    between atoms: C_2  and  C_3
REMARK    3  A    between atoms: C_3  and  N_54
REMARK    4  A    between atoms: C_13  and  C_15
REMARK                            x       y       z     vdW  Elec       q    Type
REMARK                         _______ _______ _______ _____ _____    ______ ____
ROOT
ATOM      1  C   UNL     1      -0.594  -2.525   1.380  0.00  0.00    -0.073 C 
ATOM      2  C   UNL     1      -0.552  -4.047   1.216  0.00  0.00    +0.052 C 
ATOM      3  C   UNL     1       0.383  -4.643   2.268  0.00  0.00    +0.189 C 
ATOM      4  C   UNL     1       1.772  -4.021   2.137  0.00  0.00    +0.052 C 
ATOM      5  C   UNL     1       1.660  -2.500   2.272  0.00  0.00    -0.073 C 
ATOM      6  N   UNL     1      -0.152  -4.398   3.610  0.00  0.00    -0.207 N 
ATOM      7  C   UNL     1      -1.444  -4.990   4.029  0.00  0.00    +0.136 C 
ATOM      8  C   UNL     1      -1.429  -4.845   5.556  0.00  0.00    +0.086 C 
ATOM      9  C   UNL     1      -0.254  -3.924   5.816  0.00  0.00    +0.068 C 
ATOM     10  N   UNL     1       0.385  -3.718   4.711  0.00  0.00    -0.185 NA
ATOM     11  C   UNL     1      -1.409  -6.433   3.598  0.00  0.00    +0.017 A 
ATOM     12  C   UNL     1      -2.324  -7.320   4.135  0.00  0.00    +0.009 A 
ATOM     13  C   UNL     1      -2.340  -8.639   3.725  0.00  0.00    +0.001 A 
ATOM     14  C   UNL     1      -1.435  -9.072   2.774  0.00  0.00    +0.004 A 
ATOM     15  C   UNL     1      -0.515  -8.194   2.243  0.00  0.00    +0.046 A 
ATOM     16  C   UNL     1      -0.485  -6.862   2.656  0.00  0.00    +0.128 A 
ATOM     17  O   UNL     1       0.462  -6.060   2.107  0.00  0.00    -0.467 OA
ATOM     18  N   UNL     1       0.773  -1.988   1.206  0.00  0.00    +0.380 N 
ATOM     19  H   UNL     1       1.137  -2.292   0.295  0.00  0.00    -0.082 HD
ENDROOT
BRANCH   9  20
ATOM     20  C   UNL     1       0.106  -3.352   7.127  0.00  0.00    -0.002 A 
ATOM     21  C   UNL     1      -0.665  -3.642   8.255  0.00  0.00    +0.010 A 
ATOM     22  C   UNL     1      -0.320  -3.108   9.478  0.00  0.00    +0.001 A 
ATOM     23  C   UNL     1       0.781  -2.277   9.588  0.00  0.00    +0.000 A 
ATOM     24  C   UNL     1       1.546  -1.980   8.474  0.00  0.00    +0.001 A 
ATOM     25  C   UNL     1       1.216  -2.512   7.245  0.00  0.00    +0.010 A 
ENDBRANCH   9  20
BRANCH  18  26
ATOM     26  C   UNL     1       0.742  -0.511   1.242  0.00  0.00    -0.079 C 
BRANCH  26  28
ATOM     27  C   UNL     1      -0.019   1.526   0.010  0.00  0.00    +0.002 C 
ATOM     28  C   UNL     1       0.002  -0.004   0.002  0.00  0.00    -0.022 C 
ENDBRANCH  26  28
ENDBRANCH  18  26
TORSDOF 3
