REMARK  Name = ZINC09494546
REMARK  6 active torsions:
REMARK  status: ('A' for Active; 'I' for Inactive)
REMARK    1  A    between atoms: C_1  and  C_2
REMARK    2  A    between atoms: N_13  and  C_21
REMARK    3  A    between atoms: C_14  and  C_16
REMARK    4  A    between atoms: C_16  and  N_60
REMARK    5  A    between atoms: C_21  and  C_22
REMARK    6  A    between atoms: C_24  and  C_27
REMARK                            x       y       z     vdW  Elec       q    Type
REMARK                         _______ _______ _______ _____ _____    ______ ____
ROOT
ATOM      1  C   UNL     1       1.027   3.705  -0.048  0.00  0.00    +0.008 C 
ATOM      2  C   UNL     1       1.168   2.199  -0.277  0.00  0.00    -0.009 C 
ATOM      3  C   UNL     1      -0.173   1.510  -0.007  0.00  0.00    +0.008 C 
ATOM      4  C   UNL     1       0.016  -0.007   0.010  0.00  0.00    +0.037 C 
ATOM      5  C   UNL     1       0.723  -0.432  -1.274  0.00  0.00    -0.023 A 
ATOM      6  C   UNL     1       1.403   0.473  -2.017  0.00  0.00    -0.004 A 
ATOM      7  S   UNL     1       2.050  -0.445  -3.391  0.00  0.00    -0.073 S 
ATOM      8  C   UNL     1       1.413  -2.035  -2.968  0.00  0.00    +0.116 A 
ATOM      9  C   UNL     1       0.712  -1.799  -1.764  0.00  0.00    +0.076 A 
ATOM     10  C   UNL     1       0.065  -2.926  -1.155  0.00  0.00    +0.263 A 
ATOM     11  O   UNL     1      -0.565  -2.829  -0.116  0.00  0.00    -0.267 OA
ATOM     12  N   UNL     1       0.200  -4.105  -1.808  0.00  0.00    -0.288 N 
ATOM     13  C   UNL     1       0.896  -4.234  -2.964  0.00  0.00    +0.097 A 
ATOM     14  N   UNL     1       1.501  -3.226  -3.552  0.00  0.00    -0.228 NA
ATOM     15  C   UNL     1       1.570   1.935  -1.736  0.00  0.00    +0.046 C 
ENDROOT
BRANCH  13  16
ATOM     16  C   UNL     1       0.980  -5.596  -3.604  0.00  0.00    -0.003 C 
BRANCH  16  21
ATOM     17  C   UNL     1       3.253  -5.116  -4.333  0.00  0.00    -0.078 C 
ATOM     18  C   UNL     1       4.154  -5.613  -5.491  0.00  0.00    -0.020 C 
ATOM     19  C   UNL     1       3.509  -6.965  -5.875  0.00  0.00    -0.020 C 
ATOM     20  C   UNL     1       2.060  -6.879  -5.362  0.00  0.00    -0.078 C 
ATOM     21  N   UNL     1       1.916  -5.549  -4.767  0.00  0.00    +0.384 N 
ATOM     22  H   UNL     1       1.550  -4.894  -5.468  0.00  0.00    -0.081 HD
ENDBRANCH  16  21
ENDBRANCH  13  16
BRANCH  12  23
ATOM     23  C   UNL     1      -0.436  -5.295  -1.240  0.00  0.00    +0.225 C 
BRANCH  23  24
ATOM     24  C   UNL     1       0.525  -5.980  -0.303  0.00  0.00    +0.248 A 
ATOM     25  N   UNL     1       0.654  -5.754   0.981  0.00  0.00    -0.190 NA
ATOM     26  C   UNL     1       1.628  -6.593   1.401  0.00  0.00    +0.202 A 
ATOM     27  N   UNL     1       2.029  -7.272   0.358  0.00  0.00    -0.056 NA
ATOM     28  O   UNL     1       1.403  -6.935  -0.625  0.00  0.00    -0.336 OA
BRANCH  26  29
ATOM     29  C   UNL     1       2.144  -6.720   2.787  0.00  0.00    +0.022 A 
ATOM     30  C   UNL     1       1.623  -5.922   3.803  0.00  0.00    +0.012 A 
ATOM     31  C   UNL     1       2.103  -6.048   5.091  0.00  0.00    +0.001 A 
ATOM     32  C   UNL     1       3.108  -6.956   5.371  0.00  0.00    +0.000 A 
ATOM     33  C   UNL     1       3.634  -7.746   4.365  0.00  0.00    +0.001 A 
ATOM     34  C   UNL     1       3.157  -7.633   3.075  0.00  0.00    +0.012 A 
ENDBRANCH  26  29
ENDBRANCH  23  24
ENDBRANCH  12  23
TORSDOF 5
