REMARK  Name = ZINC10220630
REMARK  8 active torsions:
REMARK  status: ('A' for Active; 'I' for Inactive)
REMARK    1  A    between atoms: C_1  and  C_2
REMARK    2  A    between atoms: C_9  and  N_14
REMARK    3  A    between atoms: C_10  and  C_11
REMARK    4  A    between atoms: C_15  and  C_17
REMARK    5  A    between atoms: C_20  and  S_23
REMARK    6  A    between atoms: S_23  and  N_26
REMARK    7  A    between atoms: N_26  and  C_27
REMARK    8  A    between atoms: N_26  and  C_28
REMARK                            x       y       z     vdW  Elec       q    Type
REMARK                         _______ _______ _______ _____ _____    ______ ____
ROOT
ATOM      1  N   UNL     1      -0.017   1.381   0.010  0.00  0.00    -0.275 N 
ATOM      2  C   UNL     1       1.141   2.071   0.002  0.00  0.00    +0.249 C 
ATOM      3  O   UNL     1       2.202   1.478  -0.011  0.00  0.00    -0.270 OA
ATOM      4  H   UNL     1      -0.863   1.855   0.016  0.00  0.00    +0.156 HD
ENDROOT
BRANCH   1  12
ATOM      5  C   UNL     1       0.522  -6.420  -0.129  0.00  0.00    +0.008 C 
ATOM      6  C   UNL     1       0.031  -4.997  -0.402  0.00  0.00    -0.009 C 
ATOM      7  C   UNL     1      -1.209  -4.707   0.448  0.00  0.00    +0.008 C 
ATOM      8  C   UNL     1      -1.848  -3.390   0.004  0.00  0.00    +0.037 C 
ATOM      9  C   UNL     1      -0.780  -2.304  -0.002  0.00  0.00    -0.023 A 
ATOM     10  C   UNL     1       0.533  -2.620  -0.016  0.00  0.00    -0.004 A 
ATOM     11  S   UNL     1       1.374  -1.062  -0.016  0.00  0.00    -0.077 S 
ATOM     12  C   UNL     1       0.002  -0.004   0.002  0.00  0.00    +0.085 A 
ATOM     13  C   UNL     1      -1.074  -0.881   0.013  0.00  0.00    +0.068 A 
ATOM     14  C   UNL     1       1.132  -3.993  -0.029  0.00  0.00    +0.046 C 
BRANCH  13  15
ATOM     15  C   UNL     1      -2.455  -0.390   0.036  0.00  0.00    +0.244 C 
ATOM     16  O   UNL     1      -3.044  -0.181  -1.008  0.00  0.00    -0.270 OA
ATOM     17  N   UNL     1      -3.072  -0.170   1.214  0.00  0.00    -0.325 N 
ATOM     18  H   UNL     1      -2.603  -0.337   2.046  0.00  0.00    +0.145 HD
ATOM     19  H   UNL     1      -3.986   0.154   1.229  0.00  0.00    +0.145 HD
ENDBRANCH  13  15
ENDBRANCH   1  12
BRANCH   2  20
ATOM     20  C   UNL     1       1.121   3.549   0.010  0.00  0.00    +0.037 A 
ATOM     21  C   UNL     1      -0.096   4.233   0.020  0.00  0.00    +0.015 A 
ATOM     22  C   UNL     1      -0.107   5.613   0.033  0.00  0.00    +0.029 A 
ATOM     23  C   UNL     1       1.084   6.318   0.026  0.00  0.00    +0.106 A 
ATOM     24  C   UNL     1       2.293   5.645   0.011  0.00  0.00    +0.029 A 
ATOM     25  C   UNL     1       2.319   4.266   0.003  0.00  0.00    +0.015 A 
BRANCH  23  26
ATOM     26  S   UNL     1       1.060   8.079   0.035  0.00  0.00    +0.061 S 
ATOM     27  O   UNL     1      -0.186   8.466   0.600  0.00  0.00    -0.153 OA
ATOM     28  O   UNL     1       2.305   8.500   0.577  0.00  0.00    -0.153 OA
BRANCH  26  29
ATOM     29  N   UNL     1       1.038   8.578  -1.544  0.00  0.00    -0.177 NA
ATOM     30  C   UNL     1       2.297   8.815  -2.254  0.00  0.00    +0.132 C 
BRANCH  29  31
ATOM     31  C   UNL     1      -0.240   8.781  -2.230  0.00  0.00    +0.080 C 
ATOM     32  C   UNL     1      -0.305   7.903  -3.497  0.00  0.00    +0.020 C 
ATOM     33  C   UNL     1      -1.048   8.784  -4.532  0.00  0.00    +0.002 C 
ATOM     34  C   UNL     1      -0.493  10.199  -4.237  0.00  0.00    +0.002 C 
ATOM     35  C   UNL     1      -0.360  10.241  -2.701  0.00  0.00    +0.020 C 
ENDBRANCH  29  31
ENDBRANCH  26  29
ENDBRANCH  23  26
ENDBRANCH   2  20
TORSDOF 6
