REMARK  Name = ZINC40811302
REMARK  9 active torsions:
REMARK  status: ('A' for Active; 'I' for Inactive)
REMARK    1  A    between atoms: C_1  and  C_2
REMARK    2  A    between atoms: C_6  and  C_8
REMARK    3  A    between atoms: N_10  and  N_11
REMARK    4  A    between atoms: C_18  and  C_32
REMARK    5  A    between atoms: C_19  and  C_21
REMARK    6  A    between atoms: N_23  and  C_24
REMARK    7  A    between atoms: C_24  and  C_25
REMARK    8  A    between atoms: C_25  and  C_26
REMARK    9  A    between atoms: C_26  and  N_27
REMARK                            x       y       z     vdW  Elec       q    Type
REMARK                         _______ _______ _______ _____ _____    ______ ____
ROOT
ATOM      1  N   UNL     1       0.082  -4.905   3.651  0.00  0.00    -0.184 NA
ATOM      2  C   UNL     1       0.099  -6.202   3.639  0.00  0.00    +0.070 C 
ATOM      3  C   UNL     1       0.110  -7.006   2.347  0.00  0.00    +0.058 C 
ATOM      4  C   UNL     1      -0.854  -8.187   2.509  0.00  0.00    +0.014 C 
ATOM      5  C   UNL     1      -0.359  -9.143   3.598  0.00  0.00    +0.075 C 
ATOM      6  C   UNL     1      -0.100  -8.367   4.865  0.00  0.00    +0.115 A 
ATOM      7  C   UNL     1       0.115  -7.008   4.880  0.00  0.00    +0.042 A 
ATOM      8  C   UNL     1       0.321  -6.628   6.212  0.00  0.00    +0.009 A 
ATOM      9  C   UNL     1       0.232  -7.773   6.954  0.00  0.00    +0.193 A 
ATOM     10  O   UNL     1      -0.030  -8.808   6.118  0.00  0.00    -0.454 OA
ATOM     11  C   UNL     1       0.589  -5.237   6.725  0.00  0.00    +0.048 C 
ENDROOT
BRANCH   1  14
ATOM     12  C   UNL     1       0.051  -2.845   2.457  0.00  0.00    +0.263 C 
ATOM     13  O   UNL     1       0.048  -2.247   3.516  0.00  0.00    -0.268 OA
ATOM     14  N   UNL     1       0.068  -4.193   2.444  0.00  0.00    -0.203 N 
ATOM     15  H   UNL     1       0.070  -4.670   1.600  0.00  0.00    +0.178 HD
BRANCH  12  21
ATOM     16  C   UNL     1      -0.018   1.503   0.010  0.00  0.00    +0.044 C 
ATOM     17  C   UNL     1       0.002  -0.004   0.002  0.00  0.00    -0.050 A 
ATOM     18  C   UNL     1       0.006  -0.688  -1.201  0.00  0.00    +0.003 A 
ATOM     19  C   UNL     1       0.024  -2.071  -1.218  0.00  0.00    +0.001 A 
ATOM     20  C   UNL     1       0.039  -2.778  -0.033  0.00  0.00    +0.013 A 
ATOM     21  C   UNL     1       0.036  -2.095   1.184  0.00  0.00    +0.039 A 
ATOM     22  C   UNL     1       0.023  -0.699   1.194  0.00  0.00    +0.016 A 
ENDBRANCH  12  21
ENDBRANCH   1  14
BRANCH   9  23
ATOM     23  C   UNL     1       0.381  -7.864   8.411  0.00  0.00    +0.280 C 
ATOM     24  O   UNL     1       0.605  -6.862   9.063  0.00  0.00    -0.267 OA
ATOM     25  N   UNL     1       0.270  -9.058   9.026  0.00  0.00    -0.309 N 
ATOM     26  H   UNL     1       0.091  -9.857   8.506  0.00  0.00    +0.149 HD
BRANCH  25  27
ATOM     27  C   UNL     1       0.419  -9.149  10.480  0.00  0.00    +0.106 C 
BRANCH  27  28
ATOM     28  C   UNL     1       0.249 -10.605  10.921  0.00  0.00    +0.040 C 
BRANCH  28  29
ATOM     29  C   UNL     1       0.405 -10.700  12.440  0.00  0.00    +0.124 C 
BRANCH  29  30
ATOM     30  N   UNL     1       0.242 -12.094  12.861  0.00  0.00    -0.338 N 
ATOM     31  C   UNL     1      -0.932 -12.705  13.210  0.00  0.00    +0.104 A 
ATOM     32  C   UNL     1      -0.629 -13.978  13.527  0.00  0.00    +0.101 A 
ATOM     33  N   UNL     1       0.694 -14.140  13.375  0.00  0.00    -0.352 N 
ATOM     34  C   UNL     1       1.222 -13.017  12.972  0.00  0.00    +0.173 A 
ATOM     35  H   UNL     1       1.181 -14.963  13.536  0.00  0.00    +0.166 HD
ENDBRANCH  29  30
ENDBRANCH  28  29
ENDBRANCH  27  28
ENDBRANCH  25  27
ENDBRANCH   9  23
TORSDOF 7
