REMARK  Name = ZINC13751468
REMARK  7 active torsions:
REMARK  status: ('A' for Active; 'I' for Inactive)
REMARK    1  A    between atoms: C_4  and  N_7
REMARK    2  A    between atoms: N_9  and  C_28
REMARK    3  A    between atoms: C_10  and  C_13
REMARK    4  A    between atoms: C_17  and  S_19
REMARK    5  A    between atoms: S_19  and  N_22
REMARK    6  A    between atoms: C_28  and  C_29
REMARK    7  A    between atoms: C_29  and  N_30
REMARK                            x       y       z     vdW  Elec       q    Type
REMARK                         _______ _______ _______ _____ _____    ______ ____
ROOT
ATOM      1  N   UNL     1       8.635   0.612  -5.321  0.00  0.00    -0.336 N 
ATOM      2  C   UNL     1       7.996   0.729  -4.172  0.00  0.00    +0.152 A 
ATOM      3  N   UNL     1       7.109  -0.138  -3.579  0.00  0.00    -0.319 N 
ATOM      4  C   UNL     1       6.564   0.204  -2.371  0.00  0.00    +0.058 A 
ATOM      5  C   UNL     1       6.913   1.370  -1.789  0.00  0.00    +0.075 A 
ATOM      6  S   UNL     1       8.059   2.053  -2.975  0.00  0.00    -0.059 S 
ATOM      7  H   UNL     1       8.414  -0.233  -5.989  0.00  0.00    +0.168 HD
ENDROOT
BRANCH   1  11
ATOM      8  C   UNL     1      11.468   3.424  -6.407  0.00  0.00    +0.000 A 
ATOM      9  C   UNL     1      11.850   2.301  -5.695  0.00  0.00    +0.002 A 
ATOM     10  C   UNL     1      10.911   1.360  -5.329  0.00  0.00    +0.025 A 
ATOM     11  C   UNL     1       9.571   1.542  -5.680  0.00  0.00    +0.041 A 
ATOM     12  C   UNL     1       9.193   2.675  -6.404  0.00  0.00    +0.025 A 
ATOM     13  C   UNL     1      10.142   3.611  -6.758  0.00  0.00    +0.002 A 
ENDBRANCH   1  11
BRANCH   4  14
ATOM     14  C   UNL     1       5.604  -0.702  -1.706  0.00  0.00    +0.001 A 
ATOM     15  C   UNL     1       5.834  -2.079  -1.689  0.00  0.00    +0.010 A 
ATOM     16  C   UNL     1       4.934  -2.918  -1.066  0.00  0.00    +0.003 A 
ATOM     17  C   UNL     1       3.808  -2.398  -0.453  0.00  0.00    +0.028 A 
ATOM     18  C   UNL     1       3.571  -1.035  -0.470  0.00  0.00    +0.106 A 
ATOM     19  C   UNL     1       4.463  -0.184  -1.090  0.00  0.00    +0.038 A 
BRANCH  18  20
ATOM     20  S   UNL     1       2.131  -0.384   0.307  0.00  0.00    +0.061 S 
ATOM     21  O   UNL     1       2.420   0.970   0.630  0.00  0.00    -0.153 OA
ATOM     22  O   UNL     1       1.734  -1.333   1.288  0.00  0.00    -0.153 OA
BRANCH  20  23
ATOM     23  N   UNL     1       0.930  -0.352  -0.833  0.00  0.00    -0.172 NA
ATOM     24  C   UNL     1       0.034  -1.504  -1.021  0.00  0.00    +0.137 C 
ATOM     25  C   UNL     1       0.004  -1.855  -2.513  0.00  0.00    +0.177 C 
ATOM     26  O   UNL     1      -0.304  -0.680  -3.267  0.00  0.00    -0.377 OA
ATOM     27  C   UNL     1       0.665   0.364  -3.147  0.00  0.00    +0.177 C 
ATOM     28  C   UNL     1       0.728   0.829  -1.688  0.00  0.00    +0.137 C 
ENDBRANCH  20  23
ENDBRANCH  18  20
ENDBRANCH   4  14
BRANCH   3  29
ATOM     29  C   UNL     1       6.752  -1.402  -4.229  0.00  0.00    +0.139 C 
BRANCH  29  30
ATOM     30  C   UNL     1       6.687  -1.195  -5.744  0.00  0.00    +0.106 C 
BRANCH  30  31
ATOM     31  N   UNL     1       6.328  -2.462  -6.396  0.00  0.00    -0.296 NA
ATOM     32  C   UNL     1       7.395  -3.460  -6.231  0.00  0.00    +0.112 C 
ATOM     33  C   UNL     1       6.956  -4.779  -6.871  0.00  0.00    +0.175 C 
ATOM     34  O   UNL     1       6.635  -4.552  -8.246  0.00  0.00    -0.377 OA
ATOM     35  C   UNL     1       5.599  -3.586  -8.444  0.00  0.00    +0.175 C 
ATOM     36  C   UNL     1       6.024  -2.255  -7.819  0.00  0.00    +0.112 C 
ENDBRANCH  30  31
ENDBRANCH  29  30
ENDBRANCH   3  29
TORSDOF 7
