REMARK  Name = ZINC05148115
REMARK  7 active torsions:
REMARK  status: ('A' for Active; 'I' for Inactive)
REMARK    1  A    between atoms: C_1  and  C_2
REMARK    2  A    between atoms: C_2  and  C_4
REMARK    3  A    between atoms: C_2  and  N_7
REMARK    4  A    between atoms: C_4  and  C_6
REMARK    5  A    between atoms: C_14  and  C_16
REMARK    6  A    between atoms: N_25  and  C_30
REMARK    7  A    between atoms: N_28  and  C_29
REMARK                            x       y       z     vdW  Elec       q    Type
REMARK                         _______ _______ _______ _____ _____    ______ ____
ROOT
ATOM      1  N   UNL     1      -2.409   1.015  -0.339  0.00  0.00    -0.182 N 
ATOM      2  C   UNL     1      -3.206   1.234  -1.444  0.00  0.00    +0.222 A 
ATOM      3  N   UNL     1      -3.038   2.078  -2.435  0.00  0.00    -0.195 NA
ATOM      4  C   UNL     1      -4.037   1.960  -3.294  0.00  0.00    +0.170 A 
ATOM      5  C   UNL     1      -4.905   0.968  -2.811  0.00  0.00    +0.153 A 
ATOM      6  N   UNL     1      -4.363   0.522  -1.637  0.00  0.00    -0.299 N 
ATOM      7  C   UNL     1      -4.838  -0.494  -0.699  0.00  0.00    +0.182 C 
ATOM      8  C   UNL     1      -3.751  -0.825   0.286  0.00  0.00    +0.086 C 
ATOM      9  N   UNL     1      -2.671  -0.134   0.426  0.00  0.00    -0.179 NA
ATOM     10  C   UNL     1      -6.068   0.626  -3.530  0.00  0.00    +0.282 A 
ATOM     11  O   UNL     1      -6.837  -0.232  -3.134  0.00  0.00    -0.265 OA
ATOM     12  N   UNL     1      -6.286   1.301  -4.685  0.00  0.00    -0.262 N 
ATOM     13  C   UNL     1      -5.450   2.248  -5.137  0.00  0.00    +0.333 A 
ATOM     14  O   UNL     1      -5.720   2.807  -6.183  0.00  0.00    -0.246 OA
ATOM     15  N   UNL     1      -4.322   2.613  -4.486  0.00  0.00    -0.280 N 
ATOM     16  C   UNL     1      -3.437   3.653  -5.017  0.00  0.00    +0.155 C 
ATOM     17  C   UNL     1      -7.481   0.984  -5.471  0.00  0.00    +0.157 C 
ENDROOT
BRANCH   8  18
ATOM     18  C   UNL     1      -3.926  -2.015   1.138  0.00  0.00    -0.000 A 
ATOM     19  C   UNL     1      -5.079  -2.796   1.023  0.00  0.00    +0.011 A 
ATOM     20  C   UNL     1      -5.235  -3.911   1.820  0.00  0.00    +0.020 A 
ATOM     21  C   UNL     1      -4.257  -4.251   2.740  0.00  0.00    +0.041 A 
ATOM     22  C   UNL     1      -3.114  -3.478   2.862  0.00  0.00    +0.020 A 
ATOM     23  C   UNL     1      -2.943  -2.363   2.068  0.00  0.00    +0.011 A 
ATOM     24 CL   UNL     1      -4.463  -5.652   3.743  0.00  0.00    -0.084 Cl
ENDBRANCH   8  18
BRANCH   1  26
ATOM     25  C   UNL     1      -1.586   2.506   1.417  0.00  0.00    +0.038 C 
ATOM     26  C   UNL     1      -1.329   1.939   0.019  0.00  0.00    +0.164 C 
BRANCH  26  27
ATOM     27  C   UNL     1      -0.014   1.203   0.009  0.00  0.00    +0.152 C 
ATOM     28  O   UNL     1       0.002  -0.004   0.002  0.00  0.00    -0.296 OA
ATOM     29  C   UNL     1       1.280   1.975   0.000  0.00  0.00    +0.088 C 
ENDBRANCH  26  27
ENDBRANCH   1  26
TORSDOF 3
