REMARK  Name = ZINC32106021
REMARK  7 active torsions:
REMARK  status: ('A' for Active; 'I' for Inactive)
REMARK    1  A    between atoms: C_1  and  N_2
REMARK    2  A    between atoms: C_3  and  C_5
REMARK    3  A    between atoms: C_7  and  C_27
REMARK    4  A    between atoms: N_9  and  C_21
REMARK    5  A    between atoms: N_12  and  N_13
REMARK    6  A    between atoms: N_13  and  C_14
REMARK    7  A    between atoms: N_29  and  C_30
REMARK                            x       y       z     vdW  Elec       q    Type
REMARK                         _______ _______ _______ _____ _____    ______ ____
ROOT
ATOM      1  C   UNL     1      -6.278   3.095   0.146  0.00  0.00    +0.114 C 
ATOM      2  C   UNL     1      -7.183   4.343   0.217  0.00  0.00    +0.038 C 
ATOM      3  N   UNL     1      -6.272   5.430   0.661  0.00  0.00    +0.393 N 
ATOM      4  C   UNL     1      -5.003   5.144  -0.056  0.00  0.00    -0.023 C 
ATOM      5  C   UNL     1      -4.867   3.631  -0.019  0.00  0.00    +0.031 C 
ATOM      6  N   UNL     1      -3.787   2.950  -0.114  0.00  0.00    -0.193 NA
ATOM      7  H   UNL     1      -6.149   5.470   1.754  0.00  0.00    -0.080 HD
ENDROOT
BRANCH   3   8
ATOM      8  C   UNL     1      -6.803   6.748   0.287  0.00  0.00    -0.067 C 
ATOM      9  C   UNL     1      -7.058   6.785  -1.221  0.00  0.00    -0.015 C 
ATOM     10  C   UNL     1      -7.611   8.157  -1.612  0.00  0.00    -0.002 C 
ATOM     11  C   UNL     1      -6.597   9.240  -1.239  0.00  0.00    -0.000 C 
ATOM     12  C   UNL     1      -6.342   9.203   0.269  0.00  0.00    -0.002 C 
ATOM     13  C   UNL     1      -5.789   7.831   0.659  0.00  0.00    -0.015 C 
ENDBRANCH   3   8
BRANCH   1  16
ATOM     14  C   UNL     1      -7.270   0.424   2.703  0.00  0.00    +0.128 C 
ATOM     15  N   UNL     1      -7.163   1.198   1.464  0.00  0.00    -0.318 N 
ATOM     16  C   UNL     1      -6.388   2.299   1.421  0.00  0.00    +0.220 C 
ATOM     17  O   UNL     1      -5.779   2.650   2.409  0.00  0.00    -0.275 OA
ATOM     18  H   UNL     1      -7.715   0.879   0.567  0.00  0.00    +0.148 HD
ENDBRANCH   1  16
BRANCH   2  19
ATOM     19  C   UNL     1      -8.292   4.141   1.217  0.00  0.00    +0.200 C 
ATOM     20  O   UNL     1      -8.340   4.828   2.216  0.00  0.00    -0.278 OA
ATOM     21  N   UNL     1      -9.230   3.198   1.002  0.00  0.00    -0.320 N 
ATOM     22  C   UNL     1     -10.308   3.002   1.975  0.00  0.00    +0.128 C 
ATOM     23  H   UNL     1      -9.187   2.575   0.097  0.00  0.00    +0.148 HD
ENDBRANCH   2  19
BRANCH   6  24
ATOM     24  N   UNL     1      -2.558   3.604  -0.270  0.00  0.00    -0.238 N 
ATOM     25  H   UNL     1      -2.521   4.703  -0.311  0.00  0.00    +0.174 HD
BRANCH  24  26
ATOM     26  C   UNL     1      -1.380   2.861  -0.373  0.00  0.00    +0.048 A 
ATOM     27  C   UNL     1      -1.426   1.473  -0.328  0.00  0.00    +0.026 A 
ATOM     28  C   UNL     1      -0.259   0.741  -0.425  0.00  0.00    +0.022 A 
ATOM     29  C   UNL     1       0.955   1.389  -0.578  0.00  0.00    +0.041 A 
ATOM     30  C   UNL     1       1.003   2.771  -0.630  0.00  0.00    +0.022 A 
ATOM     31  C   UNL     1      -0.160   3.508  -0.528  0.00  0.00    +0.026 A 
ATOM     32 CL   UNL     1       2.419   0.465  -0.707  0.00  0.00    -0.084 Cl
ENDBRANCH  24  26
ENDBRANCH   6  24
TORSDOF 5
