REMARK  Name = ZINC25139831
REMARK  7 active torsions:
REMARK  status: ('A' for Active; 'I' for Inactive)
REMARK    1  A    between atoms: C_1  and  C_2
REMARK    2  A    between atoms: C_2  and  C_3
REMARK    3  A    between atoms: C_3  and  C_26
REMARK    4  A    between atoms: N_6  and  N_10
REMARK    5  A    between atoms: C_11  and  C_13
REMARK    6  A    between atoms: C_13  and  S_14
REMARK    7  A    between atoms: S_14  and  C_15
REMARK                            x       y       z     vdW  Elec       q    Type
REMARK                         _______ _______ _______ _____ _____    ______ ____
ROOT
ATOM      1  N   UNL     1      -1.146  -0.807   0.008  0.00  0.00    -0.223 N 
ATOM      2  C   UNL     1      -1.535  -1.434  -1.119  0.00  0.00    +0.240 C 
ATOM      3  O   UNL     1      -0.892  -1.304  -2.139  0.00  0.00    -0.273 OA
ATOM      4  H   UNL     1      -1.730  -0.925   0.933  0.00  0.00    +0.174 HD
ENDROOT
BRANCH   1   8
ATOM      5  C   UNL     1       1.437   1.773  -0.002  0.00  0.00    +0.139 C 
ATOM      6  C   UNL     1      -0.016   1.343   0.009  0.00  0.00    +0.268 C 
ATOM      7  O   UNL     1      -0.992   2.062   0.018  0.00  0.00    -0.271 OA
ATOM      8  N   UNL     1       0.002  -0.004   0.002  0.00  0.00    -0.137 N 
ATOM      9  C   UNL     1       1.252  -0.481  -0.013  0.00  0.00    +0.327 C 
ATOM     10  O   UNL     1       1.524  -1.665  -0.021  0.00  0.00    -0.251 OA
ATOM     11  N   UNL     1       2.175   0.498  -0.016  0.00  0.00    -0.280 N 
ATOM     12  H   UNL     1       3.275   0.499  -0.026  0.00  0.00    +0.152 HD
BRANCH   5  13
ATOM     13  C   UNL     1       1.767   2.563   1.238  0.00  0.00    -0.015 A 
ATOM     14  C   UNL     1       1.634   3.939   1.238  0.00  0.00    +0.006 A 
ATOM     15  C   UNL     1       1.931   4.663   2.377  0.00  0.00    +0.000 A 
ATOM     16  C   UNL     1       2.371   4.011   3.514  0.00  0.00    +0.000 A 
ATOM     17  C   UNL     1       2.510   2.636   3.513  0.00  0.00    +0.000 A 
ATOM     18  C   UNL     1       2.208   1.912   2.375  0.00  0.00    +0.006 A 
ENDBRANCH   5  13
BRANCH   5  20
ATOM     19  C   UNL     1       1.456   1.743  -2.500  0.00  0.00    +0.007 C 
ATOM     20  C   UNL     1       1.748   2.588  -1.259  0.00  0.00    +0.037 C 
ENDBRANCH   5  20
ENDBRANCH   1   8
BRANCH   2  21
ATOM     21  C   UNL     1      -2.771  -2.298  -1.113  0.00  0.00    +0.171 C 
BRANCH  21  22
ATOM     22  S   UNL     1      -3.027  -2.998  -2.767  0.00  0.00    -0.116 S 
BRANCH  22  23
ATOM     23  C   UNL     1      -4.488  -3.968  -2.596  0.00  0.00    +0.012 A 
ATOM     24  C   UNL     1      -5.137  -4.037  -1.370  0.00  0.00    +0.018 A 
ATOM     25  C   UNL     1      -6.284  -4.797  -1.233  0.00  0.00    +0.050 A 
ATOM     26  C   UNL     1      -6.785  -5.491  -2.322  0.00  0.00    +0.162 A 
ATOM     27  C   UNL     1      -6.139  -5.424  -3.548  0.00  0.00    +0.163 A 
ATOM     28  C   UNL     1      -4.994  -4.660  -3.691  0.00  0.00    +0.064 A 
ATOM     29  O   UNL     1      -6.642  -6.113  -4.614  0.00  0.00    -0.488 OA
ATOM     30  C   UNL     1      -7.890  -5.644  -5.128  0.00  0.00    +0.232 C 
ATOM     31  C   UNL     1      -9.052  -6.232  -4.343  0.00  0.00    +0.082 C 
ATOM     32  C   UNL     1      -9.067  -5.766  -2.895  0.00  0.00    +0.232 C 
ATOM     33  O   UNL     1      -7.917  -6.245  -2.196  0.00  0.00    -0.488 OA
ENDBRANCH  22  23
ENDBRANCH  21  22
ENDBRANCH   2  21
TORSDOF 6
