REMARK  Name = ZINC22327448
REMARK  10 active torsions:
REMARK  status: ('A' for Active; 'I' for Inactive)
REMARK    1  A    between atoms: C_1  and  C_2
REMARK    2  A    between atoms: C_2  and  O_3
REMARK    3  A    between atoms: O_3  and  C_4
REMARK    4  A    between atoms: C_9  and  N_10
REMARK    5  A    between atoms: C_11  and  C_13
REMARK    6  A    between atoms: C_15  and  C_23
REMARK    7  A    between atoms: C_19  and  C_22
REMARK    8  A    between atoms: C_25  and  C_29
REMARK    9  A    between atoms: C_27  and  C_28
REMARK   10  A    between atoms: C_31  and  C_34
REMARK                            x       y       z     vdW  Elec       q    Type
REMARK                         _______ _______ _______ _____ _____    ______ ____
ROOT
ATOM      1  N   UNL     1      -2.189   4.143   0.701  0.00  0.00    -0.278 N 
ATOM      2  C   UNL     1      -2.268   5.487   0.624  0.00  0.00    +0.249 C 
ATOM      3  O   UNL     1      -1.255   6.150   0.519  0.00  0.00    -0.270 OA
ATOM      4  H   UNL     1      -3.108   3.538   0.709  0.00  0.00    +0.155 HD
ENDROOT
BRANCH   1  10
ATOM      5  C   UNL     1      -0.812   2.176   0.420  0.00  0.00    +0.142 A 
ATOM      6  C   UNL     1       0.429   1.564   0.494  0.00  0.00    +0.055 A 
ATOM      7  C   UNL     1       1.531   2.285   0.902  0.00  0.00    +0.001 A 
ATOM      8  C   UNL     1       1.417   3.623   1.257  0.00  0.00    +0.126 A 
ATOM      9  C   UNL     1       0.171   4.237   1.184  0.00  0.00    +0.073 A 
ATOM     10  C   UNL     1      -0.939   3.518   0.771  0.00  0.00    +0.079 A 
ATOM     11  O   UNL     1       2.620   4.135   1.642  0.00  0.00    -0.488 OA
ATOM     12  C   UNL     1       3.674   3.292   1.145  0.00  0.00    +0.175 C 
ATOM     13  C   UNL     1       2.992   1.906   1.058  0.00  0.00    +0.083 C 
ATOM     14  C   UNL     1       4.848   3.257   2.126  0.00  0.00    +0.052 C 
BRANCH   5  15
ATOM     15  O   UNL     1      -1.900   1.470   0.011  0.00  0.00    -0.490 OA
BRANCH  15  17
ATOM     16  C   UNL     1      -3.021  -0.528  -0.760  0.00  0.00    +0.048 C 
ATOM     17  C   UNL     1      -1.693   0.097  -0.327  0.00  0.00    +0.226 C 
ENDBRANCH  15  17
ENDBRANCH   5  15
ENDBRANCH   1  10
BRANCH   2  18
ATOM     18  C   UNL     1      -3.588   6.154   0.666  0.00  0.00    +0.053 A 
ATOM     19  C   UNL     1      -4.604   5.683   1.492  0.00  0.00    +0.042 A 
ATOM     20  C   UNL     1      -5.835   6.344   1.500  0.00  0.00    +0.079 A 
ATOM     21  N   UNL     1      -6.053   7.406   0.739  0.00  0.00    -0.210 NA
ATOM     22  C   UNL     1      -5.122   7.895  -0.064  0.00  0.00    +0.260 A 
ATOM     23  C   UNL     1      -3.854   7.290  -0.126  0.00  0.00    +0.076 A 
ATOM     24  C   UNL     1      -3.073   8.055  -1.096  0.00  0.00    +0.091 A 
ATOM     25  N   UNL     1      -3.831   9.013  -1.536  0.00  0.00    -0.080 NA
ATOM     26  O   UNL     1      -5.100   8.939  -0.917  0.00  0.00    -0.334 OA
ATOM     27  C   UNL     1      -1.647   7.786  -1.505  0.00  0.00    +0.070 C 
BRANCH  20  28
ATOM     28  C   UNL     1      -6.920   5.847   2.379  0.00  0.00    +0.041 A 
ATOM     29  C   UNL     1      -6.867   4.694   3.287  0.00  0.00    +0.054 A 
ATOM     30  C   UNL     1      -8.073   4.628   3.872  0.00  0.00    +0.103 A 
ATOM     31  O   UNL     1      -8.842   5.624   3.405  0.00  0.00    -0.464 OA
ATOM     32  C   UNL     1      -8.169   6.367   2.516  0.00  0.00    +0.111 A 
ATOM     33  C   UNL     1      -8.706   7.572   1.789  0.00  0.00    +0.087 C 
ATOM     34  C   UNL     1      -8.497   3.600   4.889  0.00  0.00    +0.086 C 
ENDBRANCH  20  28
ENDBRANCH   2  18
TORSDOF 5
