REMARK  Name = ZINC40915222
REMARK  9 active torsions:
REMARK  status: ('A' for Active; 'I' for Inactive)
REMARK    1  A    between atoms: C_1  and  C_2
REMARK    2  A    between atoms: C_2  and  O_3
REMARK    3  A    between atoms: O_3  and  C_4
REMARK    4  A    between atoms: C_6  and  C_19
REMARK    5  A    between atoms: C_9  and  O_10
REMARK    6  A    between atoms: O_10  and  C_11
REMARK    7  A    between atoms: C_11  and  C_12
REMARK    8  A    between atoms: C_24  and  C_28
REMARK    9  A    between atoms: C_24  and  C_29
REMARK                            x       y       z     vdW  Elec       q    Type
REMARK                         _______ _______ _______ _____ _____    ______ ____
ROOT
ATOM      1  C   UNL     1      -1.498  -1.849   0.006  0.00  0.00    +0.162 A 
ATOM      2  C   UNL     1      -0.389  -2.680  -0.003  0.00  0.00    +0.055 A 
ATOM      3  C   UNL     1      -0.553  -4.052  -0.008  0.00  0.00    -0.015 A 
ATOM      4  C   UNL     1      -1.823  -4.600  -0.005  0.00  0.00    +0.010 A 
ATOM      5  C   UNL     1      -2.934  -3.777   0.004  0.00  0.00    +0.050 A 
ATOM      6  C   UNL     1      -2.776  -2.400   0.016  0.00  0.00    +0.162 A 
ENDROOT
BRANCH   3   7
ATOM      7  C   UNL     1       0.654  -4.954  -0.018  0.00  0.00    +0.176 C 
ATOM      8  C   UNL     1       0.638  -5.828   1.217  0.00  0.00    +0.041 C 
ATOM      9  C   UNL     1       0.327  -7.141   1.163  0.00  0.00    +0.020 C 
ATOM     10  C   UNL     1       0.302  -7.984   2.416  0.00  0.00    +0.058 C 
ATOM     11  C   UNL     1       1.336  -7.454   3.413  0.00  0.00    -0.023 C 
ATOM     12  C   UNL     1       1.000  -5.992   3.724  0.00  0.00    +0.086 C 
ATOM     13  C   UNL     1       0.967  -5.214   2.439  0.00  0.00    +0.164 C 
ATOM     14  O   UNL     1       1.229  -4.027   2.456  0.00  0.00    -0.292 OA
ATOM     15  C   UNL     1       1.282  -8.281   4.699  0.00  0.00    +0.011 C 
ATOM     16  C   UNL     1       2.735  -7.543   2.800  0.00  0.00    +0.011 C 
ATOM     17  N   UNL     1       0.025  -7.766  -0.023  0.00  0.00    -0.287 N 
ATOM     18  C   UNL     1       0.326  -7.105  -1.203  0.00  0.00    +0.218 A 
ATOM     19  N   UNL     1       0.627  -5.785  -1.215  0.00  0.00    -0.221 N 
ATOM     20  N   UNL     1       0.880  -5.452  -2.545  0.00  0.00    -0.156 NA
ATOM     21  C   UNL     1       0.719  -6.548  -3.245  0.00  0.00    +0.247 A 
ATOM     22  N   UNL     1       0.383  -7.544  -2.430  0.00  0.00    -0.201 NA
ATOM     23  H   UNL     1      -0.386  -8.645  -0.034  0.00  0.00    +0.155 HD
ENDBRANCH   3   7
BRANCH   1  24
ATOM     24  O   UNL     1      -1.339  -0.499   0.012  0.00  0.00    -0.489 OA
BRANCH  24  26
ATOM     25  C   UNL     1      -0.019   1.526   0.010  0.00  0.00    +0.048 C 
ATOM     26  C   UNL     1       0.002  -0.004   0.002  0.00  0.00    +0.226 C 
ENDBRANCH  24  26
ENDBRANCH   1  24
BRANCH   6  27
ATOM     27  O   UNL     1      -3.868  -1.589   0.030  0.00  0.00    -0.484 OA
BRANCH  27  28
ATOM     28  C   UNL     1      -5.148  -2.225   0.039  0.00  0.00    +0.264 C 
BRANCH  28  29
ATOM     29  C   UNL     1      -6.229  -1.175   0.055  0.00  0.00    -0.010 A 
ATOM     30  C   UNL     1      -6.710  -0.696   1.260  0.00  0.00    +0.008 A 
ATOM     31  C   UNL     1      -7.702   0.266   1.275  0.00  0.00    +0.015 A 
ATOM     32  C   UNL     1      -8.213   0.751   0.084  0.00  0.00    +0.018 A 
ATOM     33  C   UNL     1      -7.732   0.271  -1.121  0.00  0.00    +0.015 A 
ATOM     34  C   UNL     1      -6.737  -0.688  -1.135  0.00  0.00    +0.008 A 
ATOM     35 BR   UNL     1      -9.570   2.067   0.104  0.00  0.00    -0.050 Br
ENDBRANCH  28  29
ENDBRANCH  27  28
ENDBRANCH   6  27
TORSDOF 6
