REMARK  Name = ZINC39991652
REMARK  14 active torsions:
REMARK  status: ('A' for Active; 'I' for Inactive)
REMARK    1  A    between atoms: C_1  and  C_2
REMARK    2  A    between atoms: C_5  and  S_8
REMARK    3  A    between atoms: S_8  and  C_9
REMARK    4  A    between atoms: C_11  and  C_37
REMARK    5  A    between atoms: C_12  and  C_14
REMARK    6  A    between atoms: C_14  and  C_16
REMARK    7  A    between atoms: N_20  and  C_31
REMARK    8  A    between atoms: C_21  and  C_23
REMARK    9  A    between atoms: C_26  and  O_29
REMARK   10  A    between atoms: O_29  and  C_30
REMARK   11  A    between atoms: C_31  and  C_32
REMARK   12  A    between atoms: C_32  and  N_33
REMARK   13  A    between atoms: N_33  and  C_34
REMARK   14  A    between atoms: N_33  and  C_35
REMARK                            x       y       z     vdW  Elec       q    Type
REMARK                         _______ _______ _______ _____ _____    ______ ____
ROOT
ATOM      1  C   UNL     1       0.548  -8.354   5.821  0.00  0.00    +0.077 C 
ATOM      2  C   UNL     1       0.761  -9.126   6.911  0.00  0.00    +0.249 C 
ATOM      3  C   UNL     1       0.890 -10.534   6.491  0.00  0.00    +0.288 C 
ATOM      4  O   UNL     1       1.087 -11.470   7.241  0.00  0.00    -0.266 OA
ATOM      5  N   UNL     1       0.759 -10.630   5.155  0.00  0.00    -0.285 N 
ATOM      6  C   UNL     1       0.528  -9.280   4.628  0.00  0.00    +0.145 C 
ATOM      7  O   UNL     1       0.843  -8.677   8.186  0.00  0.00    -0.282 OA
ENDROOT
BRANCH   6   8
ATOM      8  C   UNL     1      -0.811  -9.211   3.940  0.00  0.00    -0.022 A 
ATOM      9  C   UNL     1      -1.928  -9.752   4.548  0.00  0.00    +0.009 A 
ATOM     10  C   UNL     1      -3.157  -9.690   3.920  0.00  0.00    +0.046 A 
ATOM     11  C   UNL     1      -3.269  -9.084   2.677  0.00  0.00    +0.120 A 
ATOM     12  C   UNL     1      -2.146  -8.541   2.069  0.00  0.00    +0.046 A 
ATOM     13  C   UNL     1      -0.921  -8.601   2.704  0.00  0.00    +0.009 A 
BRANCH  11  14
ATOM     14  O   UNL     1      -4.476  -9.022   2.056  0.00  0.00    -0.495 OA
ATOM     15  C   UNL     1      -4.517  -8.383   0.778  0.00  0.00    +0.277 C 
ENDBRANCH  11  14
ENDBRANCH   6   8
BRANCH   1  16
ATOM     16  C   UNL     1       0.365  -6.897   5.802  0.00  0.00    +0.203 C 
ATOM     17  O   UNL     1      -0.612  -6.398   6.333  0.00  0.00    -0.286 OA
BRANCH  16  21
ATOM     18  C   UNL     1       3.306  -4.968   3.854  0.00  0.00    +0.140 A 
ATOM     19  N   UNL     1       2.416  -4.186   4.443  0.00  0.00    -0.237 NA
ATOM     20  C   UNL     1       1.408  -4.681   5.111  0.00  0.00    +0.058 A 
ATOM     21  C   UNL     1       1.326  -6.070   5.165  0.00  0.00    +0.083 A 
ATOM     22  S   UNL     1       2.763  -6.521   4.205  0.00  0.00    -0.057 S 
ATOM     23  C   UNL     1       0.390  -3.797   5.785  0.00  0.00    +0.067 C 
BRANCH  18  24
ATOM     24  S   UNL     1       4.721  -4.495   2.916  0.00  0.00    -0.063 S 
BRANCH  24  29
ATOM     25  C   UNL     1       4.880   1.517   3.441  0.00  0.00    +0.044 C 
ATOM     26  C   UNL     1       4.840   0.016   3.310  0.00  0.00    -0.050 A 
ATOM     27  C   UNL     1       5.417  -0.777   4.285  0.00  0.00    +0.004 A 
ATOM     28  C   UNL     1       5.382  -2.153   4.168  0.00  0.00    +0.015 A 
ATOM     29  C   UNL     1       4.767  -2.740   3.070  0.00  0.00    +0.015 A 
ATOM     30  C   UNL     1       4.188  -1.940   2.092  0.00  0.00    +0.015 A 
ATOM     31  C   UNL     1       4.221  -0.565   2.218  0.00  0.00    +0.004 A 
ENDBRANCH  24  29
ENDBRANCH  18  24
ENDBRANCH  16  21
ENDBRANCH   1  16
BRANCH   5  32
ATOM     32  C   UNL     1       0.828 -11.864   4.368  0.00  0.00    +0.090 C 
BRANCH  32  33
ATOM     33  C   UNL     1      -0.572 -12.470   4.247  0.00  0.00    -0.060 C 
BRANCH  33  34
ATOM     34  N   UNL     1      -0.502 -13.707   3.457  0.00  0.00    +0.377 N 
ATOM     35  C   UNL     1      -1.822 -14.352   3.441  0.00  0.00    -0.097 C 
ATOM     36  C   UNL     1      -0.096 -13.388   2.082  0.00  0.00    -0.097 C 
ATOM     37  H   UNL     1       0.173 -14.332   3.871  0.00  0.00    -0.083 HD
ENDBRANCH  33  34
ENDBRANCH  32  33
ENDBRANCH   5  32
TORSDOF 9
