REMARK  Name = ZINC09427269
REMARK  9 active torsions:
REMARK  status: ('A' for Active; 'I' for Inactive)
REMARK    1  A    between atoms: C_1  and  C_2
REMARK    2  A    between atoms: C_2  and  C_3
REMARK    3  A    between atoms: C_5  and  C_31
REMARK    4  A    between atoms: C_5  and  C_32
REMARK    5  A    between atoms: C_10  and  C_30
REMARK    6  A    between atoms: C_19  and  C_23
REMARK    7  A    between atoms: C_25  and  N_29
REMARK    8  A    between atoms: C_26  and  C_27
REMARK    9  A    between atoms: C_32  and  C_33
REMARK                            x       y       z     vdW  Elec       q    Type
REMARK                         _______ _______ _______ _____ _____    ______ ____
ROOT
ATOM      1  C   UNL     1      -5.364   0.838   1.628  0.00  0.00    -0.041 C 
ATOM      2  C   UNL     1      -5.533   1.141   0.351  0.00  0.00    +0.003 C 
ATOM      3  C   UNL     1      -4.564   0.883  -0.763  0.00  0.00    +0.058 C 
ATOM      4  N   UNL     1      -3.344   0.227  -0.275  0.00  0.00    -0.260 N 
ATOM      5  C   UNL     1      -3.178  -0.084   1.067  0.00  0.00    +0.049 A 
ATOM      6  C   UNL     1      -4.127   0.183   2.073  0.00  0.00    -0.000 A 
ATOM      7  C   UNL     1      -3.794  -0.199   3.361  0.00  0.00    +0.013 A 
ATOM      8  C   UNL     1      -2.577  -0.811   3.618  0.00  0.00    -0.049 A 
ATOM      9  C   UNL     1      -1.640  -1.073   2.618  0.00  0.00    +0.010 A 
ATOM     10  C   UNL     1      -1.964  -0.696   1.331  0.00  0.00    -0.000 A 
ATOM     11  C   UNL     1      -1.280  -0.785   0.005  0.00  0.00    +0.148 C 
ATOM     12  C   UNL     1      -2.260  -0.158  -0.975  0.00  0.00    +0.241 C 
ATOM     13  O   UNL     1      -2.095  -0.028  -2.169  0.00  0.00    -0.273 OA
ATOM     14  C   UNL     1       0.002  -0.004   0.002  0.00  0.00    +0.104 A 
ATOM     15  C   UNL     1       1.219  -0.654  -0.011  0.00  0.00    +0.145 A 
ATOM     16  C   UNL     1       2.396   0.128  -0.020  0.00  0.00    +0.088 A 
ATOM     17  C   UNL     1       2.300   1.470  -0.013  0.00  0.00    +0.110 A 
ATOM     18  O   UNL     1       1.122   2.101   0.003  0.00  0.00    -0.427 OA
ATOM     19  C   UNL     1      -0.017   1.395   0.010  0.00  0.00    +0.345 A 
ATOM     20  O   UNL     1      -1.087   1.981   0.018  0.00  0.00    -0.245 OA
ATOM     21  C   UNL     1       3.564   2.290  -0.024  0.00  0.00    +0.086 C 
ATOM     22  O   UNL     1       1.293  -2.000  -0.015  0.00  0.00    -0.441 OA
ATOM     23  C   UNL     1       0.223  -2.733  -0.368  0.00  0.00    +0.199 C 
ATOM     24  C   UNL     1      -1.029  -2.215  -0.380  0.00  0.00    +0.110 C 
ATOM     25  C   UNL     1      -2.253  -1.211   5.034  0.00  0.00    +0.044 C 
ATOM     26  C   UNL     1      -4.188   2.216  -1.414  0.00  0.00    +0.037 C 
ENDROOT
BRANCH  23  27
ATOM     27  N   UNL     1       0.404  -4.045  -0.727  0.00  0.00    -0.328 N 
ATOM     28  H   UNL     1       1.294  -4.431  -0.723  0.00  0.00    +0.145 HD
ATOM     29  H   UNL     1      -0.358  -4.588  -0.984  0.00  0.00    +0.145 HD
ENDBRANCH  23  27
BRANCH   1  31
ATOM     30  C   UNL     1      -7.338  -0.057   2.832  0.00  0.00    +0.009 C 
ATOM     31  C   UNL     1      -6.443   1.166   2.628  0.00  0.00    +0.032 C 
ENDBRANCH   1  31
BRANCH  24  32
ATOM     32  C   UNL     1      -2.131  -3.044  -0.766  0.00  0.00    +0.102 C 
ATOM     33  N   UNL     1      -3.005  -3.702  -1.072  0.00  0.00    -0.191 NA
ENDBRANCH  24  32
BRANCH   3  34
ATOM     34  C   UNL     1      -5.230  -0.013  -1.808  0.00  0.00    +0.027 C 
ATOM     35  C   UNL     1      -6.503   0.663  -2.322  0.00  0.00    +0.006 C 
ENDBRANCH   3  34
TORSDOF 4
