REMARK  Name = ZINC11815129
REMARK  7 active torsions:
REMARK  status: ('A' for Active; 'I' for Inactive)
REMARK    1  A    between atoms: C_1  and  C_2
REMARK    2  A    between atoms: C_3  and  C_18
REMARK    3  A    between atoms: N_7  and  C_8
REMARK    4  A    between atoms: C_8  and  C_9
REMARK    5  A    between atoms: N_21  and  C_23
REMARK    6  A    between atoms: C_26  and  O_29
REMARK    7  A    between atoms: O_29  and  C_30
REMARK                            x       y       z     vdW  Elec       q    Type
REMARK                         _______ _______ _______ _____ _____    ______ ____
ROOT
ATOM      1  C   UNL     1      -0.013   1.086   0.008  0.00  0.00    +0.067 C 
ATOM      2  C   UNL     1      -0.718   1.572   1.248  0.00  0.00    +0.057 A 
ATOM      3  C   UNL     1      -0.025   1.809   2.404  0.00  0.00    +0.063 A 
ATOM      4  S   UNL     1      -1.348   2.345   3.479  0.00  0.00    -0.051 S 
ATOM      5  C   UNL     1      -2.644   2.206   2.331  0.00  0.00    +0.159 A 
ATOM      6  N   UNL     1      -2.017   1.785   1.248  0.00  0.00    -0.229 NA
ATOM      7  N   UNL     1      -3.991   2.474   2.505  0.00  0.00    -0.319 N 
ATOM      8  H   UNL     1      -4.316   2.785   3.365  0.00  0.00    +0.148 HD
ENDROOT
BRANCH   3   9
ATOM      9  C   UNL     1       1.419   1.663   2.686  0.00  0.00    +0.101 A 
ATOM     10  C   UNL     1       2.056   1.937   3.914  0.00  0.00    +0.050 A 
ATOM     11  C   UNL     1       3.372   1.676   3.766  0.00  0.00    +0.115 A 
ATOM     12  N   UNL     1       3.575   1.259   2.489  0.00  0.00    -0.239 N 
ATOM     13  N   UNL     1       2.338   1.259   1.831  0.00  0.00    -0.166 NA
BRANCH  12  14
ATOM     14  C   UNL     1       4.806   0.893   1.927  0.00  0.00    +0.066 A 
ATOM     15  C   UNL     1       5.962   0.945   2.695  0.00  0.00    +0.031 A 
ATOM     16  C   UNL     1       7.173   0.579   2.143  0.00  0.00    +0.048 A 
ATOM     17  C   UNL     1       7.237   0.169   0.819  0.00  0.00    +0.120 A 
ATOM     18  C   UNL     1       6.083   0.123   0.050  0.00  0.00    +0.048 A 
ATOM     19  C   UNL     1       4.871   0.484   0.602  0.00  0.00    +0.031 A 
BRANCH  17  20
ATOM     20  O   UNL     1       8.431  -0.186   0.274  0.00  0.00    -0.495 OA
ATOM     21  C   UNL     1       9.579  -0.114   1.123  0.00  0.00    +0.277 C 
ENDBRANCH  17  20
ENDBRANCH  12  14
ENDBRANCH   3   9
BRANCH   7  22
ATOM     22  C   UNL     1      -4.925   2.288   1.392  0.00  0.00    +0.142 C 
BRANCH  22  23
ATOM     23  C   UNL     1      -6.318   2.647   1.841  0.00  0.00    +0.015 A 
ATOM     24  C   UNL     1      -7.211   1.649   2.188  0.00  0.00    +0.009 A 
ATOM     25  C   UNL     1      -8.488   1.974   2.604  0.00  0.00    +0.004 A 
ATOM     26  C   UNL     1      -8.882   3.298   2.666  0.00  0.00    +0.049 A 
ATOM     27  C   UNL     1      -7.996   4.302   2.314  0.00  0.00    +0.167 A 
ATOM     28  C   UNL     1      -6.707   3.975   1.899  0.00  0.00    +0.171 A 
ATOM     29  O   UNL     1      -6.035   5.128   1.611  0.00  0.00    -0.452 OA
ATOM     30  C   UNL     1      -6.789   6.179   2.243  0.00  0.00    +0.466 C 
ATOM     31  O   UNL     1      -8.131   5.660   2.286  0.00  0.00    -0.453 OA
ENDBRANCH  22  23
ENDBRANCH   7  22
TORSDOF 5
