REMARK  Name = ZINC22914701
REMARK  10 active torsions:
REMARK  status: ('A' for Active; 'I' for Inactive)
REMARK    1  A    between atoms: C_9  and  C_12
REMARK    2  A    between atoms: C_12  and  O_13
REMARK    3  A    between atoms: O_13  and  C_14
REMARK    4  A    between atoms: C_14  and  C_15
REMARK    5  A    between atoms: C_15  and  C_17
REMARK    6  A    between atoms: C_15  and  O_41
REMARK    7  A    between atoms: C_17  and  N_18
REMARK    8  A    between atoms: N_21  and  C_24
REMARK    9  A    between atoms: C_24  and  C_25
REMARK   10  A    between atoms: C_25  and  N_26
REMARK                            x       y       z     vdW  Elec       q    Type
REMARK                         _______ _______ _______ _____ _____    ______ ____
ROOT
ATOM      1  N   UNL     1       2.385   5.651  -0.116  0.00  0.00    -0.303 NA
ATOM      2  C   UNL     1       1.667   6.121  -1.309  0.00  0.00    +0.066 C 
ATOM      3  C   UNL     1       1.477   7.637  -1.223  0.00  0.00    -0.063 C 
ATOM      4  N   UNL     1       2.790   8.287  -1.112  0.00  0.00    +0.382 N 
ATOM      5  C   UNL     1       3.508   7.818   0.081  0.00  0.00    -0.063 C 
ATOM      6  C   UNL     1       3.699   6.301  -0.006  0.00  0.00    +0.066 C 
ATOM      7  H   UNL     1       3.382   8.010  -1.997  0.00  0.00    -0.082 HD
ENDROOT
BRANCH   1   8
ATOM      8  C   UNL     1       2.521   4.189  -0.125  0.00  0.00    +0.117 C 
BRANCH   8   9
ATOM      9  C   UNL     1       1.139   3.547   0.010  0.00  0.00    +0.154 C 
BRANCH   9  10
ATOM     10  O   UNL     1       0.539   3.962   1.239  0.00  0.00    -0.388 OA
ATOM     11  H   UNL     1       0.356   5.030   1.429  0.00  0.00    +0.210 HD
ENDBRANCH   9  10
BRANCH   9  12
ATOM     12  C   UNL     1       1.280   2.024   0.001  0.00  0.00    +0.192 C 
BRANCH  12  13
ATOM     13  O   UNL     1      -0.017   1.425   0.010  0.00  0.00    -0.373 OA
BRANCH  13  14
ATOM     14  C   UNL     1       0.002  -0.004   0.002  0.00  0.00    +0.207 C 
BRANCH  14  23
ATOM     15  C   UNL     1      -5.641  -2.106  -2.074  0.00  0.00    +0.004 A 
ATOM     16  C   UNL     1      -5.301  -0.940  -2.734  0.00  0.00    +0.004 A 
ATOM     17  C   UNL     1      -4.112  -0.300  -2.443  0.00  0.00    +0.049 A 
ATOM     18  C   UNL     1      -3.256  -0.825  -1.486  0.00  0.00    +0.163 A 
ATOM     19  C   UNL     1      -3.598  -1.996  -0.821  0.00  0.00    +0.162 A 
ATOM     20  C   UNL     1      -4.793  -2.634  -1.119  0.00  0.00    +0.049 A 
ATOM     21  O   UNL     1      -2.775  -2.526   0.125  0.00  0.00    -0.485 OA
ATOM     22  C   UNL     1      -1.420  -2.064   0.131  0.00  0.00    +0.276 C 
ATOM     23  C   UNL     1      -1.433  -0.534   0.013  0.00  0.00    +0.236 C 
ATOM     24  O   UNL     1      -2.086  -0.184  -1.213  0.00  0.00    -0.479 OA
ENDBRANCH  14  23
ENDBRANCH  13  14
ENDBRANCH  12  13
ENDBRANCH   9  12
ENDBRANCH   8   9
ENDBRANCH   1   8
BRANCH   4  25
ATOM     25  C   UNL     1       2.654   9.750  -1.103  0.00  0.00    -0.059 C 
BRANCH  25  26
ATOM     26  C   UNL     1       2.131  10.222  -2.461  0.00  0.00    +0.098 C 
BRANCH  26  27
ATOM     27  N   UNL     1       1.996  11.681  -2.452  0.00  0.00    -0.236 N 
ATOM     28  C   UNL     1       0.825  12.221  -2.063  0.00  0.00    +0.254 C 
ATOM     29  O   UNL     1      -0.093  11.497  -1.728  0.00  0.00    -0.270 OA
ATOM     30  C   UNL     1       0.653  13.681  -2.036  0.00  0.00    +0.046 A 
ATOM     31  C   UNL     1      -0.534  14.279  -1.638  0.00  0.00    +0.014 A 
ATOM     32  C   UNL     1      -0.650  15.664  -1.635  0.00  0.00    +0.001 A 
ATOM     33  C   UNL     1       0.384  16.470  -2.017  0.00  0.00    +0.008 A 
ATOM     34  C   UNL     1       1.603  15.903  -2.427  0.00  0.00    -0.016 A 
ATOM     35  C   UNL     1       1.734  14.499  -2.435  0.00  0.00    +0.006 A 
ATOM     36  C   UNL     1       2.947  13.899  -2.843  0.00  0.00    +0.046 A 
ATOM     37  C   UNL     1       4.002  14.710  -3.233  0.00  0.00    +0.014 A 
ATOM     38  C   UNL     1       3.861  16.093  -3.220  0.00  0.00    +0.001 A 
ATOM     39  C   UNL     1       2.697  16.690  -2.829  0.00  0.00    +0.008 A 
ATOM     40  C   UNL     1       3.045  12.432  -2.838  0.00  0.00    +0.254 C 
ATOM     41  O   UNL     1       4.079  11.894  -3.185  0.00  0.00    -0.270 OA
ENDBRANCH  26  27
ENDBRANCH  25  26
ENDBRANCH   4  25
TORSDOF 10
