REMARK  Name = ZINC07125931
REMARK  3 active torsions:
REMARK  status: ('A' for Active; 'I' for Inactive)
REMARK    1  A    between atoms: C_10  and  C_16
REMARK    2  A    between atoms: C_20  and  O_23
REMARK    3  A    between atoms: C_21  and  O_22
REMARK                            x       y       z     vdW  Elec       q    Type
REMARK                         _______ _______ _______ _____ _____    ______ ____
ROOT
ATOM      1  C   UNL     1      -0.906  -6.796  -0.151  0.00  0.00    +0.002 A 
ATOM      2  C   UNL     1       0.423  -6.544  -0.445  0.00  0.00    +0.002 A 
ATOM      3  C   UNL     1       0.920  -5.255  -0.552  0.00  0.00    +0.028 A 
ATOM      4  C   UNL     1       0.025  -4.210  -0.351  0.00  0.00    +0.072 A 
ATOM      5  C   UNL     1      -1.338  -4.464  -0.049  0.00  0.00    +0.091 A 
ATOM      6  C   UNL     1      -1.817  -5.775   0.054  0.00  0.00    +0.030 A 
ATOM      7  N   UNL     1      -1.951  -3.273   0.093  0.00  0.00    -0.210 NA
ATOM      8  C   UNL     1      -1.080  -2.308  -0.090  0.00  0.00    +0.236 A 
ATOM      9  N   UNL     1       0.159  -2.855  -0.379  0.00  0.00    -0.285 N 
ATOM     10  C   UNL     1       1.329  -2.011  -0.654  0.00  0.00    +0.212 C 
ATOM     11  N   UNL     1       1.069  -0.707  -0.019  0.00  0.00    -0.293 N 
ATOM     12  C   UNL     1      -0.198  -0.187  -0.016  0.00  0.00    +0.183 C 
ATOM     13  N   UNL     1      -1.263  -0.970  -0.010  0.00  0.00    -0.183 NA
ATOM     14  N   UNL     1      -0.365   1.171  -0.012  0.00  0.00    -0.331 N 
ATOM     15  H   UNL     1       1.796  -0.215   0.395  0.00  0.00    +0.151 HD
ATOM     16  H   UNL     1       0.410   1.755  -0.012  0.00  0.00    +0.145 HD
ATOM     17  H   UNL     1      -1.258   1.550  -0.013  0.00  0.00    +0.145 HD
ENDROOT
BRANCH  10  18
ATOM     18  C   UNL     1       1.502  -1.836  -2.141  0.00  0.00    +0.038 A 
ATOM     19  C   UNL     1       0.483  -2.197  -3.003  0.00  0.00    +0.011 A 
ATOM     20  C   UNL     1       0.639  -2.037  -4.367  0.00  0.00    +0.004 A 
ATOM     21  C   UNL     1       1.814  -1.516  -4.875  0.00  0.00    +0.049 A 
ATOM     22  C   UNL     1       2.839  -1.153  -4.017  0.00  0.00    +0.159 A 
ATOM     23  C   UNL     1       2.680  -1.307  -2.643  0.00  0.00    +0.165 A 
BRANCH  23  24
ATOM     24  O   UNL     1       3.681  -0.946  -1.796  0.00  0.00    -0.503 OA
ATOM     25  H   UNL     1       4.346  -1.634  -1.658  0.00  0.00    +0.292 HD
ENDBRANCH  23  24
BRANCH  22  26
ATOM     26  O   UNL     1       3.996  -0.640  -4.516  0.00  0.00    -0.503 OA
ATOM     27  H   UNL     1       3.994   0.323  -4.603  0.00  0.00    +0.292 HD
ENDBRANCH  22  26
ENDBRANCH  10  18
TORSDOF 3
