REMARK  Name = ZINC36694548
REMARK  8 active torsions:
REMARK  status: ('A' for Active; 'I' for Inactive)
REMARK    1  A    between atoms: C_1  and  C_2
REMARK    2  A    between atoms: C_2  and  C_4
REMARK    3  A    between atoms: C_2  and  N_22
REMARK    4  A    between atoms: N_6  and  C_7
REMARK    5  A    between atoms: C_7  and  C_8
REMARK    6  A    between atoms: C_8  and  C_10
REMARK    7  A    between atoms: C_8  and  N_17
REMARK    8  A    between atoms: C_23  and  C_25
REMARK                            x       y       z     vdW  Elec       q    Type
REMARK                         _______ _______ _______ _____ _____    ______ ____
ROOT
ATOM      1  C   UNL     1      -1.224  -0.646  -0.305  0.00  0.00    +0.233 C 
ATOM      2  O   UNL     1      -1.543  -1.300   0.666  0.00  0.00    -0.274 OA
ATOM      3  N   UNL     1      -2.152  -0.305  -1.222  0.00  0.00    -0.315 N 
ATOM      4  H   UNL     1      -1.897   0.217  -1.998  0.00  0.00    +0.149 HD
ENDROOT
BRANCH   1   6
ATOM      5  C   UNL     1       0.279   1.312  -0.533  0.00  0.00    +0.038 C 
ATOM      6  C   UNL     1       0.208  -0.216  -0.486  0.00  0.00    +0.156 C 
BRANCH   6   7
ATOM      7  N   UNL     1       1.012  -0.707   0.636  0.00  0.00    -0.300 N 
ATOM      8  C   UNL     1       2.336  -0.903   0.482  0.00  0.00    +0.246 C 
ATOM      9  O   UNL     1       2.864  -0.671  -0.588  0.00  0.00    -0.270 OA
ATOM     10  H   UNL     1       0.590  -0.892   1.490  0.00  0.00    +0.150 HD
BRANCH   8  11
ATOM     11  C   UNL     1       3.147  -1.399   1.614  0.00  0.00    +0.055 A 
ATOM     12  C   UNL     1       2.542  -1.672   2.842  0.00  0.00    +0.014 A 
ATOM     13  C   UNL     1       3.304  -2.135   3.894  0.00  0.00    +0.001 A 
ATOM     14  C   UNL     1       4.665  -2.330   3.735  0.00  0.00    +0.001 A 
ATOM     15  C   UNL     1       5.271  -2.061   2.522  0.00  0.00    +0.021 A 
ATOM     16  C   UNL     1       4.520  -1.603   1.458  0.00  0.00    +0.053 A 
ATOM     17 CL   UNL     1       5.280  -1.274  -0.068  0.00  0.00    -0.083 Cl
ENDBRANCH   8  11
ENDBRANCH   6   7
ENDBRANCH   1   6
BRANCH   3  18
ATOM     18  C   UNL     1      -3.545  -0.724  -1.045  0.00  0.00    +0.093 C 
BRANCH  18  19
ATOM     19  C   UNL     1      -4.406  -0.107  -2.149  0.00  0.00    -0.019 C 
BRANCH  19  20
ATOM     20  C   UNL     1      -3.992  -0.671  -3.484  0.00  0.00    -0.041 A 
ATOM     21  C   UNL     1      -3.077   0.007  -4.267  0.00  0.00    +0.003 A 
ATOM     22  C   UNL     1      -2.698  -0.511  -5.492  0.00  0.00    +0.000 A 
ATOM     23  C   UNL     1      -3.233  -1.707  -5.933  0.00  0.00    +0.001 A 
ATOM     24  C   UNL     1      -4.148  -2.385  -5.151  0.00  0.00    +0.020 A 
ATOM     25  C   UNL     1      -4.524  -1.871  -3.923  0.00  0.00    +0.043 A 
ATOM     26 CL   UNL     1      -5.668  -2.726  -2.936  0.00  0.00    -0.083 Cl
ENDBRANCH  19  20
BRANCH  19  27
ATOM     27  N   UNL     1      -4.223   1.351  -2.156  0.00  0.00    +0.385 N 
ATOM     28  C   UNL     1      -5.130   1.976  -3.152  0.00  0.00    -0.078 C 
ATOM     29  C   UNL     1      -5.241   3.441  -2.660  0.00  0.00    -0.020 C 
ATOM     30  C   UNL     1      -5.258   3.288  -1.122  0.00  0.00    -0.020 C 
ATOM     31  C   UNL     1      -4.610   1.919  -0.846  0.00  0.00    -0.078 C 
ATOM     32  H   UNL     1      -3.263   1.580  -2.365  0.00  0.00    -0.081 HD
ENDBRANCH  19  27
ENDBRANCH  18  19
ENDBRANCH   3  18
TORSDOF 7
