REMARK  Name = ZINC24772904
REMARK  8 active torsions:
REMARK  status: ('A' for Active; 'I' for Inactive)
REMARK    1  A    between atoms: C_1  and  C_2
REMARK    2  A    between atoms: C_3  and  C_7
REMARK    3  A    between atoms: C_10  and  S_13
REMARK    4  A    between atoms: N_11  and  C_12
REMARK    5  A    between atoms: S_13  and  C_14
REMARK    6  A    between atoms: C_17  and  N_29
REMARK    7  A    between atoms: C_19  and  S_20
REMARK    8  A    between atoms: S_20  and  N_23
REMARK                            x       y       z     vdW  Elec       q    Type
REMARK                         _______ _______ _______ _____ _____    ______ ____
ROOT
ATOM      1  C   UNL     1      -2.815   0.100   0.117  0.00  0.00    +0.042 A 
ATOM      2  C   UNL     1      -2.537   1.426   0.453  0.00  0.00    +0.019 A 
ATOM      3  C   UNL     1      -3.571   2.321   0.628  0.00  0.00    +0.034 A 
ATOM      4  C   UNL     1      -4.884   1.905   0.481  0.00  0.00    +0.128 A 
ATOM      5  C   UNL     1      -5.166   0.590   0.153  0.00  0.00    +0.062 A 
ATOM      6  C   UNL     1      -4.140  -0.314  -0.029  0.00  0.00    +0.121 A 
ENDROOT
BRANCH   6   7
ATOM      7  S   UNL     1      -4.500  -1.987  -0.448  0.00  0.00    +0.062 S 
ATOM      8  O   UNL     1      -3.690  -2.799   0.391  0.00  0.00    -0.153 OA
ATOM      9  O   UNL     1      -5.916  -2.101  -0.480  0.00  0.00    -0.153 OA
BRANCH   7  10
ATOM     10  N   UNL     1      -3.970  -2.229  -1.997  0.00  0.00    -0.172 NA
ATOM     11  C   UNL     1      -4.802  -1.851  -3.151  0.00  0.00    +0.137 C 
ATOM     12  C   UNL     1      -3.944  -1.003  -4.103  0.00  0.00    +0.177 C 
ATOM     13  O   UNL     1      -2.735  -1.707  -4.397  0.00  0.00    -0.377 OA
ATOM     14  C   UNL     1      -1.904  -1.944  -3.258  0.00  0.00    +0.177 C 
ATOM     15  C   UNL     1      -2.656  -2.835  -2.262  0.00  0.00    +0.137 C 
ENDBRANCH   7  10
ENDBRANCH   6   7
BRANCH   4  16
ATOM     16  N   UNL     1      -5.989   2.869   0.677  0.00  0.00    +0.056 N 
ATOM     17  O   UNL     1      -7.239   2.476   0.538  0.00  0.00    -0.126 OA
ATOM     18  O   UNL     1      -5.724   4.121   0.989  0.00  0.00    -0.126 OA
ENDBRANCH   4  16
BRANCH   1  19
ATOM     19  S   UNL     1      -1.499  -1.048  -0.113  0.00  0.00    -0.048 S 
BRANCH  19  23
ATOM     20  C   UNL     1       0.630  -1.224   3.104  0.00  0.00    +0.168 A 
ATOM     21  N   UNL     1      -0.254  -0.238   3.401  0.00  0.00    -0.128 NA
ATOM     22  N   UNL     1      -1.047  -0.060   2.404  0.00  0.00    -0.122 NA
ATOM     23  C   UNL     1      -0.722  -0.919   1.407  0.00  0.00    +0.196 A 
ATOM     24  N   UNL     1       0.342  -1.665   1.839  0.00  0.00    -0.305 N 
ATOM     25  C   UNL     1       1.035  -2.721   1.097  0.00  0.00    +0.153 C 
BRANCH  20  28
ATOM     26  C   UNL     1       0.314  -1.972   6.154  0.00  0.00    +0.087 C 
ATOM     27  C   UNL     1       1.556  -2.051   5.304  0.00  0.00    +0.112 A 
ATOM     28  C   UNL     1       1.654  -1.706   3.942  0.00  0.00    +0.060 A 
ATOM     29  C   UNL     1       3.059  -1.952   3.587  0.00  0.00    +0.053 A 
ATOM     30  C   UNL     1       3.651  -2.405   4.702  0.00  0.00    +0.196 A 
ATOM     31  O   UNL     1       2.758  -2.462   5.705  0.00  0.00    -0.467 OA
ENDBRANCH  20  28
ENDBRANCH  19  23
ENDBRANCH   1  19
TORSDOF 6
