REMARK  Name = ZINC24719013
REMARK  5 active torsions:
REMARK  status: ('A' for Active; 'I' for Inactive)
REMARK    1  A    between atoms: C_8  and  N_11
REMARK    2  A    between atoms: N_11  and  C_12
REMARK    3  A    between atoms: C_12  and  C_13
REMARK    4  A    between atoms: N_15  and  C_16
REMARK    5  A    between atoms: C_21  and  N_22
REMARK                            x       y       z     vdW  Elec       q    Type
REMARK                         _______ _______ _______ _____ _____    ______ ____
ROOT
ATOM      1  C   UNL     1       4.838   1.639  -0.049  0.00  0.00    +0.234 C 
ATOM      2  O   UNL     1       4.734   0.430  -0.045  0.00  0.00    -0.274 OA
ATOM      3  N   UNL     1       6.059   2.210  -0.053  0.00  0.00    -0.282 N 
ATOM      4  H   UNL     1       6.154   3.304  -0.131  0.00  0.00    +0.155 HD
ENDROOT
BRANCH   3   5
ATOM      5  C   UNL     1       7.205   1.413   0.042  0.00  0.00    +0.061 A 
ATOM      6  C   UNL     1       7.234   0.161  -0.555  0.00  0.00    +0.045 A 
ATOM      7  C   UNL     1       8.369  -0.623  -0.463  0.00  0.00    +0.043 A 
ATOM      8  C   UNL     1       9.475  -0.166   0.232  0.00  0.00    +0.022 A 
ATOM      9  C   UNL     1       9.453   1.077   0.834  0.00  0.00    +0.031 A 
ATOM     10  C   UNL     1       8.320   1.872   0.743  0.00  0.00    +0.088 A 
ATOM     11 CL   UNL     1       8.405  -2.186  -1.217  0.00  0.00    -0.083 Cl
BRANCH  10  12
ATOM     12  N   UNL     1       8.295   3.135   1.354  0.00  0.00    -0.218 N 
ATOM     13  C   UNL     1       9.317   3.749   1.980  0.00  0.00    +0.225 A 
ATOM     14  N   UNL     1       8.891   4.910   2.409  0.00  0.00    -0.222 NA
ATOM     15  C   UNL     1       7.608   5.067   2.087  0.00  0.00    +0.245 A 
ATOM     16  N   UNL     1       7.198   4.007   1.440  0.00  0.00    -0.153 NA
ENDBRANCH  10  12
ENDBRANCH   3   5
BRANCH   1  17
ATOM     17  C   UNL     1       3.602   2.501  -0.048  0.00  0.00    +0.198 C 
BRANCH  17  18
ATOM     18  N   UNL     1       2.411   1.648  -0.043  0.00  0.00    -0.335 N 
ATOM     19  H   UNL     1       2.519   0.553  -0.040  0.00  0.00    +0.147 HD
BRANCH  18  27
ATOM     20  C   UNL     1      -1.187  -0.659  -0.029  0.00  0.00    +0.001 A 
ATOM     21  C   UNL     1      -2.418   0.001  -0.028  0.00  0.00    +0.004 A 
ATOM     22  C   UNL     1      -2.468   1.362  -0.032  0.00  0.00    -0.039 A 
ATOM     23  C   UNL     1      -1.264   2.060  -0.029  0.00  0.00    -0.010 A 
ATOM     24  C   UNL     1      -1.399   3.445  -0.038  0.00  0.00    -0.039 A 
ATOM     25  C   UNL     1      -0.267   4.202  -0.042  0.00  0.00    +0.006 A 
ATOM     26  C   UNL     1       0.990   3.597  -0.045  0.00  0.00    +0.024 A 
ATOM     27  C   UNL     1       1.142   2.223  -0.042  0.00  0.00    +0.035 A 
ATOM     28  C   UNL     1      -0.015   1.416  -0.037  0.00  0.00    +0.003 A 
ATOM     29  C   UNL     1       0.001   0.013  -0.033  0.00  0.00    +0.010 A 
ATOM     30  C   UNL     1      -2.877   3.754  -0.036  0.00  0.00    +0.040 C 
ATOM     31  C   UNL     1      -3.581   2.380  -0.032  0.00  0.00    +0.040 C 
ENDBRANCH  18  27
ENDBRANCH  17  18
ENDBRANCH   1  17
TORSDOF 5
