REMARK  Name = ZINC09714493
REMARK  6 active torsions:
REMARK  status: ('A' for Active; 'I' for Inactive)
REMARK    1  A    between atoms: C_1  and  N_2
REMARK    2  A    between atoms: N_11  and  C_27
REMARK    3  A    between atoms: C_19  and  C_20
REMARK    4  A    between atoms: C_19  and  N_61
REMARK    5  A    between atoms: C_27  and  C_28
REMARK    6  A    between atoms: C_28  and  C_29
REMARK                            x       y       z     vdW  Elec       q    Type
REMARK                         _______ _______ _______ _____ _____    ______ ____
ROOT
ATOM      1  C   UNL     1      -2.052   4.677  -7.952  0.00  0.00    +0.155 C 
ATOM      2  N   UNL     1      -3.170   3.767  -7.692  0.00  0.00    -0.280 N 
ATOM      3  C   UNL     1      -3.126   2.909  -6.606  0.00  0.00    +0.170 A 
ATOM      4  C   UNL     1      -4.201   2.055  -6.383  0.00  0.00    +0.153 A 
ATOM      5  C   UNL     1      -5.298   2.087  -7.263  0.00  0.00    +0.280 A 
ATOM      6  O   UNL     1      -6.251   1.348  -7.086  0.00  0.00    -0.265 OA
ATOM      7  N   UNL     1      -5.284   2.944  -8.304  0.00  0.00    -0.273 N 
ATOM      8  H   UNL     1      -6.062   2.970  -8.931  0.00  0.00    +0.173 HD
ATOM      9  C   UNL     1      -4.239   3.765  -8.511  0.00  0.00    +0.331 A 
ATOM     10  O   UNL     1      -4.261   4.525  -9.460  0.00  0.00    -0.246 OA
ATOM     11  N   UNL     1      -3.889   1.322  -5.245  0.00  0.00    -0.306 N 
ATOM     12  C   UNL     1      -2.666   1.747  -4.830  0.00  0.00    +0.201 A 
ATOM     13  N   UNL     1      -2.231   2.689  -5.642  0.00  0.00    -0.196 NA
ATOM     14  N   UNL     1      -1.991   1.271  -3.729  0.00  0.00    -0.304 N 
ATOM     15  C   UNL     1      -0.543   1.231  -3.976  0.00  0.00    +0.089 C 
ATOM     16  C   UNL     1       0.162   0.623  -2.761  0.00  0.00    -0.059 C 
ATOM     17  C   UNL     1      -1.591   1.466  -1.322  0.00  0.00    -0.059 C 
ATOM     18  C   UNL     1      -2.297   2.074  -2.537  0.00  0.00    +0.089 C 
ATOM     19  N   UNL     1      -0.135   1.452  -1.574  0.00  0.00    +0.384 N 
ATOM     20  H   UNL     1       0.183   2.413  -1.750  0.00  0.00    -0.081 HD
ENDROOT
BRANCH  19  21
ATOM     21  C   UNL     1       0.578   0.918  -0.394  0.00  0.00    -0.043 C 
BRANCH  21  22
ATOM     22  C   UNL     1       0.439   1.898   0.743  0.00  0.00    -0.064 A 
ATOM     23  C   UNL     1       1.369   2.908   0.902  0.00  0.00    +0.003 A 
ATOM     24  C   UNL     1       1.239   3.810   1.941  0.00  0.00    +0.020 A 
ATOM     25  C   UNL     1       0.183   3.696   2.828  0.00  0.00    +0.041 A 
ATOM     26  C   UNL     1      -0.745   2.682   2.671  0.00  0.00    +0.020 A 
ATOM     27  C   UNL     1      -0.617   1.784   1.628  0.00  0.00    +0.003 A 
ATOM     28 CL   UNL     1       0.023   4.825   4.137  0.00  0.00    -0.084 Cl
ENDBRANCH  21  22
ENDBRANCH  19  21
BRANCH  11  29
ATOM     29  C   UNL     1      -4.717   0.291  -4.615  0.00  0.00    +0.130 C 
BRANCH  29  30
ATOM     30  C   UNL     1      -5.737   0.952  -3.687  0.00  0.00    +0.057 C 
BRANCH  30  31
ATOM     31  C   UNL     1      -6.504  -0.112  -2.945  0.00  0.00    -0.046 A 
ATOM     32  C   UNL     1      -7.673  -0.621  -3.478  0.00  0.00    +0.004 A 
ATOM     33  C   UNL     1      -8.374  -1.600  -2.800  0.00  0.00    +0.000 A 
ATOM     34  C   UNL     1      -7.912  -2.063  -1.582  0.00  0.00    +0.000 A 
ATOM     35  C   UNL     1      -6.746  -1.550  -1.046  0.00  0.00    +0.000 A 
ATOM     36  C   UNL     1      -6.042  -0.574  -1.727  0.00  0.00    +0.004 A 
ENDBRANCH  30  31
ENDBRANCH  29  30
ENDBRANCH  11  29
TORSDOF 5
