REMARK  Name = ZINC13500516
REMARK  12 active torsions:
REMARK  status: ('A' for Active; 'I' for Inactive)
REMARK    1  A    between atoms: C_1  and  C_2
REMARK    2  A    between atoms: C_2  and  C_3
REMARK    3  A    between atoms: C_2  and  C_4
REMARK    4  A    between atoms: C_4  and  C_6
REMARK    5  A    between atoms: C_4  and  N_73
REMARK    6  A    between atoms: N_10  and  C_11
REMARK    7  A    between atoms: C_11  and  C_12
REMARK    8  A    between atoms: C_18  and  C_19
REMARK    9  A    between atoms: C_18  and  N_73
REMARK   10  A    between atoms: C_19  and  C_20
REMARK   11  A    between atoms: C_26  and  C_27
REMARK   12  A    between atoms: C_26  and  N_73
REMARK                            x       y       z     vdW  Elec       q    Type
REMARK                         _______ _______ _______ _____ _____    ______ ____
ROOT
ATOM      1  N   UNL     1      -0.064   1.167  -1.816  0.00  0.00    +0.390 N 
ATOM      2  H   UNL     1      -0.841   0.629  -1.413  0.00  0.00    -0.080 HD
ENDROOT
BRANCH   1   3
ATOM      3  C   UNL     1      -0.570   2.483  -2.258  0.00  0.00    +0.006 C 
BRANCH   3   4
ATOM      4  C   UNL     1       0.483   3.214  -3.050  0.00  0.00    +0.138 A 
ATOM      5  N   UNL     1       1.244   2.712  -3.993  0.00  0.00    -0.115 NA
ATOM      6  N   UNL     1       2.013   3.650  -4.426  0.00  0.00    -0.023 NA
ATOM      7  N   UNL     1       1.763   4.738  -3.785  0.00  0.00    -0.044 NA
ATOM      8  N   UNL     1       0.822   4.512  -2.932  0.00  0.00    -0.228 N 
BRANCH   8   9
ATOM      9  C   UNL     1       0.235   5.483  -2.006  0.00  0.00    +0.178 C 
BRANCH   9  10
ATOM     10  C   UNL     1       1.102   5.577  -0.749  0.00  0.00    +0.140 C 
ATOM     11  C   UNL     1       0.469   6.570   0.251  0.00  0.00    +0.035 C 
ATOM     12  C   UNL     1       1.714   7.302   0.821  0.00  0.00    +0.031 C 
ATOM     13  C   UNL     1       2.637   7.326  -0.423  0.00  0.00    +0.160 C 
ATOM     14  O   UNL     1       2.400   6.076  -1.090  0.00  0.00    -0.375 OA
ENDBRANCH   9  10
ENDBRANCH   8   9
ENDBRANCH   3   4
BRANCH   3  16
ATOM     15  C   UNL     1      -2.890   1.559  -2.316  0.00  0.00    +0.006 C 
ATOM     16  C   UNL     1      -1.807   2.268  -3.132  0.00  0.00    -0.024 C 
ATOM     17  C   UNL     1      -2.334   3.622  -3.611  0.00  0.00    +0.006 C 
ENDBRANCH   3  16
ENDBRANCH   1   3
BRANCH   1  18
ATOM     18  C   UNL     1       0.981   1.347  -0.786  0.00  0.00    -0.073 C 
BRANCH  18  19
ATOM     19  C   UNL     1       0.316   1.801   0.515  0.00  0.00    +0.016 C 
BRANCH  19  20
ATOM     20  C   UNL     1       1.341   1.829   1.619  0.00  0.00    -0.049 A 
ATOM     21  C   UNL     1       1.633   0.673   2.320  0.00  0.00    +0.003 A 
ATOM     22  C   UNL     1       2.576   0.697   3.330  0.00  0.00    +0.000 A 
ATOM     23  C   UNL     1       3.220   1.879   3.646  0.00  0.00    +0.000 A 
ATOM     24  C   UNL     1       2.924   3.036   2.950  0.00  0.00    +0.000 A 
ATOM     25  C   UNL     1       1.984   3.010   1.936  0.00  0.00    +0.003 A 
ENDBRANCH  19  20
ENDBRANCH  18  19
ENDBRANCH   1  18
BRANCH   1  26
ATOM     26  C   UNL     1       0.486   0.423  -2.969  0.00  0.00    -0.037 C 
BRANCH  26  27
ATOM     27  C   UNL     1       0.523  -1.043  -2.624  0.00  0.00    +0.001 A 
ATOM     28  C   UNL     1      -0.513  -1.847  -2.978  0.00  0.00    +0.017 A 
ATOM     29  C   UNL     1      -0.445  -3.267  -2.633  0.00  0.00    +0.002 A 
ATOM     30  C   UNL     1      -1.483  -4.143  -2.975  0.00  0.00    +0.059 A 
ATOM     31  C   UNL     1      -1.392  -5.475  -2.636  0.00  0.00    +0.167 A 
ATOM     32  C   UNL     1      -0.268  -5.953  -1.951  0.00  0.00    +0.168 A 
ATOM     33  C   UNL     1       0.760  -5.095  -1.607  0.00  0.00    +0.075 A 
ATOM     34  C   UNL     1       0.683  -3.748  -1.942  0.00  0.00    +0.053 A 
ATOM     35  N   UNL     1       1.700  -2.877  -1.607  0.00  0.00    -0.322 N 
ATOM     36  H   UNL     1       2.477  -3.209  -1.131  0.00  0.00    +0.169 HD
ATOM     37  C   UNL     1       1.629  -1.574  -1.932  0.00  0.00    +0.251 A 
ATOM     38  O   UNL     1       2.546  -0.834  -1.619  0.00  0.00    -0.268 OA
ATOM     39  O   UNL     1      -0.427  -7.292  -1.741  0.00  0.00    -0.453 OA
ATOM     40  C   UNL     1      -1.456  -7.707  -2.657  0.00  0.00    +0.466 C 
ATOM     41  O   UNL     1      -2.247  -6.519  -2.849  0.00  0.00    -0.453 OA
ENDBRANCH  26  27
ENDBRANCH   1  26
TORSDOF 10
