REMARK  Name = ZINC64587846
REMARK  11 active torsions:
REMARK  status: ('A' for Active; 'I' for Inactive)
REMARK    1  A    between atoms: C_1  and  C_2
REMARK    2  A    between atoms: C_2  and  C_3
REMARK    3  A    between atoms: C_2  and  C_4
REMARK    4  A    between atoms: C_4  and  N_5
REMARK    5  A    between atoms: C_6  and  C_8
REMARK    6  A    between atoms: N_17  and  C_20
REMARK    7  A    between atoms: C_20  and  C_21
REMARK    8  A    between atoms: N_28  and  C_31
REMARK    9  A    between atoms: C_31  and  C_32
REMARK   10  A    between atoms: C_32  and  C_33
REMARK   11  A    between atoms: C_32  and  C_34
REMARK                            x       y       z     vdW  Elec       q    Type
REMARK                         _______ _______ _______ _____ _____    ______ ____
ROOT
ATOM      1  C   UNL     1      -0.302  -0.109   4.876  0.00  0.00    +0.039 A 
ATOM      2  C   UNL     1      -1.502   0.596   4.758  0.00  0.00    +0.014 A 
ATOM      3  C   UNL     1      -2.213   0.948   5.884  0.00  0.00    +0.016 A 
ATOM      4  C   UNL     1      -1.732   0.599   7.145  0.00  0.00    +0.064 A 
ATOM      5  C   UNL     1      -0.528  -0.109   7.269  0.00  0.00    +0.067 A 
ATOM      6  C   UNL     1       0.181  -0.466   6.134  0.00  0.00    +0.040 A 
ATOM      7  N   UNL     1      -0.062  -0.449   8.539  0.00  0.00    -0.229 N 
ATOM      8  C   UNL     1      -0.775  -0.095   9.663  0.00  0.00    +0.240 A 
ATOM      9  N   UNL     1      -0.131  -0.528  10.713  0.00  0.00    -0.129 NA
ATOM     10  N   UNL     1       1.029  -1.179  10.275  0.00  0.00    -0.206 N 
ATOM     11  C   UNL     1       1.045  -1.115   8.929  0.00  0.00    +0.353 A 
ATOM     12  O   UNL     1       1.903  -1.575   8.197  0.00  0.00    -0.244 OA
ATOM     13  N   UNL     1      -1.970   0.605   9.568  0.00  0.00    -0.276 N 
ATOM     14  C   UNL     1      -2.473   0.963   8.370  0.00  0.00    +0.263 A 
ATOM     15  O   UNL     1      -3.520   1.577   8.299  0.00  0.00    -0.267 OA
ENDROOT
BRANCH   1  17
ATOM     16  N   UNL     1      -0.008  -0.140   2.444  0.00  0.00    -0.311 N 
ATOM     17  C   UNL     1       0.457  -0.484   3.661  0.00  0.00    +0.244 C 
ATOM     18  O   UNL     1       1.498  -1.102   3.761  0.00  0.00    -0.270 OA
ATOM     19  H   UNL     1      -0.840   0.353   2.364  0.00  0.00    +0.149 HD
BRANCH  16  20
ATOM     20  C   UNL     1       0.742  -0.511   1.242  0.00  0.00    +0.107 C 
BRANCH  20  22
ATOM     21  C   UNL     1      -0.019   1.526   0.010  0.00  0.00    +0.009 C 
ATOM     22  C   UNL     1       0.002  -0.004   0.002  0.00  0.00    -0.000 C 
ATOM     23  C   UNL     1       0.718  -0.497  -1.257  0.00  0.00    +0.009 C 
ENDBRANCH  20  22
ENDBRANCH  16  20
ENDBRANCH   1  17
BRANCH  10  24
ATOM     24  C   UNL     1       2.040  -1.814  11.125  0.00  0.00    +0.184 C 
BRANCH  24  25
ATOM     25  C   UNL     1       3.100  -0.805  11.484  0.00  0.00    -0.026 A 
ATOM     26  C   UNL     1       4.208  -0.648  10.671  0.00  0.00    +0.007 A 
ATOM     27  C   UNL     1       5.181   0.277  11.000  0.00  0.00    +0.020 A 
ATOM     28  C   UNL     1       5.046   1.046  12.142  0.00  0.00    +0.041 A 
ATOM     29  C   UNL     1       3.937   0.889  12.954  0.00  0.00    +0.020 A 
ATOM     30  C   UNL     1       2.962  -0.033  12.622  0.00  0.00    +0.007 A 
ATOM     31 CL   UNL     1       6.268   2.208  12.555  0.00  0.00    -0.084 Cl
ENDBRANCH  24  25
ENDBRANCH  10  24
BRANCH  13  32
ATOM     32  C   UNL     1      -2.696   0.961  10.790  0.00  0.00    +0.131 C 
BRANCH  32  33
ATOM     33  C   UNL     1      -2.224   2.330  11.282  0.00  0.00    +0.003 C 
ATOM     34  C   UNL     1      -2.606   3.401  10.258  0.00  0.00    +0.009 C 
ATOM     35  C   UNL     1      -2.889   2.647  12.623  0.00  0.00    +0.009 C 
ENDBRANCH  32  33
ENDBRANCH  13  32
TORSDOF 7
