REMARK  Name = ZINC12521739
REMARK  9 active torsions:
REMARK  status: ('A' for Active; 'I' for Inactive)
REMARK    1  A    between atoms: C_1  and  C_2
REMARK    2  A    between atoms: C_2  and  O_3
REMARK    3  A    between atoms: O_3  and  C_4
REMARK    4  A    between atoms: C_4  and  C_6
REMARK    5  A    between atoms: C_7  and  C_28
REMARK    6  A    between atoms: C_13  and  C_17
REMARK    7  A    between atoms: C_17  and  C_19
REMARK    8  A    between atoms: C_17  and  N_20
REMARK    9  A    between atoms: N_20  and  C_21
REMARK                            x       y       z     vdW  Elec       q    Type
REMARK                         _______ _______ _______ _____ _____    ______ ____
ROOT
ATOM      1  C   UNL     1      -2.384   0.125   0.028  0.00  0.00    +0.102 A 
ATOM      2  C   UNL     1      -1.246  -0.629   0.012  0.00  0.00    -0.015 A 
ATOM      3  C   UNL     1       0.002  -0.004   0.002  0.00  0.00    +0.076 A 
ATOM      4  C   UNL     1       1.353  -0.611  -0.015  0.00  0.00    +0.260 A 
ATOM      5  O   UNL     1       1.494  -1.821  -0.023  0.00  0.00    -0.267 OA
ATOM      6  N   UNL     1       2.421   0.210  -0.021  0.00  0.00    -0.309 N 
ATOM      7  H   UNL     1       3.313  -0.172  -0.032  0.00  0.00    +0.170 HD
ATOM      8  C   UNL     1       2.276   1.558  -0.012  0.00  0.00    +0.131 A 
ATOM      9  N   UNL     1       1.100   2.125   0.003  0.00  0.00    -0.225 NA
ATOM     10  C   UNL     1      -0.017   1.410   0.010  0.00  0.00    +0.116 A 
ATOM     11  S   UNL     1      -1.750   1.794   0.036  0.00  0.00    -0.062 S 
ATOM     12  C   UNL     1      -1.338  -2.134   0.004  0.00  0.00    +0.046 C 
ENDROOT
BRANCH   1  13
ATOM     13  C   UNL     1      -3.778  -0.323   0.040  0.00  0.00    +0.346 C 
ATOM     14  O   UNL     1      -4.034  -1.512   0.036  0.00  0.00    -0.244 OA
BRANCH  13  15
ATOM     15  O   UNL     1      -4.777   0.583   0.055  0.00  0.00    -0.461 OA
BRANCH  15  17
ATOM     16  C   UNL     1      -7.124   1.234   0.083  0.00  0.00    +0.048 C 
ATOM     17  C   UNL     1      -6.135   0.067   0.067  0.00  0.00    +0.229 C 
ENDBRANCH  15  17
ENDBRANCH  13  15
ENDBRANCH   1  13
BRANCH   8  18
ATOM     18  C   UNL     1       3.507   2.426  -0.019  0.00  0.00    +0.133 C 
ATOM     19  C   UNL     1       4.413   2.037   1.151  0.00  0.00    +0.036 C 
BRANCH  18  20
ATOM     20  N   UNL     1       3.115   3.831   0.113  0.00  0.00    -0.334 N 
ATOM     21  H   UNL     1       2.274   4.062   0.538  0.00  0.00    +0.147 HD
BRANCH  20  22
ATOM     22  C   UNL     1       3.951   4.839  -0.374  0.00  0.00    +0.028 A 
ATOM     23  C   UNL     1       5.158   4.511  -0.978  0.00  0.00    +0.024 A 
ATOM     24  C   UNL     1       5.979   5.509  -1.464  0.00  0.00    +0.016 A 
ATOM     25  C   UNL     1       5.607   6.835  -1.338  0.00  0.00    +0.013 A 
ATOM     26  C   UNL     1       4.409   7.166  -0.731  0.00  0.00    +0.016 A 
ATOM     27  C   UNL     1       3.580   6.172  -0.249  0.00  0.00    +0.024 A 
ATOM     28  I   UNL     1       6.861   8.347  -2.068  0.00  0.00    -0.044 I 
ENDBRANCH  20  22
ENDBRANCH  18  20
ENDBRANCH   8  18
TORSDOF 6
