REMARK  Name = ZINC24375762
REMARK  12 active torsions:
REMARK  status: ('A' for Active; 'I' for Inactive)
REMARK    1  A    between atoms: C_1  and  C_2
REMARK    2  A    between atoms: C_2  and  C_3
REMARK    3  A    between atoms: C_3  and  C_4
REMARK    4  A    between atoms: C_4  and  N_5
REMARK    5  A    between atoms: C_9  and  C_11
REMARK    6  A    between atoms: C_11  and  C_13
REMARK    7  A    between atoms: C_11  and  N_14
REMARK    8  A    between atoms: N_14  and  C_15
REMARK    9  A    between atoms: N_14  and  C_16
REMARK   10  A    between atoms: C_16  and  C_17
REMARK   11  A    between atoms: N_19  and  C_20
REMARK   12  A    between atoms: C_25  and  C_26
REMARK                            x       y       z     vdW  Elec       q    Type
REMARK                         _______ _______ _______ _____ _____    ______ ____
ROOT
ATOM      1  N   UNL     1       1.393  -0.475  -0.001  0.00  0.00    +0.391 N 
ATOM      2  C   UNL     1       2.058  -0.117  -1.261  0.00  0.00    -0.094 C 
ATOM      3  H   UNL     1       1.929   0.027   0.818  0.00  0.00    -0.080 HD
ENDROOT
BRANCH   1   4
ATOM      4  C   UNL     1       1.461  -1.923   0.236  0.00  0.00    +0.017 C 
ATOM      5  C   UNL     1       0.904  -2.666  -0.980  0.00  0.00    -0.004 C 
BRANCH   4  10
ATOM      6  N   UNL     1       4.790  -5.274   1.136  0.00  0.00    -0.299 N 
ATOM      7  C   UNL     1       4.484  -3.983   0.897  0.00  0.00    +0.306 C 
ATOM      8  O   UNL     1       5.364  -3.146   0.861  0.00  0.00    -0.252 OA
ATOM      9  N   UNL     1       3.201  -3.620   0.698  0.00  0.00    -0.242 N 
ATOM     10  C   UNL     1       2.895  -2.329   0.459  0.00  0.00    +0.207 C 
ATOM     11  O   UNL     1       3.774  -1.495   0.423  0.00  0.00    -0.277 OA
ATOM     12  H   UNL     1       3.992  -6.031   1.168  0.00  0.00    +0.150 HD
ATOM     13  H   UNL     1       2.404  -4.377   0.730  0.00  0.00    +0.159 HD
BRANCH   6  14
ATOM     14  C   UNL     1       6.184  -5.668   1.352  0.00  0.00    +0.106 C 
BRANCH  14  15
ATOM     15  C   UNL     1       6.255  -7.176   1.600  0.00  0.00    +0.018 C 
BRANCH  15  17
ATOM     16  C   UNL     1       7.781  -9.096   2.073  0.00  0.00    +0.004 C 
ATOM     17  C   UNL     1       7.711  -7.588   1.826  0.00  0.00    -0.002 C 
ENDBRANCH  15  17
ENDBRANCH  14  15
ENDBRANCH   6  14
ENDBRANCH   4  10
ENDBRANCH   1   4
BRANCH   1  18
ATOM     18  C   UNL     1       0.002  -0.004   0.013  0.00  0.00    +0.020 C 
BRANCH  18  19
ATOM     19  C   UNL     1      -0.018   1.502   0.013  0.00  0.00    +0.201 C 
ATOM     20  O   UNL     1       1.024   2.123   0.003  0.00  0.00    -0.278 OA
ATOM     21  N   UNL     1      -1.195   2.161   0.019  0.00  0.00    -0.287 N 
ATOM     22  H   UNL     1      -2.138   1.602  -0.064  0.00  0.00    +0.155 HD
BRANCH  21  23
ATOM     23  C   UNL     1      -1.215   3.556   0.133  0.00  0.00    +0.036 A 
ATOM     24  C   UNL     1      -0.156   4.220   0.738  0.00  0.00    +0.024 A 
ATOM     25  C   UNL     1      -0.179   5.596   0.848  0.00  0.00    +0.017 A 
ATOM     26  C   UNL     1      -1.256   6.314   0.356  0.00  0.00    +0.018 A 
ATOM     27  C   UNL     1      -2.312   5.654  -0.246  0.00  0.00    +0.020 A 
ATOM     28  C   UNL     1      -2.292   4.278  -0.364  0.00  0.00    -0.028 A 
ATOM     29  C   UNL     1      -3.440   3.561  -1.026  0.00  0.00    +0.046 C 
ATOM     30 BR   UNL     1      -1.284   8.198   0.508  0.00  0.00    -0.050 Br
ENDBRANCH  21  23
ENDBRANCH  18  19
ENDBRANCH   1  18
TORSDOF 8
