REMARK  Name = ZINC06408590
REMARK  9 active torsions:
REMARK  status: ('A' for Active; 'I' for Inactive)
REMARK    1  A    between atoms: C_1  and  C_2
REMARK    2  A    between atoms: C_9  and  C_14
REMARK    3  A    between atoms: C_14  and  C_16
REMARK    4  A    between atoms: C_14  and  N_68
REMARK    5  A    between atoms: N_20  and  C_21
REMARK    6  A    between atoms: C_26  and  C_27
REMARK    7  A    between atoms: C_26  and  N_68
REMARK    8  A    between atoms: C_32  and  C_33
REMARK    9  A    between atoms: C_32  and  N_68
REMARK                            x       y       z     vdW  Elec       q    Type
REMARK                         _______ _______ _______ _____ _____    ______ ____
ROOT
ATOM      1  C   UNL     1       5.180  -2.785  -0.296  0.00  0.00    +0.039 C 
ENDROOT
BRANCH   1  10
ATOM      2  C   UNL     1      -0.792  -0.287   3.406  0.00  0.00    +0.044 C 
ATOM      3  C   UNL     1       0.051  -0.345   2.158  0.00  0.00    -0.050 A 
ATOM      4  C   UNL     1      -0.334   0.372   1.034  0.00  0.00    +0.005 A 
ATOM      5  C   UNL     1       0.423   0.334  -0.118  0.00  0.00    +0.026 A 
ATOM      6  C   UNL     1       1.585  -0.431  -0.155  0.00  0.00    +0.049 A 
ATOM      7  C   UNL     1       1.971  -1.156   0.987  0.00  0.00    -0.001 A 
ATOM      8  C   UNL     1       1.187  -1.103   2.144  0.00  0.00    +0.013 A 
ATOM      9  C   UNL     1       3.196  -1.957   0.938  0.00  0.00    +0.017 A 
ATOM     10  C   UNL     1       3.915  -1.971  -0.212  0.00  0.00    +0.011 A 
ATOM     11  C   UNL     1       3.483  -1.226  -1.329  0.00  0.00    +0.251 A 
ATOM     12  O   UNL     1       4.144  -1.252  -2.353  0.00  0.00    -0.268 OA
ATOM     13  N   UNL     1       2.360  -0.487  -1.294  0.00  0.00    -0.322 N 
ATOM     14  H   UNL     1       2.092   0.014  -2.080  0.00  0.00    +0.169 HD
ENDBRANCH   1  10
BRANCH   1  15
ATOM     15  C   UNL     1       5.499  -3.360   1.060  0.00  0.00    +0.143 A 
ATOM     16  N   UNL     1       4.935  -4.402   1.621  0.00  0.00    -0.115 NA
ATOM     17  N   UNL     1       5.480  -4.575   2.776  0.00  0.00    -0.023 NA
ATOM     18  N   UNL     1       6.377  -3.672   2.966  0.00  0.00    -0.044 NA
ATOM     19  N   UNL     1       6.423  -2.907   1.928  0.00  0.00    -0.227 N 
BRANCH  19  20
ATOM     20  C   UNL     1       7.311  -1.758   1.733  0.00  0.00    +0.111 C 
ATOM     21  C   UNL     1       8.783  -2.199   1.864  0.00  0.00    +0.027 C 
ATOM     22  C   UNL     1       9.474  -1.011   2.578  0.00  0.00    +0.002 C 
ATOM     23  C   UNL     1       8.399  -0.551   3.594  0.00  0.00    +0.002 C 
ATOM     24  C   UNL     1       7.066  -0.710   2.833  0.00  0.00    +0.027 C 
ENDBRANCH  19  20
ENDBRANCH   1  15
BRANCH   1  25
ATOM     25  N   UNL     1       4.991  -3.867  -1.285  0.00  0.00    +0.396 N 
ATOM     26  H   UNL     1       4.816  -3.449  -2.207  0.00  0.00    -0.080 HD
BRANCH  25  27
ATOM     27  C   UNL     1       6.209  -4.701  -1.361  0.00  0.00    -0.002 C 
BRANCH  27  28
ATOM     28  C   UNL     1       6.076  -5.651  -2.523  0.00  0.00    +0.089 A 
ATOM     29  C   UNL     1       6.507  -5.425  -3.777  0.00  0.00    +0.042 A 
ATOM     30  C   UNL     1       6.181  -6.573  -4.535  0.00  0.00    +0.041 A 
ATOM     31  C   UNL     1       5.563  -7.429  -3.701  0.00  0.00    +0.195 A 
ATOM     32  O   UNL     1       5.503  -6.865  -2.484  0.00  0.00    -0.470 OA
ENDBRANCH  27  28
ENDBRANCH  25  27
BRANCH  25  33
ATOM     33  C   UNL     1       3.831  -4.700  -0.907  0.00  0.00    -0.045 C 
BRANCH  33  34
ATOM     34  C   UNL     1       2.561  -4.045  -1.454  0.00  0.00    +0.102 C 
ATOM     35  C   UNL     1       1.321  -4.894  -1.095  0.00  0.00    +0.032 C 
ATOM     36  C   UNL     1       0.412  -4.775  -2.339  0.00  0.00    +0.030 C 
ATOM     37  C   UNL     1       1.210  -3.868  -3.302  0.00  0.00    +0.160 C 
ATOM     38  O   UNL     1       2.588  -4.023  -2.898  0.00  0.00    -0.378 OA
ENDBRANCH  33  34
ENDBRANCH  25  33
ENDBRANCH   1  25
TORSDOF 8
