REMARK  Name = ZINC21157731
REMARK  4 active torsions:
REMARK  status: ('A' for Active; 'I' for Inactive)
REMARK    1  A    between atoms: C_1  and  O_2
REMARK    2  A    between atoms: O_2  and  C_3
REMARK    3  A    between atoms: C_8  and  C_9
REMARK    4  A    between atoms: C_18  and  C_20
REMARK                            x       y       z     vdW  Elec       q    Type
REMARK                         _______ _______ _______ _____ _____    ______ ____
ROOT
ATOM      1  C   UNL     1      -1.089   1.915   0.017  0.00  0.00    +0.014 A 
ATOM      2  C   UNL     1      -0.013   1.076   0.008  0.00  0.00    +0.056 A 
ATOM      3  S   UNL     1       1.365   2.211   0.001  0.00  0.00    -0.098 S 
ATOM      4  C   UNL     1       0.458   3.728   0.019  0.00  0.00    +0.019 A 
ATOM      5  C   UNL     1      -0.850   3.340   0.026  0.00  0.00    +0.052 A 
ATOM      6  N   UNL     1      -1.857   4.345   0.033  0.00  0.00    -0.284 N 
ATOM      7  C   UNL     1      -1.495   5.624  -0.170  0.00  0.00    +0.218 C 
ATOM      8  O   UNL     1      -2.316   6.496   0.025  0.00  0.00    -0.275 OA
ATOM      9  C   UNL     1      -0.120   6.024  -0.625  0.00  0.00    +0.109 C 
ATOM     10  C   UNL     1       0.947   5.140   0.034  0.00  0.00    +0.066 C 
ATOM     11  H   UNL     1      -2.908   4.070   0.202  0.00  0.00    +0.155 HD
ENDROOT
BRANCH  10  12
ATOM     12  C   UNL     1       1.169   5.587   1.456  0.00  0.00    -0.035 A 
ATOM     13  C   UNL     1       0.114   5.592   2.350  0.00  0.00    +0.008 A 
ATOM     14  C   UNL     1       0.313   6.001   3.655  0.00  0.00    +0.050 A 
ATOM     15  C   UNL     1       1.571   6.407   4.070  0.00  0.00    +0.166 A 
ATOM     16  C   UNL     1       2.633   6.402   3.170  0.00  0.00    +0.167 A 
ATOM     17  C   UNL     1       2.428   5.985   1.865  0.00  0.00    +0.053 A 
ATOM     18  O   UNL     1       3.754   6.839   3.814  0.00  0.00    -0.453 OA
ATOM     19  C   UNL     1       3.459   6.724   5.219  0.00  0.00    +0.466 C 
ATOM     20  O   UNL     1       2.026   6.849   5.279  0.00  0.00    -0.453 OA
ENDBRANCH  10  12
BRANCH   1  26
ATOM     21  C   UNL     1      -3.316   1.603  -1.070  0.00  0.00    +0.128 A 
ATOM     22  C   UNL     1      -4.605   1.097  -1.059  0.00  0.00    +0.046 A 
ATOM     23  C   UNL     1      -5.054   0.371   0.028  0.00  0.00    +0.004 A 
ATOM     24  C   UNL     1      -4.221   0.145   1.110  0.00  0.00    +0.001 A 
ATOM     25  C   UNL     1      -2.932   0.640   1.109  0.00  0.00    +0.012 A 
ATOM     26  C   UNL     1      -2.472   1.377   0.021  0.00  0.00    +0.026 A 
BRANCH  21  28
ATOM     27  C   UNL     1      -3.792   2.509  -3.217  0.00  0.00    +0.277 C 
ATOM     28  O   UNL     1      -2.874   2.318  -2.139  0.00  0.00    -0.495 OA
ENDBRANCH  21  28
ENDBRANCH   1  26
TORSDOF 3
