REMARK  Name = ZINC35886286
REMARK  7 active torsions:
REMARK  status: ('A' for Active; 'I' for Inactive)
REMARK    1  A    between atoms: C_4  and  C_7
REMARK    2  A    between atoms: C_7  and  C_8
REMARK    3  A    between atoms: N_11  and  C_14
REMARK    4  A    between atoms: C_14  and  C_15
REMARK    5  A    between atoms: C_20  and  C_22
REMARK    6  A    between atoms: C_29  and  C_31
REMARK    7  A    between atoms: C_34  and  N_37
REMARK                            x       y       z     vdW  Elec       q    Type
REMARK                         _______ _______ _______ _____ _____    ______ ____
ROOT
ATOM      1  C   UNL     1       7.702  -1.548   4.570  0.00  0.00    -0.001 C 
ATOM      2  C   UNL     1       7.648  -2.792   3.656  0.00  0.00    +0.110 C 
ATOM      3  N   UNL     1       8.507  -3.791   4.333  0.00  0.00    -0.297 N 
ATOM      4  C   UNL     1       8.202  -3.621   5.773  0.00  0.00    +0.116 C 
ATOM      5  C   UNL     1       8.069  -2.093   5.966  0.00  0.00    +0.039 C 
ATOM      6  C   UNL     1       9.370  -4.658   3.767  0.00  0.00    +0.247 C 
ATOM      7  O   UNL     1       9.592  -4.603   2.573  0.00  0.00    -0.270 OA
ENDROOT
BRANCH   5   8
ATOM      8  C   UNL     1       6.974  -1.782   6.954  0.00  0.00    -0.040 A 
ATOM      9  C   UNL     1       5.738  -2.387   6.828  0.00  0.00    +0.004 A 
ATOM     10  C   UNL     1       4.732  -2.103   7.733  0.00  0.00    +0.003 A 
ATOM     11  C   UNL     1       4.963  -1.214   8.766  0.00  0.00    +0.038 A 
ATOM     12  C   UNL     1       6.201  -0.607   8.893  0.00  0.00    +0.124 A 
ATOM     13  C   UNL     1       7.209  -0.897   7.989  0.00  0.00    +0.042 A 
ATOM     14  F   UNL     1       6.427   0.263   9.902  0.00  0.00    -0.205 F 
ENDBRANCH   5   8
BRANCH   6  15
ATOM     15  C   UNL     1      10.047  -5.676   4.598  0.00  0.00    +0.037 A 
ATOM     16  C   UNL     1       9.504  -6.051   5.828  0.00  0.00    +0.015 A 
ATOM     17  C   UNL     1      10.141  -7.001   6.599  0.00  0.00    +0.033 A 
ATOM     18  C   UNL     1      11.316  -7.582   6.155  0.00  0.00    +0.126 A 
ATOM     19  C   UNL     1      11.860  -7.215   4.938  0.00  0.00    +0.033 A 
ATOM     20  C   UNL     1      11.230  -6.270   4.154  0.00  0.00    +0.015 A 
BRANCH  18  21
ATOM     21  N   UNL     1      11.993  -8.601   6.988  0.00  0.00    +0.056 N 
ATOM     22  O   UNL     1      11.521  -8.924   8.053  0.00  0.00    -0.126 OA
ATOM     23  O   UNL     1      13.020  -9.111   6.603  0.00  0.00    -0.126 OA
ENDBRANCH  18  21
ENDBRANCH   6  15
BRANCH   1  24
ATOM     24  C   UNL     1       6.338  -0.858   4.610  0.00  0.00    -0.073 C 
BRANCH  24  28
ATOM     25  C   UNL     1       6.102   3.247   5.730  0.00  0.00    -0.010 C 
ATOM     26  C   UNL     1       5.201   2.223   6.428  0.00  0.00    -0.015 C 
ATOM     27  C   UNL     1       5.105   0.964   5.563  0.00  0.00    -0.079 C 
ATOM     28  N   UNL     1       6.444   0.392   5.375  0.00  0.00    +0.380 N 
ATOM     29  C   UNL     1       7.292   1.341   4.643  0.00  0.00    -0.079 C 
ATOM     30  C   UNL     1       7.472   2.614   5.472  0.00  0.00    -0.015 C 
ATOM     31  H   UNL     1       6.856   0.200   6.275  0.00  0.00    -0.082 HD
BRANCH  25  32
ATOM     32  C   UNL     1       6.267   4.477   6.625  0.00  0.00    +0.038 C 
BRANCH  32  36
ATOM     33  C   UNL     1       2.497   6.439   7.061  0.00  0.00    +0.000 A 
ATOM     34  C   UNL     1       2.869   5.451   7.953  0.00  0.00    +0.000 A 
ATOM     35  C   UNL     1       4.089   4.816   7.812  0.00  0.00    +0.003 A 
ATOM     36  C   UNL     1       4.936   5.168   6.779  0.00  0.00    -0.047 A 
ATOM     37  C   UNL     1       4.564   6.155   5.885  0.00  0.00    +0.003 A 
ATOM     38  C   UNL     1       3.345   6.792   6.027  0.00  0.00    +0.000 A 
ENDBRANCH  32  36
ENDBRANCH  25  32
ENDBRANCH  24  28
ENDBRANCH   1  24
TORSDOF 7
