REMARK  Name = ZINC45865952
REMARK  5 active torsions:
REMARK  status: ('A' for Active; 'I' for Inactive)
REMARK    1  A    between atoms: C_5  and  N_7
REMARK    2  A    between atoms: N_7  and  C_8
REMARK    3  A    between atoms: C_8  and  C_9
REMARK    4  A    between atoms: N_11  and  C_12
REMARK    5  A    between atoms: C_12  and  C_19
REMARK                            x       y       z     vdW  Elec       q    Type
REMARK                         _______ _______ _______ _____ _____    ______ ____
ROOT
ATOM      1  C   UNL     1       0.280  -4.307  -0.024  0.00  0.00    +0.231 C 
ATOM      2  O   UNL     1       1.430  -4.693  -0.037  0.00  0.00    -0.274 OA
ATOM      3  N   UNL     1      -0.730  -5.200  -0.019  0.00  0.00    -0.296 N 
ATOM      4  H   UNL     1      -1.650  -4.891  -0.009  0.00  0.00    +0.150 HD
ENDROOT
BRANCH   3   5
ATOM      5  C   UNL     1      -0.439  -6.635  -0.029  0.00  0.00    +0.121 C 
ATOM      6  C   UNL     1       0.425  -6.961  -1.265  0.00  0.00    +0.041 C 
ATOM      7  C   UNL     1       1.136  -8.265  -1.021  0.00  0.00    +0.003 C 
ATOM      8  C   UNL     1       0.368  -9.471  -1.596  0.00  0.00    +0.000 C 
ATOM      9  C   UNL     1      -1.150  -9.386  -1.349  0.00  0.00    +0.000 C 
ATOM     10  C   UNL     1      -1.482  -8.897   0.035  0.00  0.00    +0.003 C 
ATOM     11  C   UNL     1      -1.695  -7.371  -0.021  0.00  0.00    +0.041 C 
BRANCH   5  12
ATOM     12  C   UNL     1       0.321  -6.976   1.184  0.00  0.00    +0.088 C 
ATOM     13  N   UNL     1       0.907  -7.239   2.121  0.00  0.00    -0.194 NA
ENDBRANCH   5  12
ENDBRANCH   3   5
BRANCH   1  14
ATOM     14  C   UNL     1      -0.019  -2.830  -0.013  0.00  0.00    +0.197 C 
BRANCH  14  15
ATOM     15  N   UNL     1       1.238  -2.078  -0.021  0.00  0.00    -0.335 N 
ATOM     16  H   UNL     1       2.085  -2.549  -0.032  0.00  0.00    +0.147 HD
BRANCH  15  21
ATOM     17  C   UNL     1      -0.017   1.377   0.010  0.00  0.00    +0.002 A 
ATOM     18  C   UNL     1       1.171   2.086   0.002  0.00  0.00    +0.001 A 
ATOM     19  C   UNL     1       2.380   1.416  -0.013  0.00  0.00    +0.016 A 
ATOM     20  C   UNL     1       2.406   0.035  -0.021  0.00  0.00    +0.034 A 
ATOM     21  C   UNL     1       1.215  -0.681  -0.013  0.00  0.00    +0.041 A 
ATOM     22  C   UNL     1       0.002  -0.004   0.002  0.00  0.00    +0.024 A 
ATOM     23  I   UNL     1       4.239  -0.979  -0.044  0.00  0.00    -0.042 I 
ENDBRANCH  15  21
ENDBRANCH  14  15
ENDBRANCH   1  14
TORSDOF 5
