REMARK  Name = ZINC11954502
REMARK  7 active torsions:
REMARK  status: ('A' for Active; 'I' for Inactive)
REMARK    1  A    between atoms: C_1  and  C_2
REMARK    2  A    between atoms: C_5  and  N_9
REMARK    3  A    between atoms: C_14  and  C_16
REMARK    4  A    between atoms: C_16  and  O_18
REMARK    5  A    between atoms: O_18  and  C_19
REMARK    6  A    between atoms: C_19  and  C_20
REMARK    7  A    between atoms: C_29  and  O_31
REMARK                            x       y       z     vdW  Elec       q    Type
REMARK                         _______ _______ _______ _____ _____    ______ ____
ROOT
ATOM      1  C   UNL     1      -2.404   8.787  -0.462  0.00  0.00    +0.355 C 
ATOM      2  O   UNL     1      -3.560   8.411  -0.445  0.00  0.00    -0.244 OA
ENDROOT
BRANCH   1   8
ATOM      3  N   UNL     1      -0.507  11.911   0.072  0.00  0.00    -0.160 N 
ATOM      4  C   UNL     1      -1.369  12.718   0.722  0.00  0.00    +0.240 C 
ATOM      5  O   UNL     1      -1.066  13.869   0.956  0.00  0.00    -0.273 OA
ATOM      6  C   UNL     1      -2.711  12.186   1.155  0.00  0.00    +0.104 C 
ATOM      7  C   UNL     1      -3.198  11.155   0.135  0.00  0.00    +0.074 C 
ATOM      8  C   UNL     1      -2.085  10.189  -0.177  0.00  0.00    +0.144 C 
ATOM      9  N   UNL     1      -0.848  10.580  -0.191  0.00  0.00    -0.170 NA
BRANCH   3  14
ATOM     10  C   UNL     1       4.536  13.920  -1.581  0.00  0.00    +0.045 C 
ATOM     11  C   UNL     1       3.197  13.386  -1.141  0.00  0.00    -0.032 A 
ATOM     12  C   UNL     1       2.046  14.101  -1.417  0.00  0.00    +0.006 A 
ATOM     13  C   UNL     1       0.817  13.614  -1.016  0.00  0.00    +0.026 A 
ATOM     14  C   UNL     1       0.738  12.406  -0.335  0.00  0.00    +0.061 A 
ATOM     15  C   UNL     1       1.895  11.693  -0.054  0.00  0.00    +0.045 A 
ATOM     16  C   UNL     1       3.122  12.182  -0.463  0.00  0.00    +0.046 A 
ATOM     17 CL   UNL     1       4.571  11.290  -0.118  0.00  0.00    -0.083 Cl
ENDBRANCH   3  14
ENDBRANCH   1   8
BRANCH   1  18
ATOM     18  O   UNL     1      -1.414   7.915  -0.742  0.00  0.00    -0.456 OA
BRANCH  18  19
ATOM     19  C   UNL     1      -1.803   6.542  -1.014  0.00  0.00    +0.269 C 
BRANCH  19  20
ATOM     20  C   UNL     1      -0.574   5.720  -1.304  0.00  0.00    +0.007 A 
ATOM     21  C   UNL     1       0.662   6.283  -1.286  0.00  0.00    +0.099 A 
ATOM     22  C   UNL     1       1.797   5.492  -1.561  0.00  0.00    +0.338 A 
ATOM     23  O   UNL     1       2.899   6.009  -1.541  0.00  0.00    -0.245 OA
ATOM     24  O   UNL     1       1.693   4.184  -1.843  0.00  0.00    -0.422 OA
ATOM     25  C   UNL     1       0.494   3.563  -1.878  0.00  0.00    +0.143 A 
ATOM     26  C   UNL     1      -0.680   4.293  -1.613  0.00  0.00    +0.024 A 
ATOM     27  C   UNL     1      -1.925   3.653  -1.647  0.00  0.00    +0.015 A 
ATOM     28  C   UNL     1      -1.995   2.323  -1.943  0.00  0.00    +0.046 A 
ATOM     29  C   UNL     1      -0.836   1.594  -2.200  0.00  0.00    +0.120 A 
ATOM     30  C   UNL     1       0.404   2.211  -2.171  0.00  0.00    +0.092 A 
BRANCH  29  31
ATOM     31  O   UNL     1      -0.923   0.270  -2.488  0.00  0.00    -0.507 OA
ATOM     32  H   UNL     1      -0.873  -0.305  -1.712  0.00  0.00    +0.292 HD
ENDBRANCH  29  31
ENDBRANCH  19  20
ENDBRANCH  18  19
ENDBRANCH   1  18
TORSDOF 6
