REMARK  Name = ZINC20571260
REMARK  6 active torsions:
REMARK  status: ('A' for Active; 'I' for Inactive)
REMARK    1  A    between atoms: C_1  and  C_2
REMARK    2  A    between atoms: C_5  and  S_8
REMARK    3  A    between atoms: S_8  and  N_11
REMARK    4  A    between atoms: N_11  and  C_12
REMARK    5  A    between atoms: C_15  and  C_18
REMARK    6  A    between atoms: C_27  and  C_31
REMARK                            x       y       z     vdW  Elec       q    Type
REMARK                         _______ _______ _______ _____ _____    ______ ____
ROOT
ATOM      1  C   UNL     1       4.271   0.269 -10.426  0.00  0.00    +0.048 A 
ATOM      2  C   UNL     1       5.050   0.157  -9.277  0.00  0.00    +0.025 A 
ATOM      3  C   UNL     1       4.474   0.308  -8.037  0.00  0.00    +0.015 A 
ATOM      4  C   UNL     1       3.105   0.575  -7.931  0.00  0.00    +0.037 A 
ATOM      5  C   UNL     1       2.325   0.681  -9.087  0.00  0.00    +0.015 A 
ATOM      6  C   UNL     1       2.909   0.534 -10.325  0.00  0.00    +0.025 A 
ENDROOT
BRANCH   4   7
ATOM      7  C   UNL     1       2.485   0.738  -6.603  0.00  0.00    +0.250 C 
ATOM      8  O   UNL     1       3.163   0.640  -5.599  0.00  0.00    -0.270 OA
ATOM      9  N   UNL     1       1.165   0.995  -6.503  0.00  0.00    -0.261 N 
ATOM     10  C   UNL     1       0.581   1.148  -5.253  0.00  0.00    +0.165 A 
ATOM     11  N   UNL     1       1.141   1.080  -4.063  0.00  0.00    -0.229 NA
ATOM     12  C   UNL     1       0.446   1.252  -2.941  0.00  0.00    +0.054 A 
ATOM     13  C   UNL     1      -0.880   1.501  -3.094  0.00  0.00    +0.015 A 
ATOM     14  S   UNL     1      -1.079   1.480  -4.855  0.00  0.00    -0.057 S 
ATOM     15  C   UNL     1      -1.897   1.730  -2.028  0.00  0.00    +0.047 C 
ATOM     16  C   UNL     1      -1.296   1.284  -0.686  0.00  0.00    -0.009 C 
ATOM     17  C   UNL     1       0.113   1.869  -0.559  0.00  0.00    +0.010 C 
ATOM     18  C   UNL     1       1.058   1.182  -1.546  0.00  0.00    +0.056 C 
ATOM     19  C   UNL     1      -2.168   1.792   0.465  0.00  0.00    +0.008 C 
ATOM     20  H   UNL     1       0.551   1.083  -7.412  0.00  0.00    +0.157 HD
ENDBRANCH   4   7
BRANCH   1  21
ATOM     21  N   UNL     1       4.857   0.115 -11.678  0.00  0.00    -0.216 N 
ATOM     22  H   UNL     1       5.037   0.995 -12.313  0.00  0.00    +0.174 HD
BRANCH  21  23
ATOM     23  S   UNL     1       5.281  -1.393 -12.214  0.00  0.00    +0.072 S 
ATOM     24  O   UNL     1       5.794  -1.227 -13.529  0.00  0.00    -0.150 OA
ATOM     25  O   UNL     1       6.036  -1.997 -11.173  0.00  0.00    -0.150 OA
BRANCH  23  30
ATOM     26  C   UNL     1       0.196  -4.598 -12.739  0.00  0.00    +0.044 C 
ATOM     27  C   UNL     1       1.467  -3.798 -12.608  0.00  0.00    -0.050 A 
ATOM     28  C   UNL     1       1.965  -3.109 -13.698  0.00  0.00    +0.005 A 
ATOM     29  C   UNL     1       3.130  -2.375 -13.578  0.00  0.00    +0.029 A 
ATOM     30  C   UNL     1       3.796  -2.329 -12.367  0.00  0.00    +0.109 A 
ATOM     31  C   UNL     1       3.301  -3.022 -11.279  0.00  0.00    +0.029 A 
ATOM     32  C   UNL     1       2.133  -3.753 -11.398  0.00  0.00    +0.005 A 
ENDBRANCH  23  30
ENDBRANCH  21  23
ENDBRANCH   1  21
TORSDOF 4
