REMARK  Name = ZINC38491587
REMARK  8 active torsions:
REMARK  status: ('A' for Active; 'I' for Inactive)
REMARK    1  A    between atoms: C_1  and  C_2
REMARK    2  A    between atoms: C_4  and  C_34
REMARK    3  A    between atoms: C_6  and  S_8
REMARK    4  A    between atoms: S_8  and  C_9
REMARK    5  A    between atoms: C_9  and  C_10
REMARK    6  A    between atoms: C_11  and  C_23
REMARK    7  A    between atoms: N_14  and  C_15
REMARK    8  A    between atoms: C_28  and  C_31
REMARK                            x       y       z     vdW  Elec       q    Type
REMARK                         _______ _______ _______ _____ _____    ______ ____
ROOT
ATOM      1  C   UNL     1       0.051  -2.005   5.383  0.00  0.00    +0.087 A 
ATOM      2  C   UNL     1      -1.032  -2.541   6.022  0.00  0.00    +0.171 A 
ATOM      3  N   UNL     1      -0.593  -3.279   7.057  0.00  0.00    -0.124 NA
ATOM      4  N   UNL     1       0.693  -3.237   7.102  0.00  0.00    -0.060 NA
ATOM      5  N   UNL     1       1.147  -2.436   6.044  0.00  0.00    -0.215 N 
ENDROOT
BRANCH   5   6
ATOM      6  C   UNL     1       2.482  -2.138   5.734  0.00  0.00    +0.070 A 
ATOM      7  C   UNL     1       2.872  -1.992   4.410  0.00  0.00    +0.048 A 
ATOM      8  C   UNL     1       4.188  -1.699   4.106  0.00  0.00    +0.044 A 
ATOM      9  C   UNL     1       5.117  -1.550   5.121  0.00  0.00    +0.040 A 
ATOM     10  C   UNL     1       4.730  -1.695   6.442  0.00  0.00    +0.044 A 
ATOM     11  C   UNL     1       3.414  -1.983   6.751  0.00  0.00    +0.048 A 
ATOM     12 CL   UNL     1       5.898  -1.508   7.713  0.00  0.00    -0.083 Cl
ATOM     13 CL   UNL     1       4.676  -1.517   2.450  0.00  0.00    -0.083 Cl
ENDBRANCH   5   6
BRANCH   2  14
ATOM     14  C   UNL     1      -2.443  -2.342   5.642  0.00  0.00    +0.269 C 
ATOM     15  O   UNL     1      -2.719  -1.750   4.617  0.00  0.00    -0.268 OA
ATOM     16  N   UNL     1      -3.427  -2.818   6.431  0.00  0.00    -0.296 N 
ATOM     17  C   UNL     1      -3.119  -3.388   7.750  0.00  0.00    +0.109 C 
ATOM     18  C   UNL     1      -3.974  -2.679   8.805  0.00  0.00    +0.032 C 
ATOM     19  C   UNL     1      -5.449  -2.773   8.408  0.00  0.00    +0.078 C 
ATOM     20  C   UNL     1      -5.663  -2.074   7.064  0.00  0.00    +0.032 C 
ATOM     21  C   UNL     1      -4.828  -2.770   5.991  0.00  0.00    +0.109 C 
BRANCH  19  22
ATOM     22  C   UNL     1      -6.296  -2.106   9.461  0.00  0.00    +0.214 C 
ATOM     23  O   UNL     1      -5.771  -1.605  10.433  0.00  0.00    -0.276 OA
ATOM     24  N   UNL     1      -7.636  -2.066   9.323  0.00  0.00    -0.329 N 
ATOM     25  H   UNL     1      -8.055  -2.467   8.546  0.00  0.00    +0.145 HD
ATOM     26  H   UNL     1      -8.181  -1.637  10.001  0.00  0.00    +0.145 HD
ENDBRANCH  19  22
ENDBRANCH   2  14
BRANCH   1  27
ATOM     27  C   UNL     1       0.026  -1.111   4.170  0.00  0.00    +0.135 C 
BRANCH  27  28
ATOM     28  S   UNL     1       0.088  -2.127   2.669  0.00  0.00    -0.080 S 
BRANCH  28  34
ATOM     29  C   UNL     1      -0.102   2.716   1.025  0.00  0.00    +0.066 C 
ATOM     30  C   UNL     1      -0.035   1.249   0.686  0.00  0.00    +0.043 A 
ATOM     31  C   UNL     1      -0.001   0.835  -0.636  0.00  0.00    +0.046 A 
ATOM     32  C   UNL     1       0.061  -0.524  -0.905  0.00  0.00    +0.043 A 
ATOM     33  N   UNL     1       0.086  -1.380   0.103  0.00  0.00    -0.227 NA
ATOM     34  C   UNL     1       0.052  -0.952   1.357  0.00  0.00    +0.189 A 
ATOM     35  N   UNL     1      -0.001   0.341   1.647  0.00  0.00    -0.227 NA
ATOM     36  C   UNL     1       0.098  -1.019  -2.328  0.00  0.00    +0.066 C 
ENDBRANCH  28  34
ENDBRANCH  27  28
ENDBRANCH   1  27
TORSDOF 6
