REMARK  Name = ZINC36546448
REMARK  15 active torsions:
REMARK  status: ('A' for Active; 'I' for Inactive)
REMARK    1  A    between atoms: C_1  and  C_2
REMARK    2  A    between atoms: C_2  and  C_3
REMARK    3  A    between atoms: C_3  and  C_4
REMARK    4  A    between atoms: C_5  and  C_6
REMARK    5  A    between atoms: C_6  and  C_8
REMARK    6  A    between atoms: C_6  and  N_15
REMARK    7  A    between atoms: N_10  and  C_11
REMARK    8  A    between atoms: C_11  and  C_12
REMARK    9  A    between atoms: C_11  and  C_13
REMARK   10  A    between atoms: C_11  and  C_14
REMARK   11  A    between atoms: N_15  and  C_16
REMARK   12  A    between atoms: C_23  and  C_25
REMARK   13  A    between atoms: C_25  and  C_26
REMARK   14  A    between atoms: C_25  and  C_32
REMARK   15  A    between atoms: C_25  and  O_38
REMARK                            x       y       z     vdW  Elec       q    Type
REMARK                         _______ _______ _______ _____ _____    ______ ____
ROOT
ATOM      1  N   UNL     1      -1.685  -4.691   2.323  0.00  0.00    -0.252 N 
ATOM      2  C   UNL     1      -0.441  -5.208   2.286  0.00  0.00    +0.262 C 
ATOM      3  O   UNL     1       0.323  -4.887   1.400  0.00  0.00    -0.271 OA
ENDROOT
BRANCH   1   4
ATOM      4  C   UNL     1      -2.532  -4.983   3.399  0.00  0.00    +0.056 A 
ATOM      5  C   UNL     1      -3.345  -6.108   3.359  0.00  0.00    +0.025 A 
ATOM      6  C   UNL     1      -4.179  -6.394   4.421  0.00  0.00    +0.002 A 
ATOM      7  C   UNL     1      -4.207  -5.560   5.525  0.00  0.00    +0.002 A 
ATOM      8  C   UNL     1      -3.400  -4.439   5.568  0.00  0.00    +0.022 A 
ATOM      9  C   UNL     1      -2.558  -4.151   4.511  0.00  0.00    +0.062 A 
ATOM     10 CL   UNL     1      -1.538  -2.746   4.569  0.00  0.00    -0.082 Cl
ENDBRANCH   1   4
BRANCH   1  11
ATOM     11  C   UNL     1      -2.150  -3.824   1.238  0.00  0.00    +0.190 C 
BRANCH  11  12
ATOM     12  C   UNL     1      -3.364  -4.438   0.590  0.00  0.00    +0.238 C 
ATOM     13  O   UNL     1      -3.797  -5.497   0.994  0.00  0.00    -0.273 OA
ATOM     14  N   UNL     1      -3.968  -3.812  -0.440  0.00  0.00    -0.309 N 
ATOM     15  H   UNL     1      -3.621  -2.965  -0.763  0.00  0.00    +0.149 HD
BRANCH  14  16
ATOM     16  C   UNL     1      -5.147  -4.409  -1.071  0.00  0.00    +0.026 C 
ATOM     17  C   UNL     1      -6.258  -4.565  -0.030  0.00  0.00    +0.031 C 
ATOM     18  C   UNL     1      -5.634  -3.503  -2.204  0.00  0.00    +0.031 C 
ATOM     19  C   UNL     1      -4.782  -5.783  -1.637  0.00  0.00    +0.031 C 
ENDBRANCH  14  16
ENDBRANCH  11  12
BRANCH  11  21
ATOM     20  C   UNL     1      -1.889  -1.400   1.369  0.00  0.00    -0.029 C 
ATOM     21  C   UNL     1      -2.510  -2.471   1.796  0.00  0.00    +0.001 C 
BRANCH  20  22
ATOM     22  C   UNL     1      -2.248  -0.047   1.927  0.00  0.00    +0.027 C 
BRANCH  22  24
ATOM     23  C   UNL     1      -1.355   2.004   3.041  0.00  0.00    +0.004 C 
ATOM     24  C   UNL     1      -0.990   0.630   2.474  0.00  0.00    +0.001 C 
ENDBRANCH  22  24
ENDBRANCH  20  22
ENDBRANCH  11  21
ENDBRANCH   1  11
BRANCH   2  25
ATOM     25  C   UNL     1       0.001  -6.185   3.345  0.00  0.00    +0.193 C 
BRANCH  25  26
ATOM     26  C   UNL     1       1.200  -6.953   2.850  0.00  0.00    -0.003 A 
ATOM     27  C   UNL     1       2.383  -6.290   2.581  0.00  0.00    +0.007 A 
ATOM     28  C   UNL     1       3.482  -6.994   2.128  0.00  0.00    +0.000 A 
ATOM     29  C   UNL     1       3.400  -8.362   1.944  0.00  0.00    +0.000 A 
ATOM     30  C   UNL     1       2.217  -9.025   2.215  0.00  0.00    +0.000 A 
ATOM     31  C   UNL     1       1.119  -8.321   2.672  0.00  0.00    +0.007 A 
ENDBRANCH  25  26
BRANCH  25  32
ATOM     32  C   UNL     1       0.368  -5.435   4.599  0.00  0.00    -0.003 A 
ATOM     33  C   UNL     1       1.091  -4.260   4.516  0.00  0.00    +0.007 A 
ATOM     34  C   UNL     1       1.427  -3.572   5.666  0.00  0.00    +0.000 A 
ATOM     35  C   UNL     1       1.039  -4.058   6.901  0.00  0.00    +0.000 A 
ATOM     36  C   UNL     1       0.315  -5.232   6.984  0.00  0.00    +0.000 A 
ATOM     37  C   UNL     1      -0.025  -5.918   5.833  0.00  0.00    +0.007 A 
ENDBRANCH  25  32
BRANCH  25  38
ATOM     38  O   UNL     1      -1.064  -7.095   3.628  0.00  0.00    -0.371 OA
ATOM     39  H   UNL     1      -1.352  -7.613   2.864  0.00  0.00    +0.212 HD
ENDBRANCH  25  38
ENDBRANCH   2  25
TORSDOF 11
