REMARK  Name = ZINC38728021
REMARK  6 active torsions:
REMARK  status: ('A' for Active; 'I' for Inactive)
REMARK    1  A    between atoms: C_1  and  C_2
REMARK    2  A    between atoms: C_2  and  C_3
REMARK    3  A    between atoms: C_9  and  C_27
REMARK    4  A    between atoms: C_17  and  O_24
REMARK    5  A    between atoms: O_24  and  C_25
REMARK    6  A    between atoms: C_25  and  C_26
REMARK                            x       y       z     vdW  Elec       q    Type
REMARK                         _______ _______ _______ _____ _____    ______ ____
ROOT
ATOM      1  C   UNL     1      -1.412  -0.526   0.013  0.00  0.00    +0.103 A 
ATOM      2  N   UNL     1      -2.214  -0.819  -0.992  0.00  0.00    -0.145 NA
ATOM      3  N   UNL     1      -3.385  -1.252  -0.811  0.00  0.00    -0.125 NA
ATOM      4  C   UNL     1      -3.882  -1.438   0.404  0.00  0.00    +0.191 A 
ATOM      5  S   UNL     1      -2.478  -0.931   1.393  0.00  0.00    -0.035 S 
ATOM      6  N   UNL     1      -5.132  -1.900   0.797  0.00  0.00    -0.230 N 
ATOM      7  C   UNL     1      -6.225  -2.308  -0.101  0.00  0.00    +0.152 C 
ATOM      8  C   UNL     1      -7.351  -2.720   0.790  0.00  0.00    +0.072 A 
ATOM      9  C   UNL     1      -8.698  -3.209   0.481  0.00  0.00    +0.199 A 
ATOM     10  O   UNL     1      -9.053  -3.522  -0.642  0.00  0.00    -0.287 OA
ATOM     11  C   UNL     1      -9.589  -3.285   1.664  0.00  0.00    +0.065 A 
ATOM     12  C   UNL     1     -10.953  -3.539   1.506  0.00  0.00    +0.019 A 
ATOM     13  C   UNL     1     -11.763  -3.602   2.602  0.00  0.00    +0.046 A 
ATOM     14  C   UNL     1     -11.232  -3.413   3.877  0.00  0.00    +0.124 A 
ATOM     15  C   UNL     1      -9.883  -3.162   4.050  0.00  0.00    +0.092 A 
ATOM     16  C   UNL     1      -9.040  -3.097   2.945  0.00  0.00    +0.143 A 
ATOM     17  O   UNL     1      -7.722  -2.861   3.138  0.00  0.00    -0.449 OA
ATOM     18  C   UNL     1      -6.936  -2.566   2.083  0.00  0.00    +0.199 A 
ATOM     19  C   UNL     1      -5.554  -2.059   2.068  0.00  0.00    +0.289 C 
ATOM     20  O   UNL     1      -4.891  -1.817   3.057  0.00  0.00    -0.266 OA
ENDROOT
BRANCH   7  21
ATOM     21  C   UNL     1      -5.788  -3.467  -0.959  0.00  0.00    -0.019 A 
ATOM     22  C   UNL     1      -4.999  -4.467  -0.420  0.00  0.00    +0.006 A 
ATOM     23  C   UNL     1      -4.598  -5.531  -1.206  0.00  0.00    +0.003 A 
ATOM     24  C   UNL     1      -4.985  -5.596  -2.532  0.00  0.00    +0.038 A 
ATOM     25  C   UNL     1      -5.774  -4.596  -3.072  0.00  0.00    +0.124 A 
ATOM     26  C   UNL     1      -6.181  -3.533  -2.282  0.00  0.00    +0.044 A 
ATOM     27  F   UNL     1      -6.153  -4.658  -4.367  0.00  0.00    -0.205 F 
ENDBRANCH   7  21
BRANCH   1  29
ATOM     28  C   UNL     1      -0.019   1.526   0.010  0.00  0.00    +0.011 C 
ATOM     29  C   UNL     1       0.002  -0.004   0.002  0.00  0.00    +0.061 C 
ENDBRANCH   1  29
BRANCH  14  30
ATOM     30  O   UNL     1     -12.048  -3.475   4.960  0.00  0.00    -0.492 OA
BRANCH  30  31
ATOM     31  C   UNL     1     -13.431  -3.737   4.717  0.00  0.00    +0.225 C 
ATOM     32  C   UNL     1     -14.187  -3.770   6.047  0.00  0.00    +0.048 C 
ENDBRANCH  30  31
ENDBRANCH  14  30
TORSDOF 4
