REMARK  Name = ZINC48533026
REMARK  11 active torsions:
REMARK  status: ('A' for Active; 'I' for Inactive)
REMARK    1  A    between atoms: C_1  and  C_2
REMARK    2  A    between atoms: C_2  and  O_4
REMARK    3  A    between atoms: O_4  and  C_5
REMARK    4  A    between atoms: C_9  and  C_33
REMARK    5  A    between atoms: C_14  and  C_32
REMARK    6  A    between atoms: C_25  and  C_26
REMARK    7  A    between atoms: C_25  and  O_31
REMARK    8  A    between atoms: C_26  and  C_27
REMARK    9  A    between atoms: C_27  and  C_28
REMARK   10  A    between atoms: C_27  and  C_29
REMARK   11  A    between atoms: C_27  and  O_30
REMARK                            x       y       z     vdW  Elec       q    Type
REMARK                         _______ _______ _______ _____ _____    ______ ____
ROOT
ATOM      1  C   UNL     1      -0.381  -3.474   3.122  0.00  0.00    +0.180 C 
ATOM      2  C   UNL     1      -1.332  -3.593   1.932  0.00  0.00    +0.046 C 
ATOM      3  C   UNL     1      -2.670  -2.926   2.241  0.00  0.00    +0.015 C 
ATOM      4  C   UNL     1      -3.330  -3.563   3.467  0.00  0.00    -0.008 C 
ATOM      5  C   UNL     1      -4.636  -2.869   3.788  0.00  0.00    +0.003 C 
ATOM      6  C   UNL     1      -4.681  -1.434   3.283  0.00  0.00    +0.005 C 
ATOM      7  C   UNL     1      -6.091  -0.843   3.473  0.00  0.00    +0.010 C 
ATOM      8  C   UNL     1      -6.436  -0.872   4.941  0.00  0.00    -0.000 C 
ATOM      9  C   UNL     1      -6.331  -2.307   5.485  0.00  0.00    +0.001 C 
ATOM     10  C   UNL     1      -4.998  -2.962   5.273  0.00  0.00    +0.000 C 
ATOM     11  C   UNL     1      -3.872  -2.423   6.139  0.00  0.00    +0.031 C 
ATOM     12  C   UNL     1      -2.586  -3.124   5.787  0.00  0.00    -0.027 C 
ATOM     13  C   UNL     1      -2.352  -3.599   4.601  0.00  0.00    -0.064 C 
ATOM     14  C   UNL     1      -0.978  -4.196   4.334  0.00  0.00    +0.075 C 
ATOM     15  C   UNL     1      -6.847  -2.136   6.919  0.00  0.00    +0.007 C 
ATOM     16  C   UNL     1      -8.060  -1.182   6.723  0.00  0.00    +0.036 C 
ATOM     17  C   UNL     1      -7.880  -0.516   5.333  0.00  0.00    +0.074 C 
ATOM     18  C   UNL     1      -5.551   0.128   5.695  0.00  0.00    +0.014 C 
ATOM     19  C   UNL     1      -3.678  -5.017   3.106  0.00  0.00    +0.016 C 
ENDROOT
BRANCH  17  20
ATOM     20  O   UNL     1      -8.006   0.903   5.449  0.00  0.00    -0.388 OA
ATOM     21  H   UNL     1      -8.870   1.197   5.768  0.00  0.00    +0.210 HD
ENDBRANCH  17  20
BRANCH   1  22
ATOM     22  O   UNL     1      -0.179  -2.095   3.440  0.00  0.00    -0.461 OA
BRANCH  22  24
ATOM     23  C   UNL     1       1.290  -0.325   4.336  0.00  0.00    +0.136 C 
ATOM     24  C   UNL     1       1.006  -1.760   3.974  0.00  0.00    +0.304 C 
ATOM     25  O   UNL     1       1.844  -2.609   4.166  0.00  0.00    -0.251 OA
ENDBRANCH  22  24
ENDBRANCH   1  22
BRANCH  17  26
ATOM     26  C   UNL     1      -8.892  -1.064   4.336  0.00  0.00    +0.069 C 
BRANCH  26  27
ATOM     27  C   UNL     1      -8.633  -2.556   4.115  0.00  0.00    +0.063 C 
ATOM     28  C   UNL     1      -8.751  -3.297   5.448  0.00  0.00    +0.041 C 
ATOM     29  C   UNL     1      -9.662  -3.112   3.129  0.00  0.00    +0.041 C 
BRANCH  27  30
ATOM     30  O   UNL     1      -7.318  -2.737   3.584  0.00  0.00    -0.389 OA
ATOM     31  H   UNL     1      -7.278  -2.715   2.618  0.00  0.00    +0.210 HD
ENDBRANCH  27  30
ENDBRANCH  26  27
ENDBRANCH  17  26
TORSDOF 6
