REMARK  Name = ZINC38898123
REMARK  3 active torsions:
REMARK  status: ('A' for Active; 'I' for Inactive)
REMARK    1  A    between atoms: C_4  and  C_7
REMARK    2  A    between atoms: C_17  and  S_19
REMARK    3  A    between atoms: S_19  and  C_20
REMARK                            x       y       z     vdW  Elec       q    Type
REMARK                         _______ _______ _______ _____ _____    ______ ____
ROOT
ATOM      1  C   UNL     1       3.648  -0.649  -0.037  0.00  0.00    -0.009 C 
ATOM      2  C   UNL     1       4.861   0.036  -0.143  0.00  0.00    +0.002 A 
ATOM      3  C   UNL     1       4.886   1.444  -0.238  0.00  0.00    +0.011 A 
ATOM      4  C   UNL     1       6.077   2.091  -0.341  0.00  0.00    +0.021 A 
ATOM      5  C   UNL     1       7.283   1.391  -0.354  0.00  0.00    +0.043 A 
ATOM      6  C   UNL     1       7.322   0.021  -0.264  0.00  0.00    +0.044 A 
ATOM      7  C   UNL     1       6.126  -0.708  -0.156  0.00  0.00    +0.042 A 
ATOM      8  N   UNL     1       6.165  -2.042  -0.069  0.00  0.00    -0.284 N 
ATOM      9  C   UNL     1       5.088  -2.797   0.034  0.00  0.00    +0.235 C 
ATOM     10  O   UNL     1       5.199  -4.007   0.109  0.00  0.00    -0.274 OA
ATOM     11  C   UNL     1       3.717  -2.161   0.067  0.00  0.00    +0.170 C 
ATOM     12 CL   UNL     1       8.772   2.273  -0.487  0.00  0.00    -0.083 Cl
ATOM     13  H   UNL     1       7.031  -2.478  -0.083  0.00  0.00    +0.155 HD
ENDROOT
BRANCH   1  17
ATOM     14  C   UNL     1      -0.017   1.381   0.011  0.00  0.00    +0.000 A 
ATOM     15  C   UNL     1       0.280   0.521  -1.035  0.00  0.00    +0.001 A 
ATOM     16  C   UNL     1       1.482  -0.150  -1.060  0.00  0.00    +0.008 A 
ATOM     17  C   UNL     1       2.408   0.038  -0.021  0.00  0.00    -0.020 A 
ATOM     18  C   UNL     1       2.097   0.911   1.034  0.00  0.00    +0.008 A 
ATOM     19  C   UNL     1       0.889   1.573   1.041  0.00  0.00    +0.001 A 
ENDBRANCH   1  17
BRANCH  11  20
ATOM     20  S   UNL     1       2.906  -2.650   1.614  0.00  0.00    -0.082 S 
BRANCH  20  21
ATOM     21  C   UNL     1       2.913  -4.412   1.560  0.00  0.00    +0.126 C 
ATOM     22  N   UNL     1       3.400  -5.170   0.619  0.00  0.00    -0.270 NA
ATOM     23  C   UNL     1       3.313  -6.617   0.698  0.00  0.00    +0.154 C 
ATOM     24  C   UNL     1       3.030  -7.082   2.152  0.00  0.00    +0.099 C 
ATOM     25  S   UNL     1       2.261  -5.533   2.787  0.00  0.00    -0.098 S 
ENDBRANCH  20  21
ENDBRANCH  11  20
TORSDOF 3
