REMARK  Name = ZINC01820405
REMARK  15 active torsions:
REMARK  status: ('A' for Active; 'I' for Inactive)
REMARK    1  A    between atoms: C_1  and  O_2
REMARK    2  A    between atoms: O_2  and  C_3
REMARK    3  A    between atoms: C_5  and  C_10
REMARK    4  A    between atoms: C_8  and  O_9
REMARK    5  A    between atoms: C_16  and  C_35
REMARK    6  A    between atoms: C_17  and  C_26
REMARK    7  A    between atoms: C_19  and  C_22
REMARK    8  A    between atoms: C_20  and  N_21
REMARK    9  A    between atoms: C_22  and  O_24
REMARK   10  A    between atoms: O_24  and  C_25
REMARK   11  A    between atoms: C_29  and  O_34
REMARK   12  A    between atoms: C_30  and  O_32
REMARK   13  A    between atoms: O_32  and  C_33
REMARK   14  A    between atoms: C_35  and  O_37
REMARK   15  A    between atoms: O_37  and  C_38
REMARK                            x       y       z     vdW  Elec       q    Type
REMARK                         _______ _______ _______ _____ _____    ______ ____
ROOT
ATOM      1  C   UNL     1      -4.967   0.046   1.021  0.00  0.00    +0.028 C 
ATOM      2  C   UNL     1      -6.136  -0.543   0.661  0.00  0.00    +0.079 A 
ATOM      3  C   UNL     1      -7.442   0.067   0.392  0.00  0.00    +0.271 A 
ATOM      4  O   UNL     1      -7.597   1.271   0.479  0.00  0.00    -0.266 OA
ATOM      5  N   UNL     1      -8.466  -0.736   0.040  0.00  0.00    -0.257 N 
ATOM      6  C   UNL     1      -8.221  -2.092  -0.032  0.00  0.00    +0.100 A 
ATOM      7  C   UNL     1      -9.162  -3.029  -0.369  0.00  0.00    +0.079 C 
ATOM      8  C   UNL     1     -10.567  -2.552  -0.682  0.00  0.00    +0.099 C 
ATOM      9  C   UNL     1     -10.789  -1.056  -0.589  0.00  0.00    +0.087 C 
ATOM     10  C   UNL     1      -9.750  -0.261  -0.243  0.00  0.00    +0.115 C 
ATOM     11  S   UNL     1      -6.500  -2.270   0.394  0.00  0.00    -0.065 S 
ENDROOT
BRANCH   1  14
ATOM     12  C   UNL     1      -1.462  -1.018   1.828  0.00  0.00    +0.162 A 
ATOM     13  C   UNL     1      -2.534  -0.235   1.444  0.00  0.00    +0.057 A 
ATOM     14  C   UNL     1      -3.824  -0.780   1.429  0.00  0.00    -0.020 A 
ATOM     15  C   UNL     1      -4.019  -2.115   1.802  0.00  0.00    +0.012 A 
ATOM     16  C   UNL     1      -2.945  -2.888   2.183  0.00  0.00    +0.050 A 
ATOM     17  C   UNL     1      -1.665  -2.348   2.193  0.00  0.00    +0.158 A 
BRANCH  12  19
ATOM     18  C   UNL     1      -0.073   0.875   1.453  0.00  0.00    +0.277 C 
ATOM     19  O   UNL     1      -0.208  -0.492   1.845  0.00  0.00    -0.491 OA
ENDBRANCH  12  19
BRANCH  17  20
ATOM     20  O   UNL     1      -0.609  -3.117   2.565  0.00  0.00    -0.503 OA
ATOM     21  H   UNL     1      -0.418  -3.091   3.513  0.00  0.00    +0.292 HD
ENDBRANCH  17  20
ENDBRANCH   1  14
BRANCH   8  22
ATOM     22  C   UNL     1     -11.518  -3.230   0.270  0.00  0.00    -0.031 A 
ATOM     23  C   UNL     1     -11.460  -2.947   1.622  0.00  0.00    +0.008 A 
ATOM     24  C   UNL     1     -12.330  -3.566   2.500  0.00  0.00    +0.049 A 
ATOM     25  C   UNL     1     -13.264  -4.472   2.025  0.00  0.00    +0.158 A 
ATOM     26  C   UNL     1     -13.324  -4.757   0.664  0.00  0.00    +0.162 A 
ATOM     27  C   UNL     1     -12.452  -4.129  -0.211  0.00  0.00    +0.054 A 
BRANCH  26  28
ATOM     28  O   UNL     1     -14.239  -5.646   0.193  0.00  0.00    -0.491 OA
ATOM     29  C   UNL     1     -14.242  -5.889  -1.215  0.00  0.00    +0.277 C 
ENDBRANCH  26  28
BRANCH  25  30
ATOM     30  O   UNL     1     -14.121  -5.083   2.886  0.00  0.00    -0.503 OA
ATOM     31  H   UNL     1     -14.949  -4.602   3.024  0.00  0.00    +0.292 HD
ENDBRANCH  25  30
ENDBRANCH   8  22
BRANCH  10  32
ATOM     32  N   UNL     1      -9.970   1.089  -0.164  0.00  0.00    -0.344 N 
ATOM     33  H   UNL     1      -9.322   1.709  -0.537  0.00  0.00    +0.144 HD
ATOM     34  H   UNL     1     -10.772   1.426   0.264  0.00  0.00    +0.144 HD
ENDBRANCH  10  32
BRANCH   9  35
ATOM     35  C   UNL     1     -12.051  -0.504  -0.858  0.00  0.00    +0.339 C 
ATOM     36  O   UNL     1     -12.223   0.698  -0.763  0.00  0.00    -0.245 OA
BRANCH  35  37
ATOM     37  O   UNL     1     -13.075  -1.306  -1.222  0.00  0.00    -0.465 OA
ATOM     38  C   UNL     1     -14.332  -0.677  -1.481  0.00  0.00    +0.280 C 
ENDBRANCH  35  37
ENDBRANCH   9  35
BRANCH   7  39
ATOM     39  C   UNL     1      -8.835  -4.390  -0.422  0.00  0.00    +0.338 C 
ATOM     40  O   UNL     1      -7.701  -4.755  -0.166  0.00  0.00    -0.245 OA
BRANCH  39  41
ATOM     41  O   UNL     1      -9.778  -5.298  -0.756  0.00  0.00    -0.465 OA
ATOM     42  C   UNL     1      -9.375  -6.669  -0.790  0.00  0.00    +0.280 C 
ENDBRANCH  39  41
ENDBRANCH   7  39
TORSDOF 11
