REMARK  Name = ZINC46797692
REMARK  10 active torsions:
REMARK  status: ('A' for Active; 'I' for Inactive)
REMARK    1  A    between atoms: C_1  and  C_2
REMARK    2  A    between atoms: C_7  and  C_9
REMARK    3  A    between atoms: C_7  and  C_10
REMARK    4  A    between atoms: N_13  and  C_17
REMARK    5  A    between atoms: C_17  and  C_18
REMARK    6  A    between atoms: N_20  and  C_21
REMARK    7  A    between atoms: C_21  and  C_22
REMARK    8  A    between atoms: C_27  and  C_28
REMARK    9  A    between atoms: C_28  and  N_29
REMARK   10  A    between atoms: C_32  and  C_35
REMARK                            x       y       z     vdW  Elec       q    Type
REMARK                         _______ _______ _______ _____ _____    ______ ____
ROOT
ATOM      1  C   UNL     1      -4.860  -2.906  -2.280  0.00  0.00    +0.231 C 
ATOM      2  O   UNL     1      -4.666  -1.715  -2.401  0.00  0.00    -0.274 OA
ATOM      3  N   UNL     1      -5.883  -3.492  -2.934  0.00  0.00    -0.310 N 
ATOM      4  H   UNL     1      -6.038  -4.444  -2.838  0.00  0.00    +0.149 HD
ENDROOT
BRANCH   1   5
ATOM      5  C   UNL     1      -3.959  -3.731  -1.399  0.00  0.00    +0.213 C 
BRANCH   5  17
ATOM      6  C   UNL     1      -0.989   2.282   0.897  0.00  0.00    +0.007 C 
ATOM      7  C   UNL     1      -0.720   0.778   0.809  0.00  0.00    -0.011 C 
ATOM      8  C   UNL     1      -2.046   0.032   0.640  0.00  0.00    +0.038 C 
ATOM      9  C   UNL     1      -1.780  -1.468   0.574  0.00  0.00    +0.113 C 
ATOM     10  C   UNL     1      -1.075  -1.948   1.838  0.00  0.00    +0.041 C 
ATOM     11  C   UNL     1       0.247  -1.194   2.003  0.00  0.00    -0.032 C 
ATOM     12  C   UNL     1      -0.031   0.308   2.092  0.00  0.00    +0.009 C 
ATOM     13  C   UNL     1       0.945  -1.661   3.282  0.00  0.00    +0.011 C 
ATOM     14  C   UNL     1       1.149  -1.475   0.799  0.00  0.00    +0.011 C 
ATOM     15  C   UNL     1      -3.073  -2.225   0.372  0.00  0.00    +0.247 C 
ATOM     16  O   UNL     1      -4.034  -2.247   1.112  0.00  0.00    -0.273 OA
ATOM     17  N   UNL     1      -2.934  -2.869  -0.805  0.00  0.00    -0.215 N 
ATOM     18  C   UNL     1      -1.742  -2.622  -1.364  0.00  0.00    +0.310 C 
ATOM     19  O   UNL     1      -1.385  -3.090  -2.427  0.00  0.00    -0.252 OA
ATOM     20  N   UNL     1      -0.985  -1.798  -0.616  0.00  0.00    -0.285 N 
ATOM     21  H   UNL     1      -0.090  -1.484  -0.822  0.00  0.00    +0.151 HD
ENDBRANCH   5  17
ENDBRANCH   1   5
BRANCH   3  22
ATOM     22  C   UNL     1      -6.760  -2.690  -3.792  0.00  0.00    +0.139 C 
BRANCH  22  23
ATOM     23  C   UNL     1      -7.887  -3.550  -4.301  0.00  0.00    -0.029 A 
ATOM     24  C   UNL     1      -7.814  -4.109  -5.563  0.00  0.00    +0.005 A 
ATOM     25  C   UNL     1      -8.848  -4.898  -6.031  0.00  0.00    +0.000 A 
ATOM     26  C   UNL     1      -9.956  -5.127  -5.236  0.00  0.00    +0.000 A 
ATOM     27  C   UNL     1     -10.029  -4.568  -3.974  0.00  0.00    +0.002 A 
ATOM     28  C   UNL     1      -8.993  -3.783  -3.505  0.00  0.00    -0.059 A 
BRANCH  28  29
ATOM     29  C   UNL     1      -9.070  -3.178  -2.127  0.00  0.00    -0.043 C 
BRANCH  29  30
ATOM     30  N   UNL     1      -8.299  -4.002  -1.186  0.00  0.00    +0.382 N 
ATOM     31  C   UNL     1      -8.937  -5.318  -1.055  0.00  0.00    -0.078 C 
ATOM     32  C   UNL     1      -8.094  -6.208  -0.139  0.00  0.00    -0.016 C 
ATOM     33  C   UNL     1      -7.983  -5.552   1.240  0.00  0.00    -0.018 C 
ATOM     34  C   UNL     1      -7.386  -4.151   1.083  0.00  0.00    -0.016 C 
ATOM     35  C   UNL     1      -8.255  -3.337   0.122  0.00  0.00    -0.078 C 
ATOM     36  C   UNL     1      -7.076  -6.397   2.137  0.00  0.00    +0.007 C 
ATOM     37  H   UNL     1      -7.360  -4.119  -1.535  0.00  0.00    -0.081 HD
ENDBRANCH  29  30
ENDBRANCH  28  29
ENDBRANCH  22  23
ENDBRANCH   3  22
TORSDOF 6
