REMARK  Name = ZINC39671685
REMARK  10 active torsions:
REMARK  status: ('A' for Active; 'I' for Inactive)
REMARK    1  A    between atoms: C_1  and  C_2
REMARK    2  A    between atoms: C_4  and  C_37
REMARK    3  A    between atoms: N_5  and  C_7
REMARK    4  A    between atoms: C_7  and  C_8
REMARK    5  A    between atoms: C_8  and  C_9
REMARK    6  A    between atoms: C_9  and  N_10
REMARK    7  A    between atoms: C_11  and  C_13
REMARK    8  A    between atoms: C_24  and  C_26
REMARK    9  A    between atoms: C_29  and  O_32
REMARK   10  A    between atoms: O_32  and  C_33
REMARK                            x       y       z     vdW  Elec       q    Type
REMARK                         _______ _______ _______ _____ _____    ______ ____
ROOT
ATOM      1  C   UNL     1       5.289  -6.734   3.985  0.00  0.00    +0.100 C 
ATOM      2  C   UNL     1       5.709  -5.447   4.730  0.00  0.00    +0.121 C 
ATOM      3  N   UNL     1       5.527  -5.769   6.165  0.00  0.00    -0.296 N 
ATOM      4  C   UNL     1       5.990  -7.172   6.290  0.00  0.00    +0.115 C 
ATOM      5  C   UNL     1       5.478  -7.864   5.011  0.00  0.00    -0.004 C 
ATOM      6  C   UNL     1       6.509  -8.869   4.506  0.00  0.00    -0.010 C 
ATOM      7  C   UNL     1       6.637 -10.013   5.515  0.00  0.00    -0.082 C 
ATOM      8  N   UNL     1       5.333 -10.664   5.688  0.00  0.00    +0.379 N 
ATOM      9  C   UNL     1       4.372  -9.715   6.262  0.00  0.00    -0.082 C 
ATOM     10  C   UNL     1       4.147  -8.558   5.284  0.00  0.00    -0.010 C 
ATOM     11  C   UNL     1       5.049  -4.967   7.137  0.00  0.00    +0.247 C 
ATOM     12  O   UNL     1       4.590  -3.877   6.856  0.00  0.00    -0.270 OA
ATOM     13  H   UNL     1       4.996 -10.982   4.791  0.00  0.00    -0.086 HD
ATOM     14  H   UNL     1       5.432 -11.455   6.306  0.00  0.00    -0.086 HD
ENDROOT
BRANCH  11  15
ATOM     15  C   UNL     1       5.083  -5.412   8.544  0.00  0.00    +0.037 A 
ATOM     16  C   UNL     1       5.970  -6.417   8.940  0.00  0.00    +0.016 A 
ATOM     17  C   UNL     1       5.999  -6.830  10.253  0.00  0.00    +0.047 A 
ATOM     18  C   UNL     1       5.147  -6.248  11.185  0.00  0.00    +0.130 A 
ATOM     19  C   UNL     1       4.264  -5.248  10.796  0.00  0.00    +0.047 A 
ATOM     20  C   UNL     1       4.233  -4.826   9.485  0.00  0.00    +0.016 A 
BRANCH  18  21
ATOM     21  O   UNL     1       5.178  -6.657  12.479  0.00  0.00    -0.406 OA
BRANCH  21  22
ATOM     22  C   UNL     1       4.277  -6.017  13.384  0.00  0.00    +0.575 C 
ATOM     23  F   UNL     1       2.961  -6.224  12.955  0.00  0.00    -0.133 F 
ATOM     24  F   UNL     1       4.440  -6.556  14.664  0.00  0.00    -0.133 F 
ATOM     25  F   UNL     1       4.546  -4.645  13.418  0.00  0.00    -0.133 F 
ENDBRANCH  21  22
ENDBRANCH  18  21
ENDBRANCH  11  15
BRANCH   1  27
ATOM     26  N   UNL     1       3.402  -7.387   2.526  0.00  0.00    -0.315 N 
ATOM     27  C   UNL     1       3.846  -6.647   3.561  0.00  0.00    +0.218 C 
ATOM     28  O   UNL     1       3.083  -5.910   4.150  0.00  0.00    -0.275 OA
ATOM     29  H   UNL     1       4.011  -7.976   2.054  0.00  0.00    +0.149 HD
BRANCH  26  30
ATOM     30  C   UNL     1       1.999  -7.302   2.113  0.00  0.00    +0.106 C 
BRANCH  30  31
ATOM     31  C   UNL     1       1.759  -8.236   0.925  0.00  0.00    +0.042 C 
BRANCH  31  32
ATOM     32  C   UNL     1       0.294  -8.148   0.494  0.00  0.00    +0.145 C 
BRANCH  32  37
ATOM     33  C   UNL     1      -0.076  -9.841  -4.217  0.00  0.00    +0.067 C 
ATOM     34  C   UNL     1      -0.091  -9.761  -2.712  0.00  0.00    +0.060 A 
ATOM     35  C   UNL     1      -0.414 -10.805  -1.839  0.00  0.00    +0.047 A 
ATOM     36  C   UNL     1      -0.310 -10.336  -0.574  0.00  0.00    +0.036 A 
ATOM     37  N   UNL     1       0.065  -9.042  -0.644  0.00  0.00    -0.268 N 
ATOM     38  N   UNL     1       0.201  -8.705  -1.997  0.00  0.00    -0.176 NA
ATOM     39  C   UNL     1      -0.568 -11.119   0.688  0.00  0.00    +0.065 C 
ENDBRANCH  32  37
ENDBRANCH  31  32
ENDBRANCH  30  31
ENDBRANCH  26  30
ENDBRANCH   1  27
TORSDOF 8
