REMARK  Name = ZINC63182421
REMARK  8 active torsions:
REMARK  status: ('A' for Active; 'I' for Inactive)
REMARK    1  A    between atoms: C_7  and  C_10
REMARK    2  A    between atoms: C_10  and  C_11
REMARK    3  A    between atoms: C_11  and  C_13
REMARK    4  A    between atoms: C_11  and  N_26
REMARK    5  A    between atoms: N_15  and  C_16
REMARK    6  A    between atoms: C_20  and  S_22
REMARK    7  A    between atoms: S_22  and  N_25
REMARK    8  A    between atoms: C_27  and  C_29
REMARK                            x       y       z     vdW  Elec       q    Type
REMARK                         _______ _______ _______ _____ _____    ______ ____
ROOT
ATOM      1  C   UNL     1       0.458  -3.654  -1.468  0.00  0.00    +0.163 C 
ENDROOT
BRANCH   1   2
ATOM      2  C   UNL     1      -0.385  -4.903  -1.451  0.00  0.00    +0.238 C 
ATOM      3  O   UNL     1      -1.576  -4.834  -1.669  0.00  0.00    -0.273 OA
ATOM      4  N   UNL     1       0.185  -6.097  -1.193  0.00  0.00    -0.284 N 
ATOM      5  H   UNL     1       1.147  -6.162  -1.084  0.00  0.00    +0.155 HD
BRANCH   4   6
ATOM      6  C   UNL     1      -0.611  -7.243  -1.081  0.00  0.00    +0.035 A 
ATOM      7  C   UNL     1      -0.276  -8.237  -0.171  0.00  0.00    +0.023 A 
ATOM      8  C   UNL     1      -1.063  -9.366  -0.062  0.00  0.00    +0.004 A 
ATOM      9  C   UNL     1      -2.184  -9.508  -0.859  0.00  0.00    +0.028 A 
ATOM     10  C   UNL     1      -2.521  -8.520  -1.766  0.00  0.00    +0.107 A 
ATOM     11  C   UNL     1      -1.741  -7.385  -1.875  0.00  0.00    +0.051 A 
BRANCH  10  12
ATOM     12  S   UNL     1      -3.950  -8.706  -2.780  0.00  0.00    +0.056 S 
ATOM     13  O   UNL     1      -3.742  -7.895  -3.928  0.00  0.00    -0.153 OA
ATOM     14  O   UNL     1      -4.207 -10.100  -2.868  0.00  0.00    -0.153 OA
BRANCH  12  15
ATOM     15  N   UNL     1      -5.224  -8.041  -1.956  0.00  0.00    -0.204 NA
ATOM     16  H   UNL     1      -5.963  -7.645  -2.443  0.00  0.00    +0.144 HD
ATOM     17  H   UNL     1      -5.231  -8.047  -0.986  0.00  0.00    +0.144 HD
ENDBRANCH  12  15
ENDBRANCH  10  12
ENDBRANCH   4   6
ENDBRANCH   1   2
BRANCH   1  18
ATOM     18  N   UNL     1      -0.240  -2.604  -2.214  0.00  0.00    -0.300 N 
ATOM     19  C   UNL     1      -1.450  -2.175  -1.801  0.00  0.00    +0.246 C 
ATOM     20  O   UNL     1      -1.961  -2.660  -0.810  0.00  0.00    -0.270 OA
ATOM     21  H   UNL     1       0.167  -2.218  -3.005  0.00  0.00    +0.150 HD
BRANCH  19  22
ATOM     22  C   UNL     1      -2.154  -1.116  -2.553  0.00  0.00    +0.055 A 
ATOM     23  C   UNL     1      -1.573  -0.562  -3.695  0.00  0.00    +0.014 A 
ATOM     24  C   UNL     1      -2.236   0.426  -4.392  0.00  0.00    +0.001 A 
ATOM     25  C   UNL     1      -3.475   0.869  -3.963  0.00  0.00    +0.001 A 
ATOM     26  C   UNL     1      -4.058   0.325  -2.833  0.00  0.00    +0.021 A 
ATOM     27  C   UNL     1      -3.408  -0.669  -2.128  0.00  0.00    +0.053 A 
ATOM     28 CL   UNL     1      -4.143  -1.357  -0.714  0.00  0.00    -0.083 Cl
ENDBRANCH  19  22
ENDBRANCH   1  18
BRANCH   1  29
ATOM     29  C   UNL     1       0.703  -3.184  -0.033  0.00  0.00    +0.065 C 
BRANCH  29  36
ATOM     30  C   UNL     1       0.002   1.351  -0.003  0.00  0.00    +0.001 A 
ATOM     31  C   UNL     1       1.185   2.102  -0.020  0.00  0.00    +0.002 A 
ATOM     32  C   UNL     1       2.410   1.534  -0.043  0.00  0.00    +0.026 A 
ATOM     33  C   UNL     1       2.546   0.119  -0.050  0.00  0.00    +0.043 A 
ATOM     34  N   UNL     1       3.602  -0.657  -0.071  0.00  0.00    -0.380 N 
ATOM     35  C   UNL     1       3.157  -2.055  -0.069  0.00  0.00    +0.144 C 
ATOM     36  C   UNL     1       1.645  -2.008  -0.044  0.00  0.00    -0.039 C 
ATOM     37  C   UNL     1       1.311  -0.698  -0.033  0.00  0.00    -0.001 A 
ATOM     38  C   UNL     1       0.019  -0.002  -0.008  0.00  0.00    +0.010 A 
ATOM     39  H   UNL     1       4.525  -0.357  -0.086  0.00  0.00    +0.160 HD
ENDBRANCH  29  36
ENDBRANCH   1  29
TORSDOF 8
