REMARK  Name = ZINC35513926
REMARK  8 active torsions:
REMARK  status: ('A' for Active; 'I' for Inactive)
REMARK    1  A    between atoms: C_1  and  C_2
REMARK    2  A    between atoms: C_2  and  O_3
REMARK    3  A    between atoms: O_3  and  C_4
REMARK    4  A    between atoms: C_6  and  C_11
REMARK    5  A    between atoms: C_9  and  O_10
REMARK    6  A    between atoms: C_29  and  C_35
REMARK    7  A    between atoms: C_30  and  C_32
REMARK    8  A    between atoms: C_32  and  C_34
REMARK                            x       y       z     vdW  Elec       q    Type
REMARK                         _______ _______ _______ _____ _____    ______ ____
ROOT
ATOM      1  C   UNL     1      -0.229  -4.969   0.477  0.00  0.00    +0.152 C 
ATOM      2  C   UNL     1       0.851  -5.487   1.369  0.00  0.00    +0.072 A 
ATOM      3  C   UNL     1       1.784  -4.793   2.262  0.00  0.00    +0.199 A 
ATOM      4  O   UNL     1       1.687  -3.611   2.539  0.00  0.00    -0.287 OA
ATOM      5  C   UNL     1       2.859  -5.668   2.796  0.00  0.00    +0.066 A 
ATOM      6  C   UNL     1       3.933  -5.119   3.495  0.00  0.00    +0.035 A 
ATOM      7  C   UNL     1       4.924  -5.945   3.979  0.00  0.00    +0.042 A 
ATOM      8  C   UNL     1       4.851  -7.316   3.769  0.00  0.00    +0.023 A 
ATOM      9  C   UNL     1       3.794  -7.869   3.082  0.00  0.00    +0.048 A 
ATOM     10  C   UNL     1       2.777  -7.054   2.585  0.00  0.00    +0.140 A 
ATOM     11  O   UNL     1       1.744  -7.624   1.922  0.00  0.00    -0.450 OA
ATOM     12  C   UNL     1       0.880  -6.848   1.240  0.00  0.00    +0.199 A 
ATOM     13  C   UNL     1      -0.159  -7.242   0.274  0.00  0.00    +0.289 C 
ATOM     14  O   UNL     1      -0.393  -8.384  -0.069  0.00  0.00    -0.266 OA
ATOM     15  N   UNL     1      -0.814  -6.151  -0.177  0.00  0.00    -0.232 N 
ATOM     16  C   UNL     1      -1.850  -6.143  -1.090  0.00  0.00    +0.169 A 
ATOM     17  N   UNL     1      -2.515  -5.103  -1.563  0.00  0.00    -0.229 NA
ATOM     18  C   UNL     1      -3.481  -5.246  -2.431  0.00  0.00    +0.058 A 
ATOM     19  C   UNL     1      -3.767  -6.552  -2.826  0.00  0.00    +0.078 A 
ATOM     20  S   UNL     1      -2.559  -7.455  -1.869  0.00  0.00    -0.049 S 
ATOM     21  C   UNL     1      -4.244  -4.066  -2.974  0.00  0.00    +0.067 C 
ATOM     22 CL   UNL     1       6.266  -5.272   4.850  0.00  0.00    -0.084 Cl
ENDROOT
BRANCH   1  25
ATOM     23  C   UNL     1       0.777  -1.811  -1.336  0.00  0.00    +0.162 A 
ATOM     24  C   UNL     1       0.243  -2.669  -0.388  0.00  0.00    +0.055 A 
ATOM     25  C   UNL     1       0.352  -4.037  -0.555  0.00  0.00    -0.018 A 
ATOM     26  C   UNL     1       0.992  -4.552  -1.667  0.00  0.00    +0.009 A 
ATOM     27  C   UNL     1       1.526  -3.702  -2.616  0.00  0.00    +0.049 A 
ATOM     28  C   UNL     1       1.416  -2.330  -2.458  0.00  0.00    +0.158 A 
BRANCH  28  29
ATOM     29  O   UNL     1       1.936  -1.492  -3.394  0.00  0.00    -0.503 OA
ATOM     30  H   UNL     1       2.856  -1.241  -3.231  0.00  0.00    +0.292 HD
ENDBRANCH  28  29
BRANCH  23  31
ATOM     31  O   UNL     1       0.671  -0.465  -1.174  0.00  0.00    -0.489 OA
BRANCH  31  33
ATOM     32  C   UNL     1      -0.019   1.526   0.010  0.00  0.00    +0.048 C 
ATOM     33  C   UNL     1       0.002  -0.004   0.002  0.00  0.00    +0.226 C 
ENDBRANCH  31  33
ENDBRANCH  23  31
ENDBRANCH   1  25
BRANCH  19  34
ATOM     34  C   UNL     1      -4.736  -7.027  -3.732  0.00  0.00    +0.168 C 
ATOM     35  O   UNL     1      -5.474  -6.245  -4.297  0.00  0.00    -0.292 OA
ATOM     36  C   UNL     1      -4.856  -8.505  -4.000  0.00  0.00    +0.092 C 
ENDBRANCH  19  34
TORSDOF 5
