REMARK  Name = ZINC20348467
REMARK  12 active torsions:
REMARK  status: ('A' for Active; 'I' for Inactive)
REMARK    1  A    between atoms: C_1  and  C_2
REMARK    2  A    between atoms: C_6  and  N_8
REMARK    3  A    between atoms: C_9  and  C_11
REMARK    4  A    between atoms: C_11  and  S_12
REMARK    5  A    between atoms: S_12  and  C_13
REMARK    6  A    between atoms: C_14  and  C_34
REMARK    7  A    between atoms: C_15  and  C_27
REMARK    8  A    between atoms: C_17  and  C_21
REMARK    9  A    between atoms: C_18  and  C_20
REMARK   10  A    between atoms: C_21  and  O_23
REMARK   11  A    between atoms: O_23  and  C_24
REMARK   12  A    between atoms: C_24  and  C_25
REMARK                            x       y       z     vdW  Elec       q    Type
REMARK                         _______ _______ _______ _____ _____    ______ ____
ROOT
ATOM      1  C   UNL     1       2.432   9.787   0.488  0.00  0.00    +0.080 C 
ATOM      2  C   UNL     1       3.470  10.659   0.600  0.00  0.00    +0.069 C 
ATOM      3  C   UNL     1       3.236  12.140   0.701  0.00  0.00    +0.102 C 
ATOM      4  C   UNL     1       1.806  12.430   1.058  0.00  0.00    +0.066 C 
ATOM      5  C   UNL     1       0.844  11.501   0.934  0.00  0.00    +0.016 C 
ATOM      6  N   UNL     1       1.133  10.243   0.482  0.00  0.00    -0.312 N 
ATOM      7  C   UNL     1      -0.576  11.850   1.299  0.00  0.00    +0.061 C 
ATOM      8  H   UNL     1       0.325   9.595   0.112  0.00  0.00    +0.152 HD
ENDROOT
BRANCH   3   9
ATOM      9  C   UNL     1       3.558  12.788  -0.621  0.00  0.00    -0.016 A 
ATOM     10  C   UNL     1       2.852  12.433  -1.755  0.00  0.00    +0.006 A 
ATOM     11  C   UNL     1       3.143  13.031  -2.967  0.00  0.00    +0.000 A 
ATOM     12  C   UNL     1       4.149  13.977  -3.047  0.00  0.00    +0.001 A 
ATOM     13  C   UNL     1       4.859  14.329  -1.915  0.00  0.00    +0.020 A 
ATOM     14  C   UNL     1       4.563  13.734  -0.701  0.00  0.00    +0.045 A 
ATOM     15 CL   UNL     1       5.455  14.175   0.722  0.00  0.00    -0.083 Cl
ENDBRANCH   3   9
BRANCH   4  16
ATOM     16  C   UNL     1       1.465  13.715   1.539  0.00  0.00    +0.338 C 
ATOM     17  O   UNL     1       0.311  13.967   1.834  0.00  0.00    -0.245 OA
BRANCH  16  18
ATOM     18  O   UNL     1       2.417  14.661   1.671  0.00  0.00    -0.457 OA
BRANCH  18  19
ATOM     19  C   UNL     1       2.001  15.937   2.162  0.00  0.00    +0.259 C 
BRANCH  19  20
ATOM     20  C   UNL     1       3.191  16.858   2.241  0.00  0.00    +0.006 C 
ATOM     21  C   UNL     1       3.098  18.088   1.802  0.00  0.00    +0.007 C 
ENDBRANCH  19  20
ENDBRANCH  18  19
ENDBRANCH  16  18
ENDBRANCH   4  16
BRANCH   2  22
ATOM     22  C   UNL     1       4.811  10.157   0.619  0.00  0.00    +0.098 C 
ATOM     23  N   UNL     1       5.875   9.759   0.633  0.00  0.00    -0.191 NA
ENDBRANCH   2  22
BRANCH   1  24
ATOM     24  S   UNL     1       2.753   8.059   0.357  0.00  0.00    -0.100 S 
BRANCH  24  25
ATOM     25  C   UNL     1       1.058   7.432   0.248  0.00  0.00    +0.171 C 
BRANCH  25  27
ATOM     26  N   UNL     1      -0.069   5.242   0.031  0.00  0.00    -0.285 N 
ATOM     27  C   UNL     1       1.085   5.931   0.126  0.00  0.00    +0.227 C 
ATOM     28  O   UNL     1       2.146   5.342   0.114  0.00  0.00    -0.275 OA
ATOM     29  H   UNL     1      -1.026   5.779  -0.045  0.00  0.00    +0.155 HD
BRANCH  26  35
ATOM     30  C   UNL     1      -1.981   0.986  -1.522  0.00  0.00    +0.044 C 
ATOM     31  C   UNL     1      -0.966   1.754  -0.715  0.00  0.00    -0.049 A 
ATOM     32  C   UNL     1      -0.015   1.076   0.025  0.00  0.00    +0.003 A 
ATOM     33  C   UNL     1       0.922   1.777   0.762  0.00  0.00    +0.002 A 
ATOM     34  C   UNL     1       0.906   3.158   0.766  0.00  0.00    +0.023 A 
ATOM     35  C   UNL     1      -0.051   3.842   0.029  0.00  0.00    +0.034 A 
ATOM     36  C   UNL     1      -0.990   3.135  -0.711  0.00  0.00    +0.026 A 
ENDBRANCH  26  35
ENDBRANCH  25  27
ENDBRANCH  24  25
ENDBRANCH   1  24
TORSDOF 10
