REMARK  Name = ZINC38288166
REMARK  9 active torsions:
REMARK  status: ('A' for Active; 'I' for Inactive)
REMARK    1  A    between atoms: C_1  and  C_2
REMARK    2  A    between atoms: C_7  and  C_8
REMARK    3  A    between atoms: C_7  and  C_9
REMARK    4  A    between atoms: N_12  and  N_13
REMARK    5  A    between atoms: C_19  and  C_20
REMARK    6  A    between atoms: N_22  and  C_33
REMARK    7  A    between atoms: C_24  and  C_25
REMARK    8  A    between atoms: C_28  and  O_31
REMARK    9  A    between atoms: O_31  and  C_32
REMARK                            x       y       z     vdW  Elec       q    Type
REMARK                         _______ _______ _______ _____ _____    ______ ____
ROOT
ATOM      1  N   UNL     1      -3.642  -1.131  -0.862  0.00  0.00    -0.126 NA
ATOM      2  C   UNL     1      -4.826  -0.575  -1.021  0.00  0.00    +0.187 C 
ATOM      3  N   UNL     1      -5.128   0.655  -1.563  0.00  0.00    -0.259 N 
ATOM      4  C   UNL     1      -6.383   1.062  -1.649  0.00  0.00    +0.256 C 
ATOM      5  O   UNL     1      -6.668   2.146  -2.125  0.00  0.00    -0.269 OA
ATOM      6  C   UNL     1      -7.421   0.147  -1.145  0.00  0.00    +0.078 C 
ATOM      7  C   UNL     1      -8.770   0.308  -1.110  0.00  0.00    +0.032 C 
ATOM      8  S   UNL     1      -6.429  -1.235  -0.596  0.00  0.00    -0.047 S 
ATOM      9  H   UNL     1      -4.414   1.227  -1.883  0.00  0.00    +0.157 HD
ENDROOT
BRANCH   1  20
ATOM     10  C   UNL     1       0.082   1.116  -1.665  0.00  0.00    +0.018 C 
ATOM     11  C   UNL     1       0.041  -0.403  -1.482  0.00  0.00    +0.013 C 
ATOM     12  C   UNL     1       0.535  -1.247  -2.697  0.00  0.00    +0.013 C 
ATOM     13  C   UNL     1       0.878  -2.630  -2.096  0.00  0.00    +0.005 C 
ATOM     14  C   UNL     1       0.550  -2.487  -0.578  0.00  0.00    +0.001 C 
ATOM     15  C   UNL     1       0.942  -0.986  -0.337  0.00  0.00    -0.021 C 
ATOM     16  C   UNL     1       2.429  -0.732  -0.590  0.00  0.00    +0.012 C 
ATOM     17  C   UNL     1       0.507  -0.492   1.044  0.00  0.00    +0.012 C 
ATOM     18  C   UNL     1      -1.007  -2.400  -0.526  0.00  0.00    +0.057 C 
ATOM     19  C   UNL     1      -1.324  -0.995  -1.106  0.00  0.00    +0.048 C 
ATOM     20  N   UNL     1      -2.487  -0.448  -1.263  0.00  0.00    -0.156 NA
ENDBRANCH   1  20
BRANCH   7  21
ATOM     21  C   UNL     1      -9.364   1.600  -1.471  0.00  0.00    +0.022 A 
ATOM     22  C   UNL     1      -8.845   2.854  -1.206  0.00  0.00    +0.123 A 
ATOM     23  N   UNL     1      -9.699   3.767  -1.706  0.00  0.00    -0.239 N 
ATOM     24  N   UNL     1     -10.784   3.118  -2.302  0.00  0.00    -0.166 NA
ATOM     25  C   UNL     1     -10.624   1.818  -2.192  0.00  0.00    +0.100 A 
BRANCH  25  26
ATOM     26  C   UNL     1     -11.543   0.771  -2.696  0.00  0.00    +0.003 A 
ATOM     27  C   UNL     1     -11.033  -0.435  -3.175  0.00  0.00    +0.013 A 
ATOM     28  C   UNL     1     -11.891  -1.407  -3.643  0.00  0.00    +0.046 A 
ATOM     29  C   UNL     1     -13.262  -1.187  -3.637  0.00  0.00    +0.120 A 
ATOM     30  C   UNL     1     -13.773   0.013  -3.160  0.00  0.00    +0.046 A 
ATOM     31  C   UNL     1     -12.921   0.988  -2.686  0.00  0.00    +0.013 A 
BRANCH  29  32
ATOM     32  O   UNL     1     -14.105  -2.147  -4.099  0.00  0.00    -0.495 OA
ATOM     33  C   UNL     1     -15.503  -1.854  -4.064  0.00  0.00    +0.277 C 
ENDBRANCH  29  32
ENDBRANCH  25  26
BRANCH  23  34
ATOM     34  C   UNL     1      -9.527   5.155  -1.638  0.00  0.00    +0.065 A 
ATOM     35  C   UNL     1      -8.401   5.688  -1.023  0.00  0.00    +0.028 A 
ATOM     36  C   UNL     1      -8.234   7.057  -0.958  0.00  0.00    +0.002 A 
ATOM     37  C   UNL     1      -9.187   7.898  -1.504  0.00  0.00    +0.000 A 
ATOM     38  C   UNL     1     -10.309   7.371  -2.117  0.00  0.00    +0.002 A 
ATOM     39  C   UNL     1     -10.479   6.002  -2.191  0.00  0.00    +0.028 A 
ENDBRANCH  23  34
ENDBRANCH   7  21
TORSDOF 5
