REMARK  Name = ZINC36599031
REMARK  11 active torsions:
REMARK  status: ('A' for Active; 'I' for Inactive)
REMARK    1  A    between atoms: C_1  and  C_2
REMARK    2  A    between atoms: C_5  and  C_7
REMARK    3  A    between atoms: C_7  and  N_8
REMARK    4  A    between atoms: N_8  and  C_9
REMARK    5  A    between atoms: C_9  and  C_11
REMARK    6  A    between atoms: C_9  and  C_16
REMARK    7  A    between atoms: N_18  and  C_19
REMARK    8  A    between atoms: C_25  and  C_27
REMARK    9  A    between atoms: C_27  and  C_28
REMARK   10  A    between atoms: C_27  and  C_34
REMARK   11  A    between atoms: C_27  and  O_40
REMARK                            x       y       z     vdW  Elec       q    Type
REMARK                         _______ _______ _______ _____ _____    ______ ____
ROOT
ATOM      1  N   UNL     1       1.764  -3.148  -0.047  0.00  0.00    -0.273 N 
ATOM      2  C   UNL     1       0.743  -3.944  -0.422  0.00  0.00    +0.258 C 
ATOM      3  O   UNL     1       0.003  -3.598  -1.319  0.00  0.00    -0.272 OA
ENDROOT
BRANCH   1   4
ATOM      4  C   UNL     1       2.604  -3.524   1.093  0.00  0.00    +0.183 C 
BRANCH   4   9
ATOM      5  C   UNL     1       2.869   0.242   4.438  0.00  0.00    +0.086 C 
ATOM      6  C   UNL     1       2.399  -0.998   3.722  0.00  0.00    +0.102 A 
ATOM      7  C   UNL     1       1.340  -1.752   4.067  0.00  0.00    +0.045 A 
ATOM      8  C   UNL     1       1.266  -2.808   3.130  0.00  0.00    +0.046 A 
ATOM      9  C   UNL     1       2.284  -2.636   2.267  0.00  0.00    +0.122 A 
ATOM     10  O   UNL     1       2.963  -1.534   2.627  0.00  0.00    -0.463 OA
ENDBRANCH   4   9
ENDBRANCH   1   4
BRANCH   1  11
ATOM     11  C   UNL     1       2.034  -1.908  -0.779  0.00  0.00    +0.229 C 
BRANCH  11  12
ATOM     12  C   UNL     1       3.471  -1.896  -1.233  0.00  0.00    +0.134 A 
ATOM     13  C   UNL     1       3.917  -1.449  -2.421  0.00  0.00    +0.047 A 
ATOM     14  C   UNL     1       5.320  -1.623  -2.423  0.00  0.00    +0.041 A 
ATOM     15  C   UNL     1       5.647  -2.166  -1.236  0.00  0.00    +0.195 A 
ATOM     16  O   UNL     1       4.524  -2.323  -0.517  0.00  0.00    -0.465 OA
ENDBRANCH  11  12
BRANCH  11  17
ATOM     17  C   UNL     1       1.782  -0.728   0.123  0.00  0.00    +0.241 C 
ATOM     18  O   UNL     1       1.058  -0.846   1.089  0.00  0.00    -0.273 OA
ATOM     19  N   UNL     1       2.360   0.460  -0.144  0.00  0.00    -0.311 N 
ATOM     20  H   UNL     1       2.939   0.555  -0.916  0.00  0.00    +0.149 HD
BRANCH  19  21
ATOM     21  C   UNL     1       2.115   1.608   0.733  0.00  0.00    +0.073 C 
ATOM     22  C   UNL     1       0.822   2.307   0.307  0.00  0.00    +0.022 C 
ATOM     23  C   UNL     1       0.566   3.506   1.223  0.00  0.00    +0.002 C 
ATOM     24  C   UNL     1       1.736   4.487   1.118  0.00  0.00    +0.000 C 
ATOM     25  C   UNL     1       3.028   3.788   1.543  0.00  0.00    +0.002 C 
ATOM     26  C   UNL     1       3.284   2.589   0.628  0.00  0.00    +0.022 C 
ENDBRANCH  19  21
ENDBRANCH  11  17
ENDBRANCH   1  11
BRANCH   2  27
ATOM     27  C   UNL     1       0.520  -5.262   0.272  0.00  0.00    +0.192 C 
BRANCH  27  28
ATOM     28  C   UNL     1      -0.710  -5.926  -0.293  0.00  0.00    -0.003 A 
ATOM     29  C   UNL     1      -0.761  -6.259  -1.633  0.00  0.00    +0.007 A 
ATOM     30  C   UNL     1      -1.889  -6.868  -2.151  0.00  0.00    +0.000 A 
ATOM     31  C   UNL     1      -2.965  -7.145  -1.329  0.00  0.00    +0.000 A 
ATOM     32  C   UNL     1      -2.913  -6.812   0.012  0.00  0.00    +0.000 A 
ATOM     33  C   UNL     1      -1.784  -6.207   0.531  0.00  0.00    +0.007 A 
ENDBRANCH  27  28
BRANCH  27  34
ATOM     34  C   UNL     1       1.716  -6.153   0.055  0.00  0.00    -0.003 A 
ATOM     35  C   UNL     1       2.375  -6.141  -1.160  0.00  0.00    +0.007 A 
ATOM     36  C   UNL     1       3.472  -6.958  -1.359  0.00  0.00    +0.000 A 
ATOM     37  C   UNL     1       3.911  -7.786  -0.343  0.00  0.00    +0.000 A 
ATOM     38  C   UNL     1       3.253  -7.797   0.873  0.00  0.00    +0.000 A 
ATOM     39  C   UNL     1       2.158  -6.977   1.073  0.00  0.00    +0.007 A 
ENDBRANCH  27  34
BRANCH  27  40
ATOM     40  O   UNL     1       0.340  -5.039   1.672  0.00  0.00    -0.371 OA
ATOM     41  H   UNL     1       1.126  -4.698   2.120  0.00  0.00    +0.212 HD
ENDBRANCH  27  40
ENDBRANCH   2  27
TORSDOF 10
