REMARK  Name = ZINC60199503
REMARK  8 active torsions:
REMARK  status: ('A' for Active; 'I' for Inactive)
REMARK    1  A    between atoms: C_1  and  C_2
REMARK    2  A    between atoms: C_2  and  C_4
REMARK    3  A    between atoms: C_2  and  N_16
REMARK    4  A    between atoms: C_8  and  C_10
REMARK    5  A    between atoms: C_17  and  C_19
REMARK    6  A    between atoms: C_19  and  C_20
REMARK    7  A    between atoms: C_20  and  C_21
REMARK    8  A    between atoms: C_23  and  C_26
REMARK                            x       y       z     vdW  Elec       q    Type
REMARK                         _______ _______ _______ _____ _____    ______ ____
ROOT
ATOM      1  N   UNL     1       0.711  -0.489   1.189  0.00  0.00    -0.306 N 
ATOM      2  C   UNL     1       0.051  -0.633   2.355  0.00  0.00    +0.214 C 
ATOM      3  O   UNL     1      -1.129  -0.361   2.423  0.00  0.00    -0.276 OA
ATOM      4  H   UNL     1       1.654  -0.707   1.135  0.00  0.00    +0.149 HD
ENDROOT
BRANCH   1   6
ATOM      5  C   UNL     1      -0.019   1.526   0.010  0.00  0.00    +0.036 C 
ATOM      6  C   UNL     1       0.002  -0.004   0.002  0.00  0.00    +0.134 C 
BRANCH   6   7
ATOM      7  C   UNL     1       0.707  -0.490  -1.238  0.00  0.00    +0.105 A 
ATOM      8  N   UNL     1       2.031  -0.739  -1.341  0.00  0.00    -0.348 N 
ATOM      9  H   UNL     1       2.691  -0.638  -0.637  0.00  0.00    +0.167 HD
ATOM     10  C   UNL     1       2.271  -1.159  -2.619  0.00  0.00    +0.110 A 
ATOM     11  C   UNL     1       1.074  -1.154  -3.262  0.00  0.00    +0.064 A 
ATOM     12  N   UNL     1       0.138  -0.744  -2.382  0.00  0.00    -0.342 N 
ATOM     13  H   UNL     1      -0.809  -0.650  -2.572  0.00  0.00    +0.167 HD
BRANCH  11  14
ATOM     14  C   UNL     1       0.839  -1.537  -4.676  0.00  0.00    -0.000 A 
ATOM     15  C   UNL     1      -0.447  -1.479  -5.212  0.00  0.00    +0.010 A 
ATOM     16  C   UNL     1      -0.660  -1.837  -6.527  0.00  0.00    +0.001 A 
ATOM     17  C   UNL     1       0.399  -2.253  -7.314  0.00  0.00    +0.000 A 
ATOM     18  C   UNL     1       1.677  -2.313  -6.788  0.00  0.00    +0.001 A 
ATOM     19  C   UNL     1       1.903  -1.951  -5.475  0.00  0.00    +0.010 A 
ENDBRANCH  11  14
ENDBRANCH   6   7
ENDBRANCH   1   6
BRANCH   2  20
ATOM     20  C   UNL     1       0.780  -1.133   3.576  0.00  0.00    +0.105 C 
BRANCH  20  21
ATOM     21  C   UNL     1      -0.191  -1.204   4.756  0.00  0.00    +0.108 C 
BRANCH  21  22
ATOM     22  C   UNL     1       0.538  -1.703   5.977  0.00  0.00    +0.228 A 
ATOM     23  N   UNL     1       1.146  -0.960   6.858  0.00  0.00    -0.191 NA
ATOM     24  C   UNL     1       1.688  -1.732   7.816  0.00  0.00    +0.202 A 
ATOM     25  N   UNL     1       1.423  -2.986   7.544  0.00  0.00    -0.056 NA
ATOM     26  O   UNL     1       0.665  -2.985   6.343  0.00  0.00    -0.338 OA
BRANCH  24  27
ATOM     27  C   UNL     1       2.460  -1.245   8.987  0.00  0.00    +0.023 A 
ATOM     28  C   UNL     1       2.669   0.120   9.167  0.00  0.00    +0.013 A 
ATOM     29  C   UNL     1       3.387   0.569  10.257  0.00  0.00    +0.021 A 
ATOM     30  C   UNL     1       3.899  -0.337  11.171  0.00  0.00    +0.041 A 
ATOM     31  C   UNL     1       3.694  -1.695  10.996  0.00  0.00    +0.021 A 
ATOM     32  C   UNL     1       2.972  -2.152   9.912  0.00  0.00    +0.013 A 
ATOM     33 CL   UNL     1       4.802   0.233  12.540  0.00  0.00    -0.084 Cl
ENDBRANCH  24  27
ENDBRANCH  21  22
ENDBRANCH  20  21
ENDBRANCH   2  20
TORSDOF 7
