REMARK  Name = ZINC67587583
REMARK  8 active torsions:
REMARK  status: ('A' for Active; 'I' for Inactive)
REMARK    1  A    between atoms: C_1  and  C_2
REMARK    2  A    between atoms: C_5  and  C_26
REMARK    3  A    between atoms: N_8  and  C_10
REMARK    4  A    between atoms: C_10  and  C_11
REMARK    5  A    between atoms: C_10  and  C_12
REMARK    6  A    between atoms: C_10  and  C_13
REMARK    7  A    between atoms: C_13  and  N_14
REMARK    8  A    between atoms: C_21  and  C_23
REMARK                            x       y       z     vdW  Elec       q    Type
REMARK                         _______ _______ _______ _____ _____    ______ ____
ROOT
ATOM      1  N   UNL     1       3.474  -2.390   0.904  0.00  0.00    -0.300 N 
ATOM      2  C   UNL     1       4.768  -2.196   0.578  0.00  0.00    +0.305 C 
ATOM      3  O   UNL     1       5.535  -1.721   1.393  0.00  0.00    -0.252 OA
ATOM      4  N   UNL     1       5.210  -2.529  -0.651  0.00  0.00    -0.247 N 
ATOM      5  C   UNL     1       6.545  -2.328  -0.987  0.00  0.00    +0.189 A 
ATOM      6  N   UNL     1       7.523  -1.837  -0.251  0.00  0.00    -0.125 NA
ATOM      7  N   UNL     1       8.698  -1.715  -0.699  0.00  0.00    -0.139 NA
ATOM      8  C   UNL     1       8.955  -2.089  -1.937  0.00  0.00    +0.169 A 
ATOM      9  S   UNL     1       7.337  -2.657  -2.438  0.00  0.00    -0.030 S 
ATOM     10  H   UNL     1       2.862  -2.769   0.254  0.00  0.00    +0.150 HD
ATOM     11  H   UNL     1       4.598  -2.908  -1.301  0.00  0.00    +0.158 HD
ENDROOT
BRANCH   8  12
ATOM     12  C   UNL     1      10.249  -2.051  -2.708  0.00  0.00    +0.398 C 
ATOM     13  F   UNL     1      11.324  -2.202  -1.825  0.00  0.00    -0.202 F 
ATOM     14  F   UNL     1      10.265  -3.092  -3.643  0.00  0.00    -0.202 F 
ENDBRANCH   8  12
BRANCH   1  15
ATOM     15  C   UNL     1       2.993  -2.028   2.239  0.00  0.00    +0.093 C 
BRANCH  15  16
ATOM     16  C   UNL     1       1.478  -2.227   2.306  0.00  0.00    -0.055 C 
ATOM     17  C   UNL     1       0.963  -1.768   3.672  0.00  0.00    -0.008 C 
ATOM     18  C   UNL     1       1.148  -3.707   2.108  0.00  0.00    -0.008 C 
BRANCH  16  24
ATOM     19  C   UNL     1       0.932   2.275   0.460  0.00  0.00    +0.005 C 
ATOM     20  C   UNL     1       0.574   0.798   0.277  0.00  0.00    -0.031 C 
ATOM     21  C   UNL     1      -0.949   0.636   0.287  0.00  0.00    +0.003 C 
ATOM     22  C   UNL     1      -1.294  -0.852   0.182  0.00  0.00    -0.031 C 
ATOM     23  C   UNL     1      -0.623  -1.609   1.330  0.00  0.00    -0.075 C 
ATOM     24  N   UNL     1       0.833  -1.436   1.250  0.00  0.00    +0.384 N 
ATOM     25  C   UNL     1       1.177  -0.019   1.421  0.00  0.00    -0.075 C 
ATOM     26  C   UNL     1      -2.811  -1.032   0.269  0.00  0.00    +0.005 C 
ATOM     27  H   UNL     1       1.159  -1.753   0.349  0.00  0.00    -0.081 HD
ENDBRANCH  16  24
ENDBRANCH  15  16
ENDBRANCH   1  15
TORSDOF 4
