REMARK  Name = ZINC09210816
REMARK  10 active torsions:
REMARK  status: ('A' for Active; 'I' for Inactive)
REMARK    1  A    between atoms: C_1  and  O_2
REMARK    2  A    between atoms: O_2  and  C_3
REMARK    3  A    between atoms: C_7  and  C_9
REMARK    4  A    between atoms: C_16  and  N_33
REMARK    5  A    between atoms: C_17  and  C_31
REMARK    6  A    between atoms: C_18  and  C_20
REMARK    7  A    between atoms: C_22  and  O_29
REMARK    8  A    between atoms: C_23  and  O_27
REMARK    9  A    between atoms: O_27  and  C_28
REMARK   10  A    between atoms: O_29  and  C_30
REMARK                            x       y       z     vdW  Elec       q    Type
REMARK                         _______ _______ _______ _____ _____    ______ ____
ROOT
ATOM      1  C   UNL     1       1.560  -4.574  -2.336  0.00  0.00    +0.100 A 
ATOM      2  C   UNL     1       1.233  -5.109  -3.586  0.00  0.00    +0.054 A 
ATOM      3  C   UNL     1       1.266  -6.469  -3.486  0.00  0.00    +0.223 A 
ATOM      4  N   UNL     1       1.603  -6.779  -2.216  0.00  0.00    -0.246 N 
ATOM      5  H   UNL     1       1.704  -7.673  -1.855  0.00  0.00    +0.192 HD
ATOM      6  N   UNL     1       1.789  -5.579  -1.512  0.00  0.00    -0.171 NA
ATOM      7  O   UNL     1       0.990  -7.288  -4.532  0.00  0.00    -0.423 OA
ATOM      8  C   UNL     1       0.411  -6.739  -5.619  0.00  0.00    +0.200 C 
ATOM      9  C   UNL     1       0.330  -5.407  -5.836  0.00  0.00    +0.098 C 
ATOM     10  C   UNL     1       0.891  -4.395  -4.869  0.00  0.00    +0.103 C 
ENDROOT
BRANCH  10  11
ATOM     11  C   UNL     1       2.134  -3.772  -5.450  0.00  0.00    -0.017 A 
ATOM     12  C   UNL     1       3.260  -4.545  -5.660  0.00  0.00    +0.055 A 
ATOM     13  C   UNL     1       4.404  -3.974  -6.195  0.00  0.00    +0.162 A 
ATOM     14  C   UNL     1       4.415  -2.621  -6.520  0.00  0.00    +0.163 A 
ATOM     15  C   UNL     1       3.284  -1.851  -6.307  0.00  0.00    +0.065 A 
ATOM     16  C   UNL     1       2.144  -2.428  -5.777  0.00  0.00    +0.026 A 
ATOM     17 BR   UNL     1       0.598  -1.377  -5.494  0.00  0.00    -0.050 Br
BRANCH  14  18
ATOM     18  O   UNL     1       5.536  -2.056  -7.045  0.00  0.00    -0.491 OA
ATOM     19  C   UNL     1       5.475  -0.662  -7.354  0.00  0.00    +0.277 C 
ENDBRANCH  14  18
BRANCH  13  20
ATOM     20  O   UNL     1       5.512  -4.734  -6.402  0.00  0.00    -0.491 OA
ATOM     21  C   UNL     1       5.428  -6.115  -6.045  0.00  0.00    +0.277 C 
ENDBRANCH  13  20
ENDBRANCH  10  11
BRANCH   1  26
ATOM     22  C   UNL     1       2.770  -1.306  -0.916  0.00  0.00    +0.121 A 
ATOM     23  C   UNL     1       1.787  -0.436  -1.369  0.00  0.00    +0.045 A 
ATOM     24  C   UNL     1       0.737  -0.910  -2.132  0.00  0.00    +0.004 A 
ATOM     25  C   UNL     1       0.659  -2.252  -2.448  0.00  0.00    +0.010 A 
ATOM     26  C   UNL     1       1.641  -3.131  -1.998  0.00  0.00    +0.006 A 
ATOM     27  C   UNL     1       2.702  -2.652  -1.234  0.00  0.00    +0.055 A 
BRANCH  22  29
ATOM     28  C   UNL     1       3.807   0.564   0.123  0.00  0.00    +0.277 C 
ATOM     29  O   UNL     1       3.801  -0.835  -0.166  0.00  0.00    -0.495 OA
ENDBRANCH  22  29
ENDBRANCH   1  26
BRANCH   8  30
ATOM     30  N   UNL     1      -0.126  -7.581  -6.560  0.00  0.00    -0.328 N 
ATOM     31  H   UNL     1      -0.082  -8.542  -6.433  0.00  0.00    +0.145 HD
ATOM     32  H   UNL     1      -0.549  -7.216  -7.353  0.00  0.00    +0.145 HD
ENDBRANCH   8  30
BRANCH   9  33
ATOM     33  C   UNL     1      -0.313  -4.940  -7.027  0.00  0.00    +0.101 C 
ATOM     34  N   UNL     1      -0.823  -4.570  -7.972  0.00  0.00    -0.191 NA
ENDBRANCH   9  33
TORSDOF 7
