REMARK  Name = ZINC40812994
REMARK  12 active torsions:
REMARK  status: ('A' for Active; 'I' for Inactive)
REMARK    1  A    between atoms: C_1  and  C_2
REMARK    2  A    between atoms: C_6  and  C_7
REMARK    3  A    between atoms: N_9  and  C_10
REMARK    4  A    between atoms: C_10  and  C_11
REMARK    5  A    between atoms: C_11  and  C_12
REMARK    6  A    between atoms: C_15  and  O_20
REMARK    7  A    between atoms: C_16  and  O_18
REMARK    8  A    between atoms: O_18  and  C_19
REMARK    9  A    between atoms: O_20  and  C_21
REMARK   10  A    between atoms: N_26  and  N_27
REMARK   11  A    between atoms: C_28  and  C_30
REMARK   12  A    between atoms: C_34  and  N_36
REMARK                            x       y       z     vdW  Elec       q    Type
REMARK                         _______ _______ _______ _____ _____    ______ ____
ROOT
ATOM      1  C   UNL     1      -0.018   1.503   0.010  0.00  0.00    +0.048 C 
ATOM      2  C   UNL     1       0.002  -0.004   0.002  0.00  0.00    +0.009 A 
ATOM      3  C   UNL     1       0.009  -0.838  -1.123  0.00  0.00    +0.042 A 
ATOM      4  C   UNL     1       0.027  -2.138  -0.672  0.00  0.00    +0.115 A 
ATOM      5  O   UNL     1       0.035  -2.112   0.658  0.00  0.00    -0.454 OA
ATOM      6  C   UNL     1       0.024  -0.830   1.091  0.00  0.00    +0.193 A 
ATOM      7  C   UNL     1       0.033  -3.327  -1.599  0.00  0.00    +0.075 C 
ATOM      8  C   UNL     1      -0.491  -2.903  -2.974  0.00  0.00    +0.014 C 
ATOM      9  C   UNL     1       0.280  -1.685  -3.494  0.00  0.00    +0.058 C 
ATOM     10  C   UNL     1       0.000  -0.512  -2.566  0.00  0.00    +0.070 C 
ATOM     11  N   UNL     1      -0.228   0.686  -3.008  0.00  0.00    -0.184 NA
ENDROOT
BRANCH   6  12
ATOM     12  C   UNL     1       0.032  -0.399   2.493  0.00  0.00    +0.280 C 
ATOM     13  O   UNL     1       0.018   0.786   2.766  0.00  0.00    -0.267 OA
ATOM     14  N   UNL     1       0.054  -1.317   3.480  0.00  0.00    -0.309 N 
ATOM     15  H   UNL     1       0.065  -2.263   3.263  0.00  0.00    +0.149 HD
BRANCH  14  16
ATOM     16  C   UNL     1       0.061  -0.887   4.881  0.00  0.00    +0.109 C 
BRANCH  16  17
ATOM     17  C   UNL     1       0.087  -2.116   5.792  0.00  0.00    +0.054 C 
BRANCH  17  18
ATOM     18  C   UNL     1       0.095  -1.673   7.232  0.00  0.00    -0.042 A 
ATOM     19  C   UNL     1       1.297  -1.449   7.878  0.00  0.00    +0.007 A 
ATOM     20  C   UNL     1       1.309  -1.043   9.200  0.00  0.00    +0.049 A 
ATOM     21  C   UNL     1       0.115  -0.860   9.879  0.00  0.00    +0.161 A 
ATOM     22  C   UNL     1      -1.094  -1.085   9.229  0.00  0.00    +0.162 A 
ATOM     23  C   UNL     1      -1.099  -1.488   7.903  0.00  0.00    +0.053 A 
BRANCH  22  24
ATOM     24  O   UNL     1      -2.268  -0.907   9.892  0.00  0.00    -0.491 OA
ATOM     25  C   UNL     1      -3.470  -1.158   9.161  0.00  0.00    +0.277 C 
ENDBRANCH  22  24
BRANCH  21  26
ATOM     26  O   UNL     1       0.126  -0.461  11.179  0.00  0.00    -0.491 OA
ATOM     27  C   UNL     1       1.404  -0.248  11.783  0.00  0.00    +0.277 C 
ENDBRANCH  21  26
ENDBRANCH  17  18
ENDBRANCH  16  17
ENDBRANCH  14  16
ENDBRANCH   6  12
BRANCH  11  28
ATOM     28  N   UNL     1      -0.223   0.938  -4.386  0.00  0.00    -0.203 N 
ATOM     29  C   UNL     1      -0.460   2.183  -4.845  0.00  0.00    +0.263 C 
ATOM     30  O   UNL     1      -0.678   3.088  -4.062  0.00  0.00    -0.268 OA
ATOM     31  H   UNL     1      -0.050   0.216  -5.010  0.00  0.00    +0.178 HD
BRANCH  29  32
ATOM     32  C   UNL     1      -0.455   2.448  -6.299  0.00  0.00    +0.041 A 
ATOM     33  C   UNL     1      -0.211   1.410  -7.200  0.00  0.00    +0.013 A 
ATOM     34  C   UNL     1      -0.209   1.664  -8.556  0.00  0.00    +0.003 A 
ATOM     35  C   UNL     1      -0.447   2.945  -9.023  0.00  0.00    +0.033 A 
ATOM     36  C   UNL     1      -0.689   3.978  -8.135  0.00  0.00    +0.127 A 
ATOM     37  C   UNL     1      -0.700   3.736  -6.777  0.00  0.00    +0.045 A 
BRANCH  36  38
ATOM     38  N   UNL     1      -0.942   5.344  -8.644  0.00  0.00    +0.056 N 
ATOM     39  O   UNL     1      -0.937   5.557  -9.834  0.00  0.00    -0.126 OA
ATOM     40  O   UNL     1      -1.154   6.248  -7.870  0.00  0.00    -0.126 OA
ENDBRANCH  36  38
ENDBRANCH  29  32
ENDBRANCH  11  28
TORSDOF 9
