REMARK  Name = ZINC43211652
REMARK  9 active torsions:
REMARK  status: ('A' for Active; 'I' for Inactive)
REMARK    1  A    between atoms: C_1  and  C_2
REMARK    2  A    between atoms: C_2  and  C_3
REMARK    3  A    between atoms: C_3  and  C_4
REMARK    4  A    between atoms: C_4  and  C_5
REMARK    5  A    between atoms: C_5  and  C_36
REMARK    6  A    between atoms: C_10  and  C_13
REMARK    7  A    between atoms: C_17  and  C_19
REMARK    8  A    between atoms: N_25  and  C_28
REMARK    9  A    between atoms: C_31  and  C_35
REMARK                            x       y       z     vdW  Elec       q    Type
REMARK                         _______ _______ _______ _____ _____    ______ ____
ROOT
ATOM      1  C   UNL     1       1.489  -2.557  -2.474  0.00  0.00    +0.048 C 
ATOM      2  C   UNL     1       1.305  -4.078  -2.649  0.00  0.00    +0.086 C 
ATOM      3  C   UNL     1       0.089  -4.225  -3.603  0.00  0.00    +0.077 C 
ATOM      4  C   UNL     1      -0.357  -2.779  -3.902  0.00  0.00    -0.027 C 
ATOM      5  N   UNL     1       0.872  -1.960  -3.687  0.00  0.00    +0.395 N 
ATOM      6  C   UNL     1       0.691  -4.842  -4.845  0.00  0.00    +0.229 C 
ATOM      7  O   UNL     1       0.081  -5.128  -5.852  0.00  0.00    -0.275 OA
ATOM      8  N   UNL     1       2.004  -5.023  -4.659  0.00  0.00    -0.210 N 
ATOM      9  C   UNL     1       2.463  -4.632  -3.447  0.00  0.00    +0.229 C 
ATOM     10  O   UNL     1       3.610  -4.706  -3.059  0.00  0.00    -0.275 OA
ATOM     11  H   UNL     1       0.624  -0.997  -3.519  0.00  0.00    -0.083 HD
ATOM     12  H   UNL     1       1.499  -2.033  -4.474  0.00  0.00    -0.083 HD
ENDROOT
BRANCH   8  13
ATOM     13  C   UNL     1       2.839  -5.580  -5.637  0.00  0.00    +0.045 A 
ATOM     14  C   UNL     1       3.818  -4.802  -6.241  0.00  0.00    +0.024 A 
ATOM     15  C   UNL     1       4.640  -5.353  -7.204  0.00  0.00    +0.006 A 
ATOM     16  C   UNL     1       4.489  -6.678  -7.569  0.00  0.00    -0.032 A 
ATOM     17  C   UNL     1       3.514  -7.456  -6.970  0.00  0.00    +0.046 A 
ATOM     18  C   UNL     1       2.692  -6.911  -6.001  0.00  0.00    +0.044 A 
ATOM     19 CL   UNL     1       3.327  -9.120  -7.431  0.00  0.00    -0.083 Cl
ATOM     20  C   UNL     1       5.387  -7.276  -8.621  0.00  0.00    +0.045 C 
ENDBRANCH   8  13
BRANCH   4  21
ATOM     21  C   UNL     1      -0.810  -2.654  -5.334  0.00  0.00    -0.060 A 
ATOM     22  C   UNL     1       0.123  -2.533  -6.346  0.00  0.00    +0.002 A 
ATOM     23  C   UNL     1      -0.293  -2.419  -7.660  0.00  0.00    +0.001 A 
ATOM     24  C   UNL     1      -1.643  -2.427  -7.960  0.00  0.00    +0.012 A 
ATOM     25  C   UNL     1      -2.576  -2.549  -6.948  0.00  0.00    +0.055 A 
ATOM     26  C   UNL     1      -2.159  -2.667  -5.635  0.00  0.00    +0.014 A 
BRANCH  25  27
ATOM     27  C   UNL     1      -4.046  -2.557  -7.275  0.00  0.00    +0.417 C 
ATOM     28  F   UNL     1      -4.217  -2.429  -8.658  0.00  0.00    -0.166 F 
ATOM     29  F   UNL     1      -4.614  -3.761  -6.845  0.00  0.00    -0.166 F 
ATOM     30  F   UNL     1      -4.674  -1.488  -6.627  0.00  0.00    -0.166 F 
ENDBRANCH  25  27
ENDBRANCH   4  21
BRANCH   1  31
ATOM     31  C   UNL     1       2.954  -2.207  -2.405  0.00  0.00    +0.346 C 
ATOM     32  O   UNL     1       3.645  -2.654  -1.506  0.00  0.00    -0.248 OA
ATOM     33  O   UNL     1       3.447  -1.478  -3.249  0.00  0.00    -0.248 OA
ENDBRANCH   1  31
BRANCH   1  34
ATOM     34  C   UNL     1       0.767  -2.073  -1.216  0.00  0.00    -0.000 C 
BRANCH  34  35
ATOM     35  C   UNL     1       0.787  -0.543  -1.171  0.00  0.00    -0.001 C 
BRANCH  35  37
ATOM     36  C   UNL     1       0.086   1.470   0.132  0.00  0.00    +0.004 C 
ATOM     37  C   UNL     1       0.065  -0.060   0.087  0.00  0.00    -0.003 C 
ENDBRANCH  35  37
ENDBRANCH  34  35
ENDBRANCH   1  34
TORSDOF 7
