REMARK  Name = ZINC12798285
REMARK  7 active torsions:
REMARK  status: ('A' for Active; 'I' for Inactive)
REMARK    1  A    between atoms: C_4  and  C_7
REMARK    2  A    between atoms: C_7  and  N_8
REMARK    3  A    between atoms: C_9  and  N_35
REMARK    4  A    between atoms: C_10  and  N_17
REMARK    5  A    between atoms: N_17  and  C_18
REMARK    6  A    between atoms: C_18  and  C_19
REMARK    7  A    between atoms: C_25  and  C_27
REMARK                            x       y       z     vdW  Elec       q    Type
REMARK                         _______ _______ _______ _____ _____    ______ ____
ROOT
ATOM      1  N   UNL     1       5.391   1.773  -3.279  0.00  0.00    -0.276 N 
ATOM      2  C   UNL     1       5.049   0.843  -2.326  0.00  0.00    +0.128 A 
ATOM      3  C   UNL     1       3.894   0.105  -2.488  0.00  0.00    +0.140 A 
ATOM      4  C   UNL     1       3.094   0.336  -3.623  0.00  0.00    +0.277 A 
ATOM      5  O   UNL     1       2.066  -0.298  -3.789  0.00  0.00    -0.266 OA
ATOM      6  N   UNL     1       3.471   1.264  -4.524  0.00  0.00    -0.273 N 
ATOM      7  H   UNL     1       2.903   1.429  -5.331  0.00  0.00    +0.173 HD
ATOM      8  C   UNL     1       4.603   1.969  -4.352  0.00  0.00    +0.331 A 
ATOM      9  O   UNL     1       4.920   2.800  -5.181  0.00  0.00    -0.246 OA
ENDROOT
BRANCH   3  10
ATOM     10  N   UNL     1       3.519  -0.861  -1.531  0.00  0.00    -0.256 N 
ATOM     11  C   UNL     1       3.402  -2.155  -1.889  0.00  0.00    +0.253 C 
ATOM     12  O   UNL     1       3.169  -3.001  -1.046  0.00  0.00    -0.270 OA
BRANCH  11  13
ATOM     13  C   UNL     1       3.555  -2.546  -3.305  0.00  0.00    +0.056 A 
ATOM     14  C   UNL     1       4.432  -1.845  -4.135  0.00  0.00    +0.016 A 
ATOM     15  C   UNL     1       4.571  -2.214  -5.456  0.00  0.00    +0.021 A 
ATOM     16  C   UNL     1       3.843  -3.279  -5.961  0.00  0.00    +0.042 A 
ATOM     17  C   UNL     1       2.971  -3.979  -5.145  0.00  0.00    +0.040 A 
ATOM     18  C   UNL     1       2.828  -3.623  -3.818  0.00  0.00    +0.054 A 
ATOM     19 CL   UNL     1       1.740  -4.506  -2.793  0.00  0.00    -0.083 Cl
ATOM     20 CL   UNL     1       4.024  -3.738  -7.626  0.00  0.00    -0.083 Cl
ENDBRANCH  11  13
BRANCH  10  21
ATOM     21  C   UNL     1       3.258  -0.457  -0.147  0.00  0.00    +0.149 C 
BRANCH  21  22
ATOM     22  C   UNL     1       1.818  -0.035  -0.011  0.00  0.00    -0.030 A 
ATOM     23  C   UNL     1       0.866  -0.947   0.404  0.00  0.00    +0.005 A 
ATOM     24  C   UNL     1      -0.455  -0.559   0.529  0.00  0.00    +0.000 A 
ATOM     25  C   UNL     1      -0.824   0.741   0.239  0.00  0.00    +0.000 A 
ATOM     26  C   UNL     1       0.128   1.654  -0.175  0.00  0.00    +0.000 A 
ATOM     27  C   UNL     1       1.449   1.266  -0.300  0.00  0.00    +0.005 A 
ENDBRANCH  21  22
ENDBRANCH  10  21
ENDBRANCH   3  10
BRANCH   2  28
ATOM     28  N   UNL     1       5.851   0.646  -1.227  0.00  0.00    -0.343 N 
ATOM     29  H   UNL     1       5.659  -0.077  -0.610  0.00  0.00    +0.144 HD
ATOM     30  H   UNL     1       6.608   1.232  -1.068  0.00  0.00    +0.144 HD
ENDBRANCH   2  28
BRANCH   1  31
ATOM     31  C   UNL     1       6.617   2.560  -3.123  0.00  0.00    +0.163 C 
BRANCH  31  35
ATOM     32  C   UNL     1       5.749   6.132  -0.946  0.00  0.00    +0.000 A 
ATOM     33  C   UNL     1       6.123   4.984  -0.271  0.00  0.00    +0.000 A 
ATOM     34  C   UNL     1       6.404   3.829  -0.975  0.00  0.00    +0.005 A 
ATOM     35  C   UNL     1       6.310   3.820  -2.354  0.00  0.00    -0.028 A 
ATOM     36  C   UNL     1       5.941   4.968  -3.030  0.00  0.00    +0.005 A 
ATOM     37  C   UNL     1       5.656   6.123  -2.325  0.00  0.00    +0.000 A 
ENDBRANCH  31  35
ENDBRANCH   1  31
TORSDOF 7
