REMARK  Name = ZINC00933691
REMARK  14 active torsions:
REMARK  status: ('A' for Active; 'I' for Inactive)
REMARK    1  A    between atoms: C_1  and  O_2
REMARK    2  A    between atoms: O_2  and  C_3
REMARK    3  A    between atoms: C_5  and  C_13
REMARK    4  A    between atoms: C_7  and  O_11
REMARK    5  A    between atoms: C_8  and  O_9
REMARK    6  A    between atoms: O_9  and  C_10
REMARK    7  A    between atoms: O_11  and  C_12
REMARK    8  A    between atoms: C_13  and  N_14
REMARK    9  A    between atoms: N_14  and  C_15
REMARK   10  A    between atoms: N_14  and  S_21
REMARK   11  A    between atoms: C_15  and  C_16
REMARK   12  A    between atoms: S_21  and  C_24
REMARK   13  A    between atoms: C_27  and  S_30
REMARK   14  A    between atoms: S_30  and  N_33
REMARK                            x       y       z     vdW  Elec       q    Type
REMARK                         _______ _______ _______ _____ _____    ______ ____
ROOT
ATOM      1  N   UNL     1      -0.400   2.190   1.316  0.00  0.00    -0.167 NA
ENDROOT
BRANCH   1   2
ATOM      2  S   UNL     1       0.386   3.643   1.437  0.00  0.00    +0.061 S 
ATOM      3  O   UNL     1       0.307   4.035   2.800  0.00  0.00    -0.153 OA
ATOM      4  O   UNL     1       1.625   3.492   0.757  0.00  0.00    -0.153 OA
BRANCH   2   5
ATOM      5  C   UNL     1      -0.552   4.819   0.519  0.00  0.00    +0.106 A 
ATOM      6  C   UNL     1      -0.318   4.985  -0.834  0.00  0.00    +0.030 A 
ATOM      7  C   UNL     1      -1.056   5.905  -1.554  0.00  0.00    +0.030 A 
ATOM      8  C   UNL     1      -2.022   6.665  -0.921  0.00  0.00    +0.106 A 
ATOM      9  C   UNL     1      -2.252   6.502   0.432  0.00  0.00    +0.030 A 
ATOM     10  C   UNL     1      -1.517   5.580   1.152  0.00  0.00    +0.030 A 
BRANCH   8  11
ATOM     11  S   UNL     1      -2.960   7.841  -1.839  0.00  0.00    +0.061 S 
ATOM     12  O   UNL     1      -2.931   7.415  -3.194  0.00  0.00    -0.153 OA
ATOM     13  O   UNL     1      -4.175   8.036  -1.128  0.00  0.00    -0.153 OA
BRANCH  11  14
ATOM     14  N   UNL     1      -2.139   9.278  -1.777  0.00  0.00    -0.177 NA
ATOM     15  C   UNL     1      -2.404  10.245  -0.703  0.00  0.00    +0.109 C 
ATOM     16  C   UNL     1      -1.072  10.598  -0.025  0.00  0.00    +0.017 C 
ATOM     17  C   UNL     1      -0.081  11.089  -1.083  0.00  0.00    +0.003 C 
ATOM     18  C   UNL     1       0.177   9.974  -2.099  0.00  0.00    +0.017 C 
ATOM     19  C   UNL     1      -1.137   9.612  -2.798  0.00  0.00    +0.109 C 
ENDBRANCH  11  14
ENDBRANCH   8  11
ENDBRANCH   2   5
ENDBRANCH   1   2
BRANCH   1  20
ATOM     20  C   UNL     1       0.024   1.209   0.314  0.00  0.00    +0.145 C 
BRANCH  20  23
ATOM     21  C   UNL     1      -1.056   2.310  -3.136  0.00  0.00    +0.165 A 
ATOM     22  C   UNL     1      -0.305   2.146  -1.982  0.00  0.00    +0.054 A 
ATOM     23  C   UNL     1      -0.795   1.384  -0.938  0.00  0.00    -0.025 A 
ATOM     24  C   UNL     1      -2.033   0.778  -1.043  0.00  0.00    +0.054 A 
ATOM     25  C   UNL     1      -2.793   0.941  -2.191  0.00  0.00    +0.165 A 
ATOM     26  C   UNL     1      -2.303   1.706  -3.243  0.00  0.00    +0.204 A 
BRANCH  21  28
ATOM     27  C   UNL     1       0.767   3.544  -4.038  0.00  0.00    +0.277 C 
ATOM     28  O   UNL     1      -0.572   3.059  -4.163  0.00  0.00    -0.491 OA
ENDBRANCH  21  28
BRANCH  26  29
ATOM     29  O   UNL     1      -3.043   1.865  -4.374  0.00  0.00    -0.488 OA
ATOM     30  C   UNL     1      -2.852   0.904  -5.414  0.00  0.00    +0.277 C 
ENDBRANCH  26  29
BRANCH  25  31
ATOM     31  O   UNL     1      -4.013   0.349  -2.290  0.00  0.00    -0.491 OA
ATOM     32  C   UNL     1      -4.453  -0.422  -1.171  0.00  0.00    +0.277 C 
ENDBRANCH  25  31
ENDBRANCH  20  23
ENDBRANCH   1  20
BRANCH   1  33
ATOM     33  C   UNL     1      -1.518   1.885   2.212  0.00  0.00    +0.152 C 
BRANCH  33  34
ATOM     34  C   UNL     1      -1.033   1.018   3.345  0.00  0.00    +0.005 A 
ATOM     35  C   UNL     1      -0.534   1.387   4.550  0.00  0.00    +0.012 A 
ATOM     36  C   UNL     1      -0.150   0.407   5.446  0.00  0.00    +0.008 A 
ATOM     37  C   UNL     1      -0.274  -0.895   5.088  0.00  0.00    +0.045 A 
ATOM     38  S   UNL     1      -0.958  -0.763   3.445  0.00  0.00    -0.100 S 
ENDBRANCH  33  34
ENDBRANCH   1  33
TORSDOF 11
