REMARK  Name = ZINC67213476
REMARK  11 active torsions:
REMARK  status: ('A' for Active; 'I' for Inactive)
REMARK    1  A    between atoms: C_1  and  C_2
REMARK    2  A    between atoms: C_2  and  C_4
REMARK    3  A    between atoms: C_2  and  N_18
REMARK    4  A    between atoms: C_7  and  O_10
REMARK    5  A    between atoms: O_10  and  C_11
REMARK    6  A    between atoms: C_11  and  C_12
REMARK    7  A    between atoms: N_14  and  C_15
REMARK    8  A    between atoms: N_18  and  C_19
REMARK    9  A    between atoms: C_19  and  C_20
REMARK   10  A    between atoms: N_22  and  C_29
REMARK   11  A    between atoms: N_25  and  C_28
REMARK                            x       y       z     vdW  Elec       q    Type
REMARK                         _______ _______ _______ _____ _____    ______ ____
ROOT
ATOM      1  C   UNL     1      -0.019   1.526   0.010  0.00  0.00    -0.009 C 
ATOM      2  C   UNL     1       0.002  -0.004   0.002  0.00  0.00    -0.044 C 
ENDROOT
BRANCH   2   3
ATOM      3  C   UNL     1      -1.412  -0.526   0.013  0.00  0.00    -0.061 A 
ATOM      4  C   UNL     1      -2.140  -0.568  -1.161  0.00  0.00    +0.005 A 
ATOM      5  C   UNL     1      -3.437  -1.046  -1.154  0.00  0.00    +0.046 A 
ATOM      6  C   UNL     1      -4.007  -1.483   0.032  0.00  0.00    +0.121 A 
ATOM      7  C   UNL     1      -3.274  -1.439   1.209  0.00  0.00    +0.046 A 
ATOM      8  C   UNL     1      -1.976  -0.966   1.196  0.00  0.00    +0.005 A 
BRANCH   6   9
ATOM      9  O   UNL     1      -5.282  -1.952   0.042  0.00  0.00    -0.483 OA
BRANCH   9  10
ATOM     10  C   UNL     1      -5.805  -2.385   1.300  0.00  0.00    +0.324 C 
BRANCH  10  11
ATOM     11  C   UNL     1      -7.220  -2.869   1.116  0.00  0.00    +0.251 C 
ATOM     12  O   UNL     1      -7.731  -2.845   0.017  0.00  0.00    -0.272 OA
ATOM     13  N   UNL     1      -7.918  -3.329   2.174  0.00  0.00    -0.310 N 
ATOM     14  H   UNL     1      -7.509  -3.348   3.054  0.00  0.00    +0.149 HD
BRANCH  13  15
ATOM     15  C   UNL     1      -9.294  -3.799   1.996  0.00  0.00    +0.073 C 
ATOM     16  C   UNL     1     -10.329  -3.365   3.035  0.00  0.00    +0.024 C 
ATOM     17  C   UNL     1      -9.831  -4.811   3.009  0.00  0.00    +0.024 C 
ENDBRANCH  13  15
ENDBRANCH  10  11
ENDBRANCH   9  10
ENDBRANCH   6   9
ENDBRANCH   2   3
BRANCH   2  18
ATOM     18  N   UNL     1       0.690  -0.478  -1.207  0.00  0.00    +0.386 N 
ATOM     19  H   UNL     1       0.632  -1.484  -1.254  0.00  0.00    -0.085 HD
ATOM     20  H   UNL     1       0.251  -0.077  -2.022  0.00  0.00    -0.085 HD
BRANCH  18  21
ATOM     21  C   UNL     1       2.100  -0.070  -1.159  0.00  0.00    -0.039 C 
BRANCH  21  22
ATOM     22  C   UNL     1       2.806  -0.556  -2.399  0.00  0.00    +0.016 A 
ATOM     23  C   UNL     1       2.949   0.257  -3.467  0.00  0.00    +0.097 A 
ATOM     24  N   UNL     1       3.592  -0.201  -4.585  0.00  0.00    -0.303 N 
ATOM     25  C   UNL     1       4.082  -1.453  -4.630  0.00  0.00    +0.331 A 
ATOM     26  O   UNL     1       4.650  -1.839  -5.633  0.00  0.00    -0.246 OA
ATOM     27  N   UNL     1       3.954  -2.284  -3.579  0.00  0.00    -0.264 N 
ATOM     28  C   UNL     1       3.332  -1.869  -2.457  0.00  0.00    +0.258 A 
ATOM     29  O   UNL     1       3.219  -2.619  -1.504  0.00  0.00    -0.267 OA
ATOM     30  C   UNL     1       4.496  -3.643  -3.653  0.00  0.00    +0.157 C 
ATOM     31  C   UNL     1       3.748   0.681  -5.745  0.00  0.00    +0.153 C 
ENDBRANCH  21  22
ENDBRANCH  18  21
ENDBRANCH   2  18
TORSDOF 8
