REMARK  Name = ZINC01404659
REMARK  10 active torsions:
REMARK  status: ('A' for Active; 'I' for Inactive)
REMARK    1  A    between atoms: C_1  and  C_2
REMARK    2  A    between atoms: C_2  and  O_3
REMARK    3  A    between atoms: O_3  and  C_4
REMARK    4  A    between atoms: C_7  and  C_10
REMARK    5  A    between atoms: N_18  and  C_31
REMARK    6  A    between atoms: C_19  and  C_21
REMARK    7  A    between atoms: C_24  and  O_29
REMARK    8  A    between atoms: C_26  and  O_27
REMARK    9  A    between atoms: O_27  and  C_28
REMARK   10  A    between atoms: O_29  and  C_30
REMARK                            x       y       z     vdW  Elec       q    Type
REMARK                         _______ _______ _______ _____ _____    ______ ____
ROOT
ATOM      1  C   UNL     1       4.920   6.689   0.327  0.00  0.00    +0.099 A 
ATOM      2  C   UNL     1       3.961   5.684   0.160  0.00  0.00    +0.035 A 
ATOM      3  C   UNL     1       4.662   4.493   0.144  0.00  0.00    +0.127 A 
ATOM      4  N   UNL     1       5.978   4.825   0.298  0.00  0.00    -0.272 N 
ATOM      5  H   UNL     1       6.736   4.173   0.326  0.00  0.00    +0.189 HD
ATOM      6  N   UNL     1       6.098   6.101   0.401  0.00  0.00    -0.173 NA
ATOM      7  C   UNL     1       3.708   3.392  -0.025  0.00  0.00    +0.270 C 
ATOM      8  O   UNL     1       4.008   2.215  -0.075  0.00  0.00    -0.268 OA
ATOM      9  N   UNL     1       2.454   3.870  -0.120  0.00  0.00    -0.254 N 
ATOM     10  C   UNL     1       2.509   5.333  -0.010  0.00  0.00    +0.150 C 
ENDROOT
BRANCH   9  11
ATOM     11  C   UNL     1       1.296   3.104  -0.290  0.00  0.00    +0.038 A 
ATOM     12  C   UNL     1       1.384   1.720  -0.381  0.00  0.00    +0.024 A 
ATOM     13  C   UNL     1       0.239   0.967  -0.548  0.00  0.00    +0.017 A 
ATOM     14  C   UNL     1      -0.994   1.588  -0.631  0.00  0.00    +0.018 A 
ATOM     15  C   UNL     1      -1.085   2.966  -0.535  0.00  0.00    +0.017 A 
ATOM     16  C   UNL     1       0.056   3.724  -0.368  0.00  0.00    +0.024 A 
ATOM     17 BR   UNL     1      -2.559   0.553  -0.870  0.00  0.00    -0.050 Br
ENDBRANCH   9  11
BRANCH   1  21
ATOM     18  C   UNL     1       4.173  10.871   0.553  0.00  0.00    +0.121 A 
ATOM     19  C   UNL     1       5.126  10.291   1.380  0.00  0.00    +0.046 A 
ATOM     20  C   UNL     1       5.370   8.936   1.309  0.00  0.00    +0.013 A 
ATOM     21  C   UNL     1       4.660   8.148   0.406  0.00  0.00    +0.003 A 
ATOM     22  C   UNL     1       3.708   8.733  -0.427  0.00  0.00    +0.013 A 
ATOM     23  C   UNL     1       3.464  10.088  -0.348  0.00  0.00    +0.046 A 
BRANCH  18  24
ATOM     24  O   UNL     1       3.935  12.207   0.625  0.00  0.00    -0.492 OA
BRANCH  24  26
ATOM     25  C   UNL     1       2.814  14.245  -0.030  0.00  0.00    +0.048 C 
ATOM     26  C   UNL     1       2.942  12.737  -0.255  0.00  0.00    +0.225 C 
ENDBRANCH  24  26
ENDBRANCH  18  24
ENDBRANCH   1  21
BRANCH  10  27
ATOM     27  C   UNL     1       1.719   5.793   1.189  0.00  0.00    +0.020 A 
ATOM     28  C   UNL     1       0.849   6.860   1.075  0.00  0.00    +0.013 A 
ATOM     29  C   UNL     1       0.124   7.284   2.172  0.00  0.00    +0.046 A 
ATOM     30  C   UNL     1       0.268   6.637   3.392  0.00  0.00    +0.124 A 
ATOM     31  C   UNL     1       1.140   5.566   3.509  0.00  0.00    +0.091 A 
ATOM     32  C   UNL     1       1.863   5.140   2.405  0.00  0.00    +0.129 A 
BRANCH  32  33
ATOM     33  O   UNL     1       2.715   4.087   2.515  0.00  0.00    -0.495 OA
ATOM     34  C   UNL     1       2.738   3.400   3.768  0.00  0.00    +0.277 C 
ENDBRANCH  32  33
BRANCH  30  35
ATOM     35  O   UNL     1      -0.446   7.054   4.471  0.00  0.00    -0.495 OA
ATOM     36  C   UNL     1      -1.326   8.163   4.278  0.00  0.00    +0.277 C 
ENDBRANCH  30  35
ENDBRANCH  10  27
TORSDOF 7
