REMARK  Name = ZINC02310203
REMARK  11 active torsions:
REMARK  status: ('A' for Active; 'I' for Inactive)
REMARK    1  A    between atoms: C_1  and  C_2
REMARK    2  A    between atoms: C_5  and  C_7
REMARK    3  A    between atoms: C_9  and  C_35
REMARK    4  A    between atoms: C_10  and  S_19
REMARK    5  A    between atoms: S_19  and  C_20
REMARK    6  A    between atoms: C_20  and  C_21
REMARK    7  A    between atoms: N_23  and  C_24
REMARK    8  A    between atoms: C_26  and  O_33
REMARK    9  A    between atoms: C_29  and  O_30
REMARK   10  A    between atoms: O_30  and  C_31
REMARK   11  A    between atoms: O_33  and  C_34
REMARK                            x       y       z     vdW  Elec       q    Type
REMARK                         _______ _______ _______ _____ _____    ______ ____
ROOT
ATOM      1  C   UNL     1       1.686  -3.306  -0.019  0.00  0.00    +0.133 C 
ATOM      2  C   UNL     1       2.499  -3.262   1.262  0.00  0.00    +0.076 C 
ATOM      3  C   UNL     1       3.876  -3.190   1.137  0.00  0.00    +0.112 C 
ATOM      4  N   UNL     1       4.483  -3.159  -0.051  0.00  0.00    -0.244 NA
ATOM      5  C   UNL     1       3.884  -3.193  -1.215  0.00  0.00    +0.050 C 
ATOM      6  C   UNL     1       2.486  -3.263  -1.308  0.00  0.00    +0.032 C 
ATOM      7  C   UNL     1       1.853  -3.294  -2.491  0.00  0.00    +0.162 C 
ATOM      8  C   UNL     1       2.616  -3.255  -3.788  0.00  0.00    +0.080 C 
ATOM      9  C   UNL     1       3.920  -2.478  -3.584  0.00  0.00    +0.014 C 
ATOM     10  C   UNL     1       4.719  -3.152  -2.474  0.00  0.00    +0.056 C 
ATOM     11  O   UNL     1       0.507  -3.363  -2.519  0.00  0.00    -0.292 OA
ENDROOT
BRANCH   1  16
ATOM     12  C   UNL     1      -0.046   1.431  -0.012  0.00  0.00    +0.086 C 
ATOM     13  C   UNL     1      -0.017  -0.075  -0.012  0.00  0.00    +0.102 A 
ATOM     14  C   UNL     1      -1.092  -0.883  -0.007  0.00  0.00    +0.044 A 
ATOM     15  C   UNL     1      -0.606  -2.211  -0.009  0.00  0.00    +0.046 A 
ATOM     16  C   UNL     1       0.737  -2.135  -0.016  0.00  0.00    +0.118 A 
ATOM     17  O   UNL     1       1.088  -0.839  -0.023  0.00  0.00    -0.464 OA
ENDBRANCH   1  16
BRANCH   2  18
ATOM     18  C   UNL     1       1.867  -3.293   2.547  0.00  0.00    +0.099 C 
ATOM     19  N   UNL     1       1.366  -3.317   3.566  0.00  0.00    -0.191 NA
ENDBRANCH   2  18
BRANCH   3  20
ATOM     20  S   UNL     1       4.860  -3.135   2.597  0.00  0.00    -0.096 S 
BRANCH  20  21
ATOM     21  C   UNL     1       6.562  -3.047   1.976  0.00  0.00    +0.172 C 
BRANCH  21  22
ATOM     22  C   UNL     1       7.519  -2.995   3.139  0.00  0.00    +0.228 C 
ATOM     23  O   UNL     1       7.095  -3.015   4.275  0.00  0.00    -0.275 OA
ATOM     24  N   UNL     1       8.847  -2.925   2.917  0.00  0.00    -0.282 N 
ATOM     25  H   UNL     1       9.190  -2.974   2.011  0.00  0.00    +0.155 HD
BRANCH  24  26
ATOM     26  C   UNL     1       9.731  -2.783   3.994  0.00  0.00    +0.079 A 
ATOM     27  C   UNL     1       9.450  -3.391   5.209  0.00  0.00    +0.074 A 
ATOM     28  C   UNL     1      10.327  -3.248   6.273  0.00  0.00    +0.140 A 
ATOM     29  C   UNL     1      11.484  -2.497   6.125  0.00  0.00    +0.086 A 
ATOM     30  C   UNL     1      11.766  -1.889   4.915  0.00  0.00    +0.071 A 
ATOM     31  C   UNL     1      10.896  -2.034   3.846  0.00  0.00    +0.143 A 
ATOM     32 CL   UNL     1      12.579  -2.318   7.460  0.00  0.00    -0.080 Cl
BRANCH  31  33
ATOM     33  O   UNL     1      11.177  -1.441   2.654  0.00  0.00    -0.493 OA
ATOM     34  C   UNL     1      12.389  -0.688   2.574  0.00  0.00    +0.277 C 
ENDBRANCH  31  33
BRANCH  28  35
ATOM     35  O   UNL     1      10.052  -3.845   7.464  0.00  0.00    -0.494 OA
ATOM     36  C   UNL     1       8.844  -4.603   7.547  0.00  0.00    +0.277 C 
ENDBRANCH  28  35
ENDBRANCH  24  26
ENDBRANCH  21  22
ENDBRANCH  20  21
ENDBRANCH   3  20
TORSDOF 8
