REMARK  Name = ZINC39763184
REMARK  11 active torsions:
REMARK  status: ('A' for Active; 'I' for Inactive)
REMARK    1  A    between atoms: C_1  and  C_2
REMARK    2  A    between atoms: C_2  and  C_4
REMARK    3  A    between atoms: C_2  and  S_15
REMARK    4  A    between atoms: N_6  and  C_7
REMARK    5  A    between atoms: C_11  and  S_13
REMARK    6  A    between atoms: S_13  and  C_14
REMARK    7  A    between atoms: S_15  and  C_16
REMARK    8  A    between atoms: C_19  and  C_22
REMARK    9  A    between atoms: N_20  and  C_21
REMARK   10  A    between atoms: C_22  and  N_23
REMARK   11  A    between atoms: C_24  and  C_26
REMARK                            x       y       z     vdW  Elec       q    Type
REMARK                         _______ _______ _______ _____ _____    ______ ____
ROOT
ATOM      1  C   UNL     1      -0.136  -0.101   2.817  0.00  0.00    +0.192 A 
ATOM      2  N   UNL     1      -1.271   0.553   2.733  0.00  0.00    -0.122 NA
ATOM      3  N   UNL     1      -1.744   0.758   3.911  0.00  0.00    -0.132 NA
ATOM      4  C   UNL     1      -0.946   0.252   4.808  0.00  0.00    +0.151 A 
ATOM      5  N   UNL     1       0.104  -0.319   4.143  0.00  0.00    -0.308 N 
ATOM      6  C   UNL     1       1.250  -1.016   4.732  0.00  0.00    +0.152 C 
ENDROOT
BRANCH   1   7
ATOM      7  S   UNL     1       0.882  -0.608   1.471  0.00  0.00    -0.074 S 
BRANCH   7   9
ATOM      8  C   UNL     1      -0.032   1.519   0.015  0.00  0.00    +0.029 C 
ATOM      9  C   UNL     1      -0.000  -0.010   0.003  0.00  0.00    +0.137 C 
BRANCH   9  10
ATOM     10  C   UNL     1       0.708  -0.488  -1.238  0.00  0.00    +0.230 C 
ATOM     11  O   UNL     1       1.867  -0.839  -1.178  0.00  0.00    -0.274 OA
ATOM     12  N   UNL     1       0.053  -0.526  -2.415  0.00  0.00    -0.285 N 
ATOM     13  H   UNL     1      -0.892  -0.310  -2.452  0.00  0.00    +0.155 HD
BRANCH  12  14
ATOM     14  C   UNL     1       0.736  -0.877  -3.585  0.00  0.00    +0.034 A 
ATOM     15  C   UNL     1       0.405  -0.272  -4.792  0.00  0.00    +0.023 A 
ATOM     16  C   UNL     1       1.078  -0.618  -5.947  0.00  0.00    +0.003 A 
ATOM     17  C   UNL     1       2.082  -1.566  -5.908  0.00  0.00    +0.015 A 
ATOM     18  C   UNL     1       2.417  -2.176  -4.705  0.00  0.00    +0.009 A 
ATOM     19  C   UNL     1       1.747  -1.825  -3.541  0.00  0.00    +0.038 A 
BRANCH  18  20
ATOM     20  S   UNL     1       3.697  -3.386  -4.656  0.00  0.00    -0.129 S 
ATOM     21  C   UNL     1       4.264  -3.495  -6.376  0.00  0.00    +0.090 C 
ENDBRANCH  18  20
ENDBRANCH  12  14
ENDBRANCH   9  10
ENDBRANCH   7   9
ENDBRANCH   1   7
BRANCH   4  22
ATOM     22  C   UNL     1      -1.147   0.283   6.301  0.00  0.00    +0.181 C 
BRANCH  22  23
ATOM     23  N   UNL     1      -1.896  -0.904   6.718  0.00  0.00    -0.304 N 
ATOM     24  C   UNL     1      -2.195  -1.090   8.019  0.00  0.00    +0.244 C 
ATOM     25  O   UNL     1      -1.842  -0.272   8.847  0.00  0.00    -0.270 OA
ATOM     26  H   UNL     1      -2.178  -1.557   6.058  0.00  0.00    +0.149 HD
BRANCH  24  27
ATOM     27  C   UNL     1      -2.951  -2.288   8.440  0.00  0.00    +0.038 A 
ATOM     28  C   UNL     1      -3.353  -3.232   7.493  0.00  0.00    +0.014 A 
ATOM     29  C   UNL     1      -4.059  -4.348   7.891  0.00  0.00    +0.022 A 
ATOM     30  C   UNL     1      -4.370  -4.534   9.227  0.00  0.00    +0.059 A 
ATOM     31  C   UNL     1      -3.974  -3.601  10.173  0.00  0.00    +0.060 A 
ATOM     32  C   UNL     1      -3.262  -2.483   9.787  0.00  0.00    +0.034 A 
ATOM     33 CL   UNL     1      -4.368  -3.842  11.846  0.00  0.00    -0.082 Cl
ATOM     34 CL   UNL     1      -5.260  -5.940   9.720  0.00  0.00    -0.082 Cl
ENDBRANCH  24  27
ENDBRANCH  22  23
ENDBRANCH   4  22
TORSDOF 8
