REMARK  Name = ZINC02239369
REMARK  9 active torsions:
REMARK  status: ('A' for Active; 'I' for Inactive)
REMARK    1  A    between atoms: C_1  and  C_2
REMARK    2  A    between atoms: C_2  and  C_4
REMARK    3  A    between atoms: C_4  and  N_5
REMARK    4  A    between atoms: C_6  and  C_24
REMARK    5  A    between atoms: C_9  and  S_10
REMARK    6  A    between atoms: S_10  and  C_11
REMARK    7  A    between atoms: C_11  and  C_12
REMARK    8  A    between atoms: N_14  and  N_15
REMARK    9  A    between atoms: C_16  and  C_17
REMARK                            x       y       z     vdW  Elec       q    Type
REMARK                         _______ _______ _______ _____ _____    ______ ____
ROOT
ATOM      1  N   UNL     1      -1.056   2.354   0.480  0.00  0.00    -0.298 N 
ATOM      2  C   UNL     1      -0.020   1.490   0.209  0.00  0.00    +0.165 A 
ATOM      3  N   UNL     1       0.948   2.203  -0.318  0.00  0.00    -0.128 NA
ATOM      4  N   UNL     1       0.596   3.437  -0.389  0.00  0.00    -0.122 NA
ATOM      5  C   UNL     1      -0.620   3.588   0.088  0.00  0.00    +0.193 A 
ENDROOT
BRANCH   2   6
ATOM      6  C   UNL     1      -0.004   0.033   0.457  0.00  0.00    +0.019 A 
ATOM      7  C   UNL     1       1.185  -0.602   0.822  0.00  0.00    +0.012 A 
ATOM      8  C   UNL     1       1.193  -1.961   1.058  0.00  0.00    +0.016 A 
ATOM      9  C   UNL     1       0.028  -2.697   0.923  0.00  0.00    +0.018 A 
ATOM     10  C   UNL     1      -1.153  -2.074   0.556  0.00  0.00    +0.016 A 
ATOM     11  C   UNL     1      -1.175  -0.714   0.323  0.00  0.00    +0.012 A 
ATOM     12 BR   UNL     1       0.050  -4.561   1.240  0.00  0.00    -0.050 Br
ENDBRANCH   2   6
BRANCH   1  13
ATOM     13  C   UNL     1      -2.355   2.021   1.069  0.00  0.00    +0.155 C 
BRANCH  13  15
ATOM     14  C   UNL     1      -1.760   0.773   3.283  0.00  0.00    +0.040 C 
ATOM     15  C   UNL     1      -2.238   2.012   2.572  0.00  0.00    -0.060 C 
ATOM     16  C   UNL     1      -2.552   3.082   3.259  0.00  0.00    +0.009 C 
ENDBRANCH  13  15
ENDBRANCH   1  13
BRANCH   5  17
ATOM     17  S   UNL     1      -1.521   5.098   0.196  0.00  0.00    -0.077 S 
BRANCH  17  18
ATOM     18  C   UNL     1      -0.305   6.240  -0.508  0.00  0.00    +0.174 C 
BRANCH  18  19
ATOM     19  C   UNL     1      -0.874   7.635  -0.518  0.00  0.00    +0.242 C 
ATOM     20  O   UNL     1      -1.991   7.838  -0.091  0.00  0.00    -0.273 OA
ATOM     21  N   UNL     1      -0.141   8.658  -1.001  0.00  0.00    -0.206 N 
ATOM     22  H   UNL     1       0.872   8.474  -1.389  0.00  0.00    +0.177 HD
BRANCH  21  23
ATOM     23  N   UNL     1      -0.670   9.956  -1.010  0.00  0.00    -0.188 NA
ATOM     24  C   UNL     1       0.035  10.940  -1.476  0.00  0.00    +0.138 C 
BRANCH  24  25
ATOM     25  C   UNL     1      -0.521  12.306  -1.485  0.00  0.00    -0.004 A 
ATOM     26  C   UNL     1       0.236  13.369  -1.985  0.00  0.00    +0.009 A 
ATOM     27  C   UNL     1      -0.291  14.643  -1.992  0.00  0.00    +0.002 A 
ATOM     28  C   UNL     1      -1.566  14.872  -1.505  0.00  0.00    +0.015 A 
ATOM     29  C   UNL     1      -2.322  13.824  -1.008  0.00  0.00    +0.018 A 
ATOM     30  C   UNL     1      -1.809  12.542  -1.000  0.00  0.00    +0.024 A 
ATOM     31 BR   UNL     1      -4.063  14.148  -0.346  0.00  0.00    -0.050 Br
ENDBRANCH  24  25
ENDBRANCH  21  23
ENDBRANCH  18  19
ENDBRANCH  17  18
ENDBRANCH   5  17
TORSDOF 8
