REMARK  Name = ZINC20833475
REMARK  2 active torsions:
REMARK  status: ('A' for Active; 'I' for Inactive)
REMARK    1  A    between atoms: N_13  and  C_17
REMARK    2  A    between atoms: C_17  and  C_18
REMARK                            x       y       z     vdW  Elec       q    Type
REMARK                         _______ _______ _______ _____ _____    ______ ____
ROOT
ATOM      1  C   UNL     1      -2.128   1.462   3.620  0.00  0.00    +0.001 A 
ATOM      2  C   UNL     1      -3.510   1.440   3.572  0.00  0.00    +0.004 A 
ATOM      3  C   UNL     1      -4.161   1.631   2.370  0.00  0.00    +0.046 A 
ATOM      4  C   UNL     1      -3.432   1.844   1.205  0.00  0.00    +0.126 A 
ATOM      5  C   UNL     1      -2.047   1.870   1.257  0.00  0.00    +0.027 A 
ATOM      6  C   UNL     1      -1.401   1.677   2.466  0.00  0.00    +0.010 A 
ATOM      7  C   UNL     1      -1.229   2.107   0.018  0.00  0.00    +0.144 C 
ATOM      8  C   UNL     1      -2.069   1.881  -1.235  0.00  0.00    +0.081 C 
ATOM      9  C   UNL     1      -3.406   2.614  -1.058  0.00  0.00    +0.232 C 
ATOM     10  O   UNL     1      -4.104   2.022   0.039  0.00  0.00    -0.492 OA
ATOM     11  C   UNL     1      -0.014   1.208   0.009  0.00  0.00    +0.252 C 
ATOM     12  O   UNL     1       0.002  -0.004   0.002  0.00  0.00    -0.272 OA
ATOM     13  N   UNL     1       1.048   2.040   0.003  0.00  0.00    -0.220 N 
ATOM     14  C   UNL     1       0.670   3.324   0.014  0.00  0.00    +0.310 C 
ATOM     15  O   UNL     1       1.447   4.258   0.012  0.00  0.00    -0.252 OA
ATOM     16  N   UNL     1      -0.670   3.464   0.027  0.00  0.00    -0.281 N 
ATOM     17  H   UNL     1      -1.341   4.335   0.042  0.00  0.00    +0.152 HD
ENDROOT
BRANCH  13  18
ATOM     18  C   UNL     1       2.443   1.593  -0.012  0.00  0.00    +0.153 C 
BRANCH  18  19
ATOM     19  C   UNL     1       2.908   1.447  -1.438  0.00  0.00    -0.029 A 
ATOM     20  C   UNL     1       2.761   0.238  -2.092  0.00  0.00    +0.008 A 
ATOM     21  C   UNL     1       3.183   0.104  -3.402  0.00  0.00    +0.038 A 
ATOM     22  C   UNL     1       3.763   1.179  -4.055  0.00  0.00    +0.123 A 
ATOM     23  C   UNL     1       3.914   2.388  -3.397  0.00  0.00    +0.038 A 
ATOM     24  C   UNL     1       3.487   2.520  -2.090  0.00  0.00    +0.008 A 
ATOM     25  F   UNL     1       4.179   1.048  -5.333  0.00  0.00    -0.205 F 
ENDBRANCH  18  19
ENDBRANCH  13  18
TORSDOF 2
