REMARK  Name = ZINC38564007
REMARK  10 active torsions:
REMARK  status: ('A' for Active; 'I' for Inactive)
REMARK    1  A    between atoms: C_1  and  O_2
REMARK    2  A    between atoms: O_2  and  C_3
REMARK    3  A    between atoms: C_5  and  C_13
REMARK    4  A    between atoms: C_7  and  O_11
REMARK    5  A    between atoms: C_8  and  O_9
REMARK    6  A    between atoms: O_9  and  C_10
REMARK    7  A    between atoms: O_11  and  C_12
REMARK    8  A    between atoms: C_15  and  C_27
REMARK    9  A    between atoms: N_29  and  C_30
REMARK   10  A    between atoms: C_30  and  C_31
REMARK                            x       y       z     vdW  Elec       q    Type
REMARK                         _______ _______ _______ _____ _____    ______ ____
ROOT
ATOM      1  C   UNL     1       2.392   0.345  -4.213  0.00  0.00    +0.076 C 
ATOM      2  N   UNL     1       2.271   1.654  -4.202  0.00  0.00    -0.244 NA
ATOM      3  C   UNL     1       2.901   2.478  -5.051  0.00  0.00    +0.126 C 
ATOM      4  C   UNL     1       3.968   2.034  -5.837  0.00  0.00    +0.039 C 
ATOM      5  C   UNL     1       4.196   0.666  -5.836  0.00  0.00    -0.008 C 
ATOM      6  C   UNL     1       5.260  -0.129  -6.172  0.00  0.00    +0.004 A 
ATOM      7  C   UNL     1       6.447   0.132  -6.893  0.00  0.00    +0.010 A 
ATOM      8  C   UNL     1       7.340  -0.894  -7.005  0.00  0.00    +0.001 A 
ATOM      9  C   UNL     1       7.131  -2.156  -6.449  0.00  0.00    +0.002 A 
ATOM     10  C   UNL     1       6.007  -2.497  -5.760  0.00  0.00    +0.026 A 
ATOM     11  C   UNL     1       5.013  -1.489  -5.615  0.00  0.00    +0.044 A 
ATOM     12  N   UNL     1       3.825  -1.554  -5.063  0.00  0.00    -0.372 N 
ATOM     13  C   UNL     1       3.151  -0.304  -5.315  0.00  0.00    +0.160 C 
ATOM     14  H   UNL     1       3.466  -2.309  -4.570  0.00  0.00    +0.161 HD
ENDROOT
BRANCH   1  17
ATOM     15  C   UNL     1       1.012  -0.674  -0.879  0.00  0.00    +0.166 A 
ATOM     16  C   UNL     1       1.577   0.092  -1.879  0.00  0.00    +0.059 A 
ATOM     17  C   UNL     1       1.793  -0.465  -3.147  0.00  0.00    +0.006 A 
ATOM     18  C   UNL     1       1.433  -1.797  -3.395  0.00  0.00    +0.059 A 
ATOM     19  C   UNL     1       0.869  -2.555  -2.389  0.00  0.00    +0.166 A 
ATOM     20  C   UNL     1       0.661  -2.000  -1.127  0.00  0.00    +0.204 A 
BRANCH  15  22
ATOM     21  C   UNL     1       1.185   1.228   0.538  0.00  0.00    +0.277 C 
ATOM     22  O   UNL     1       0.802  -0.136   0.352  0.00  0.00    -0.491 OA
ENDBRANCH  15  22
BRANCH  20  23
ATOM     23  O   UNL     1       0.110  -2.752  -0.139  0.00  0.00    -0.488 OA
ATOM     24  C   UNL     1      -1.315  -2.735  -0.029  0.00  0.00    +0.277 C 
ENDBRANCH  20  23
BRANCH  19  25
ATOM     25  O   UNL     1       0.519  -3.848  -2.628  0.00  0.00    -0.491 OA
ATOM     26  C   UNL     1       0.765  -4.354  -3.942  0.00  0.00    +0.277 C 
ENDBRANCH  19  25
ENDBRANCH   1  17
BRANCH   3  27
ATOM     27  C   UNL     1       2.458   3.886  -5.160  0.00  0.00    +0.262 C 
ATOM     28  O   UNL     1       3.022   4.644  -5.926  0.00  0.00    -0.269 OA
ATOM     29  N   UNL     1       1.430   4.329  -4.409  0.00  0.00    -0.308 N 
ATOM     30  H   UNL     1       0.981   3.724  -3.797  0.00  0.00    +0.149 HD
BRANCH  29  31
ATOM     31  C   UNL     1       0.992   5.723  -4.516  0.00  0.00    +0.136 C 
BRANCH  31  32
ATOM     32  C   UNL     1      -0.182   5.962  -3.564  0.00  0.00    +0.135 C 
ATOM     33  C   UNL     1      -0.684   7.423  -3.687  0.00  0.00    +0.035 C 
ATOM     34  C   UNL     1      -2.154   7.271  -3.207  0.00  0.00    +0.031 C 
ATOM     35  C   UNL     1      -2.524   5.865  -3.725  0.00  0.00    +0.160 C 
ATOM     36  O   UNL     1      -1.302   5.145  -3.939  0.00  0.00    -0.375 OA
ENDBRANCH  31  32
ENDBRANCH  29  31
ENDBRANCH   3  27
TORSDOF 7
