REMARK  Name = ZINC60319253
REMARK  6 active torsions:
REMARK  status: ('A' for Active; 'I' for Inactive)
REMARK    1  A    between atoms: C_1  and  C_2
REMARK    2  A    between atoms: C_2  and  C_3
REMARK    3  A    between atoms: C_2  and  N_4
REMARK    4  A    between atoms: C_8  and  C_11
REMARK    5  A    between atoms: C_11  and  N_12
REMARK    6  A    between atoms: C_13  and  C_15
REMARK                            x       y       z     vdW  Elec       q    Type
REMARK                         _______ _______ _______ _____ _____    ______ ____
ROOT
ATOM      1  N   UNL     1      -5.701  -0.320  -2.271  0.00  0.00    -0.311 N 
ATOM      2  C   UNL     1      -6.550   0.029  -3.257  0.00  0.00    +0.244 C 
ATOM      3  O   UNL     1      -6.137   0.628  -4.231  0.00  0.00    -0.270 OA
ATOM      4  H   UNL     1      -6.030  -0.798  -1.494  0.00  0.00    +0.149 HD
ENDROOT
BRANCH   2   5
ATOM      5  C   UNL     1      -7.982  -0.316  -3.155  0.00  0.00    +0.041 A 
ATOM      6  C   UNL     1      -8.863   0.040  -4.179  0.00  0.00    +0.062 A 
ATOM      7  C   UNL     1     -10.203  -0.285  -4.081  0.00  0.00    +0.164 A 
ATOM      8  C   UNL     1     -10.674  -0.968  -2.962  0.00  0.00    +0.176 A 
ATOM      9  C   UNL     1      -9.797  -1.320  -1.942  0.00  0.00    +0.064 A 
ATOM     10  C   UNL     1      -8.459  -1.004  -2.037  0.00  0.00    +0.032 A 
ATOM     11 BR   UNL     1     -10.441  -2.244  -0.423  0.00  0.00    -0.046 Br
ATOM     12  O   UNL     1     -11.987  -1.301  -2.854  0.00  0.00    -0.484 OA
ATOM     13  C   UNL     1     -12.901  -0.609  -3.711  0.00  0.00    +0.270 C 
ATOM     14  C   UNL     1     -12.315  -0.597  -5.130  0.00  0.00    +0.270 C 
ATOM     15  O   UNL     1     -11.050   0.072  -5.086  0.00  0.00    -0.485 OA
ENDBRANCH   2   5
BRANCH   1  16
ATOM     16  C   UNL     1      -4.280   0.022  -2.372  0.00  0.00    +0.106 C 
BRANCH  16  21
ATOM     17  N   UNL     1      -1.376  -0.512   0.012  0.00  0.00    +0.381 N 
ATOM     18  C   UNL     1      -1.355  -1.980   0.013  0.00  0.00    -0.078 C 
ATOM     19  C   UNL     1      -2.785  -2.515   0.106  0.00  0.00    -0.018 C 
ATOM     20  C   UNL     1      -3.590  -2.015  -1.097  0.00  0.00    +0.001 C 
ATOM     21  C   UNL     1      -3.543  -0.485  -1.130  0.00  0.00    -0.011 C 
ATOM     22  C   UNL     1      -2.085  -0.025  -1.177  0.00  0.00    -0.074 C 
ATOM     23  H   UNL     1      -1.848  -0.185   0.842  0.00  0.00    -0.081 HD
BRANCH  17  25
ATOM     24  C   UNL     1      -0.019   1.526   0.010  0.00  0.00    -0.014 C 
ATOM     25  C   UNL     1       0.002  -0.004   0.002  0.00  0.00    -0.075 C 
ATOM     26  C   UNL     1       0.742  -0.511   1.242  0.00  0.00    -0.014 C 
ENDBRANCH  17  25
ENDBRANCH  16  21
ENDBRANCH   1  16
TORSDOF 4
