REMARK  Name = ZINC25247873
REMARK  2 active torsions:
REMARK  status: ('A' for Active; 'I' for Inactive)
REMARK    1  A    between atoms: C_6  and  N_7
REMARK    2  A    between atoms: C_8  and  C_10
REMARK                            x       y       z     vdW  Elec       q    Type
REMARK                         _______ _______ _______ _____ _____    ______ ____
ROOT
ATOM      1  C   UNL     1       0.008  -0.000  -0.002  0.00  0.00    +0.027 A 
ATOM      2  C   UNL     1       1.216  -0.673  -0.024  0.00  0.00    +0.051 A 
ATOM      3  C   UNL     1       2.406   0.036  -0.041  0.00  0.00    +0.167 A 
ATOM      4  C   UNL     1       2.386   1.429  -0.035  0.00  0.00    +0.169 A 
ATOM      5  C   UNL     1       1.176   2.102  -0.012  0.00  0.00    +0.073 A 
ATOM      6  C   UNL     1      -0.015   1.388   0.004  0.00  0.00    +0.037 A 
ATOM      7  O   UNL     1       3.673   1.885  -0.055  0.00  0.00    -0.447 OA
ATOM      8  C   UNL     1       4.483   0.761   0.320  0.00  0.00    +0.254 C 
ATOM      9  O   UNL     1       3.707  -0.383  -0.067  0.00  0.00    -0.448 OA
ATOM     10  C   UNL     1       5.806   0.785  -0.439  0.00  0.00    +0.093 C 
ATOM     11  C   UNL     1       6.642  -0.436  -0.049  0.00  0.00    +0.008 C 
ATOM     12  C   UNL     1       6.899  -0.416   1.459  0.00  0.00    +0.000 C 
ATOM     13  C   UNL     1       5.565  -0.465   2.206  0.00  0.00    +0.008 C 
ATOM     14  C   UNL     1       4.724   0.757   1.825  0.00  0.00    +0.093 C 
ENDROOT
BRANCH   6  15
ATOM     15  N   UNL     1      -1.239   2.068   0.019  0.00  0.00    -0.279 N 
ATOM     16  C   UNL     1      -1.357   3.227   0.696  0.00  0.00    +0.286 C 
ATOM     17  O   UNL     1      -0.379   3.727   1.222  0.00  0.00    -0.266 OA
ATOM     18  H   UNL     1      -2.104   1.655  -0.521  0.00  0.00    +0.155 HD
BRANCH  16  19
ATOM     19  C   UNL     1      -2.660   3.886   0.797  0.00  0.00    +0.217 C 
ATOM     20  C   UNL     1      -3.725   3.322   0.212  0.00  0.00    +0.238 C 
ATOM     21  O   UNL     1      -4.949   3.890   0.268  0.00  0.00    -0.492 OA
ATOM     22  C   UNL     1      -5.149   4.893   1.272  0.00  0.00    +0.269 C 
ATOM     23  C   UNL     1      -3.939   5.839   1.248  0.00  0.00    +0.270 C 
ATOM     24  O   UNL     1      -2.762   5.055   1.489  0.00  0.00    -0.481 OA
ENDBRANCH  16  19
ENDBRANCH   6  15
TORSDOF 2
