REMARK  Name = ZINC34792992
REMARK  7 active torsions:
REMARK  status: ('A' for Active; 'I' for Inactive)
REMARK    1  A    between atoms: C_1  and  C_2
REMARK    2  A    between atoms: C_2  and  C_4
REMARK    3  A    between atoms: C_2  and  N_11
REMARK    4  A    between atoms: N_6  and  C_7
REMARK    5  A    between atoms: C_7  and  C_8
REMARK    6  A    between atoms: C_17  and  C_24
REMARK    7  A    between atoms: N_22  and  C_23
REMARK                            x       y       z     vdW  Elec       q    Type
REMARK                         _______ _______ _______ _____ _____    ______ ____
ROOT
ATOM      1  N   UNL     1       0.711  -0.489   1.189  0.00  0.00    -0.281 N 
ATOM      2  C   UNL     1       1.926  -1.317   1.202  0.00  0.00    +0.160 C 
ATOM      3  C   UNL     1       2.236  -1.530   2.666  0.00  0.00    +0.042 C 
ATOM      4  C   UNL     1       1.277  -0.879   3.356  0.00  0.00    +0.058 C 
ATOM      5  C   UNL     1       0.374  -0.256   2.470  0.00  0.00    +0.247 C 
ATOM      6  O   UNL     1      -0.587   0.404   2.820  0.00  0.00    -0.270 OA
ATOM      7  C   UNL     1       1.342  -0.926   4.869  0.00  0.00    +0.143 C 
ATOM      8  N   UNL     1       2.455  -1.685   5.465  0.00  0.00    -0.288 N 
ATOM      9  C   UNL     1       3.337  -2.284   4.641  0.00  0.00    +0.307 C 
ATOM     10  O   UNL     1       4.259  -2.914   5.124  0.00  0.00    -0.252 OA
ATOM     11  N   UNL     1       3.232  -2.210   3.308  0.00  0.00    -0.260 N 
ATOM     12  C   UNL     1       4.239  -2.895   2.494  0.00  0.00    +0.139 C 
ATOM     13  H   UNL     1       2.550  -1.752   6.428  0.00  0.00    +0.151 HD
ENDROOT
BRANCH   7  14
ATOM     14  C   UNL     1       1.424   0.491   5.375  0.00  0.00    -0.004 A 
ATOM     15  C   UNL     1       2.655   1.058   5.647  0.00  0.00    +0.007 A 
ATOM     16  C   UNL     1       2.729   2.358   6.111  0.00  0.00    +0.000 A 
ATOM     17  C   UNL     1       1.573   3.092   6.304  0.00  0.00    +0.001 A 
ATOM     18  C   UNL     1       0.342   2.526   6.032  0.00  0.00    +0.020 A 
ATOM     19  C   UNL     1       0.267   1.226   5.562  0.00  0.00    +0.046 A 
ATOM     20 CL   UNL     1      -1.279   0.517   5.214  0.00  0.00    -0.083 Cl
ENDBRANCH   7  14
BRANCH   1  22
ATOM     21  C   UNL     1      -0.019   1.526   0.010  0.00  0.00    +0.038 C 
ATOM     22  C   UNL     1       0.002  -0.004   0.002  0.00  0.00    +0.159 C 
BRANCH  22  23
ATOM     23  C   UNL     1      -1.412  -0.526   0.013  0.00  0.00    +0.233 C 
ATOM     24  O   UNL     1      -1.790  -1.233   0.922  0.00  0.00    -0.274 OA
ATOM     25  N   UNL     1      -2.256  -0.206  -0.988  0.00  0.00    -0.314 N 
ATOM     26  H   UNL     1      -1.953   0.360  -1.716  0.00  0.00    +0.149 HD
BRANCH  25  27
ATOM     27  C   UNL     1      -3.630  -0.713  -0.978  0.00  0.00    +0.107 C 
BRANCH  27  28
ATOM     28  C   UNL     1      -4.370  -0.206  -2.217  0.00  0.00    +0.006 C 
ATOM     29  C   UNL     1      -5.567   0.720  -1.996  0.00  0.00    +0.005 C 
ATOM     30  C   UNL     1      -5.791  -0.723  -2.452  0.00  0.00    +0.005 C 
ENDBRANCH  27  28
ENDBRANCH  25  27
ENDBRANCH  22  23
ENDBRANCH   1  22
TORSDOF 5
