REMARK  Name = ZINC35781244
REMARK  12 active torsions:
REMARK  status: ('A' for Active; 'I' for Inactive)
REMARK    1  A    between atoms: C_1  and  C_2
REMARK    2  A    between atoms: C_2  and  C_3
REMARK    3  A    between atoms: C_2  and  C_4
REMARK    4  A    between atoms: C_4  and  N_5
REMARK    5  A    between atoms: N_5  and  C_6
REMARK    6  A    between atoms: N_5  and  C_23
REMARK    7  A    between atoms: C_6  and  C_7
REMARK    8  A    between atoms: C_23  and  C_24
REMARK    9  A    between atoms: C_24  and  C_26
REMARK   10  A    between atoms: C_24  and  O_35
REMARK   11  A    between atoms: C_26  and  O_27
REMARK   12  A    between atoms: O_27  and  C_28
REMARK                            x       y       z     vdW  Elec       q    Type
REMARK                         _______ _______ _______ _____ _____    ______ ____
ROOT
ATOM      1  N   UNL     1       2.099   0.005  -1.271  0.00  0.00    +0.386 N 
ATOM      2  H   UNL     1       2.035   0.992  -1.069  0.00  0.00    -0.081 HD
ENDROOT
BRANCH   1   3
ATOM      3  C   UNL     1       0.749  -0.572  -1.325  0.00  0.00    -0.075 C 
BRANCH   3   5
ATOM      4  C   UNL     1      -0.219   1.276   0.050  0.00  0.00    +0.005 C 
ATOM      5  C   UNL     1      -0.002  -0.236  -0.035  0.00  0.00    -0.034 C 
ATOM      6  C   UNL     1      -1.356  -0.948  -0.033  0.00  0.00    +0.005 C 
ENDBRANCH   3   5
ENDBRANCH   1   3
BRANCH   1   7
ATOM      7  C   UNL     1       2.766  -0.188  -2.565  0.00  0.00    -0.003 C 
BRANCH   7   8
ATOM      8  C   UNL     1       2.039   0.597  -3.627  0.00  0.00    +0.094 A 
ATOM      9  N   UNL     1       2.486   0.557  -4.909  0.00  0.00    -0.312 N 
ATOM     10  H   UNL     1       3.267   0.023  -5.123  0.00  0.00    +0.170 HD
ATOM     11  C   UNL     1       1.868   1.243  -5.888  0.00  0.00    +0.260 A 
ATOM     12  O   UNL     1       2.281   1.197  -7.034  0.00  0.00    -0.267 OA
ATOM     13  C   UNL     1       0.714   2.028  -5.559  0.00  0.00    +0.075 A 
ATOM     14  C   UNL     1      -0.108   2.847  -6.455  0.00  0.00    -0.023 A 
ATOM     15  C   UNL     1      -1.148   3.500  -5.896  0.00  0.00    -0.004 A 
ATOM     16  S   UNL     1      -1.099   3.061  -4.177  0.00  0.00    -0.073 S 
ATOM     17  C   UNL     1       0.327   2.007  -4.212  0.00  0.00    +0.116 A 
ATOM     18  N   UNL     1       0.988   1.299  -3.299  0.00  0.00    -0.229 NA
ATOM     19  C   UNL     1      -2.129   4.411  -6.566  0.00  0.00    +0.043 C 
ATOM     20  C   UNL     1      -2.668   3.731  -7.831  0.00  0.00    +0.005 C 
ATOM     21  C   UNL     1      -1.757   4.096  -8.999  0.00  0.00    +0.001 C 
ATOM     22  C   UNL     1      -0.319   4.252  -8.511  0.00  0.00    +0.005 C 
ATOM     23  C   UNL     1       0.202   2.936  -7.947  0.00  0.00    +0.037 C 
ENDBRANCH   7   8
ENDBRANCH   1   7
BRANCH   1  24
ATOM     24  C   UNL     1       2.874  -0.661  -0.216  0.00  0.00    -0.043 C 
BRANCH  24  25
ATOM     25  C   UNL     1       4.227   0.037  -0.060  0.00  0.00    +0.135 C 
BRANCH  25  26
ATOM     26  O   UNL     1       4.019   1.404   0.302  0.00  0.00    -0.390 OA
ATOM     27  H   UNL     1       3.607   1.523   1.168  0.00  0.00    +0.210 HD
ENDBRANCH  25  26
BRANCH  25  28
ATOM     28  C   UNL     1       5.038  -0.662   1.033  0.00  0.00    +0.258 C 
BRANCH  28  29
ATOM     29  O   UNL     1       6.344  -0.086   1.099  0.00  0.00    -0.489 OA
BRANCH  29  30
ATOM     30  C   UNL     1       7.197  -0.597   2.026  0.00  0.00    +0.121 A 
ATOM     31  C   UNL     1       6.788  -1.635   2.850  0.00  0.00    +0.047 A 
ATOM     32  C   UNL     1       7.657  -2.152   3.791  0.00  0.00    +0.023 A 
ATOM     33  C   UNL     1       8.934  -1.636   3.912  0.00  0.00    +0.041 A 
ATOM     34  C   UNL     1       9.345  -0.600   3.091  0.00  0.00    +0.023 A 
ATOM     35  C   UNL     1       8.481  -0.084   2.145  0.00  0.00    +0.047 A 
ATOM     36 CL   UNL     1      10.024  -2.288   5.096  0.00  0.00    -0.084 Cl
ENDBRANCH  29  30
ENDBRANCH  28  29
ENDBRANCH  25  28
ENDBRANCH  24  25
ENDBRANCH   1  24
TORSDOF 10
