REMARK  Name = ZINC00683710
REMARK  9 active torsions:
REMARK  status: ('A' for Active; 'I' for Inactive)
REMARK    1  A    between atoms: C_1  and  C_2
REMARK    2  A    between atoms: C_2  and  O_3
REMARK    3  A    between atoms: O_3  and  C_4
REMARK    4  A    between atoms: C_6  and  C_12
REMARK    5  A    between atoms: C_9  and  O_10
REMARK    6  A    between atoms: C_14  and  C_21
REMARK    7  A    between atoms: C_15  and  C_20
REMARK    8  A    between atoms: C_21  and  O_23
REMARK    9  A    between atoms: O_23  and  C_24
REMARK                            x       y       z     vdW  Elec       q    Type
REMARK                         _______ _______ _______ _____ _____    ______ ____
ROOT
ATOM      1  C   UNL     1       1.290  -0.664  -0.259  0.00  0.00    +0.141 C 
ATOM      2  C   UNL     1       2.528   0.210  -0.235  0.00  0.00    +0.078 C 
ATOM      3  C   UNL     1       2.363   1.526   0.022  0.00  0.00    +0.019 C 
ATOM      4  N   UNL     1       1.124   2.049   0.254  0.00  0.00    -0.300 N 
ATOM      5  C   UNL     1      -0.002   1.324   0.245  0.00  0.00    +0.135 C 
ATOM      6  S   UNL     1      -1.494   2.108   0.544  0.00  0.00    -0.019 S 
ATOM      7  N   UNL     1       0.001  -0.002   0.003  0.00  0.00    -0.315 N 
ATOM      8  C   UNL     1       3.568   2.431   0.055  0.00  0.00    +0.061 C 
ATOM      9  H   UNL     1       1.055   2.999   0.434  0.00  0.00    +0.154 HD
ATOM     10  H   UNL     1      -0.826  -0.508   0.002  0.00  0.00    +0.149 HD
ENDROOT
BRANCH   1  13
ATOM     11  C   UNL     1       2.176  -3.972   1.337  0.00  0.00    +0.163 A 
ATOM     12  C   UNL     1       2.005  -2.972   0.394  0.00  0.00    +0.055 A 
ATOM     13  C   UNL     1       1.470  -1.753   0.768  0.00  0.00    -0.018 A 
ATOM     14  C   UNL     1       1.096  -1.532   2.080  0.00  0.00    +0.024 A 
ATOM     15  C   UNL     1       1.258  -2.528   3.026  0.00  0.00    +0.059 A 
ATOM     16  C   UNL     1       1.798  -3.751   2.658  0.00  0.00    +0.172 A 
ATOM     17  I   UNL     1       0.690  -2.189   5.013  0.00  0.00    -0.040 I 
BRANCH  16  18
ATOM     18  O   UNL     1       1.960  -4.731   3.587  0.00  0.00    -0.503 OA
ATOM     19  H   UNL     1       1.196  -5.319   3.675  0.00  0.00    +0.292 HD
ENDBRANCH  16  18
BRANCH  11  20
ATOM     20  O   UNL     1       2.706  -5.170   0.972  0.00  0.00    -0.489 OA
BRANCH  20  22
ATOM     21  C   UNL     1       3.644  -6.728  -0.620  0.00  0.00    +0.048 C 
ATOM     22  C   UNL     1       3.070  -5.327  -0.401  0.00  0.00    +0.226 C 
ENDBRANCH  20  22
ENDBRANCH  11  20
ENDBRANCH   1  13
BRANCH   2  23
ATOM     23  C   UNL     1       3.811  -0.334  -0.475  0.00  0.00    +0.338 C 
ATOM     24  O   UNL     1       4.777   0.402  -0.563  0.00  0.00    -0.245 OA
BRANCH  23  25
ATOM     25  O   UNL     1       3.965  -1.668  -0.608  0.00  0.00    -0.465 OA
ATOM     26  C   UNL     1       5.290  -2.147  -0.849  0.00  0.00    +0.280 C 
ENDBRANCH  23  25
ENDBRANCH   2  23
TORSDOF 6
