REMARK  Name = ZINC01213223
REMARK  11 active torsions:
REMARK  status: ('A' for Active; 'I' for Inactive)
REMARK    1  A    between atoms: C_1  and  C_2
REMARK    2  A    between atoms: C_3  and  C_26
REMARK    3  A    between atoms: C_4  and  C_16
REMARK    4  A    between atoms: C_10  and  C_14
REMARK    5  A    between atoms: C_10  and  C_15
REMARK    6  A    between atoms: C_18  and  N_23
REMARK    7  A    between atoms: C_26  and  O_28
REMARK    8  A    between atoms: O_28  and  C_29
REMARK    9  A    between atoms: C_29  and  C_30
REMARK   10  A    between atoms: C_33  and  O_36
REMARK   11  A    between atoms: O_36  and  C_37
REMARK                            x       y       z     vdW  Elec       q    Type
REMARK                         _______ _______ _______ _____ _____    ______ ____
ROOT
ATOM      1  C   UNL     1       3.762  -0.355  -0.772  0.00  0.00    +0.061 C 
ATOM      2  C   UNL     1       2.432   0.235  -0.380  0.00  0.00    +0.016 C 
ATOM      3  C   UNL     1       1.299  -0.444  -0.633  0.00  0.00    +0.065 C 
ATOM      4  C   UNL     1      -0.042   0.108  -0.249  0.00  0.00    +0.094 C 
ATOM      5  C   UNL     1       0.038   1.591   0.012  0.00  0.00    +0.024 C 
ATOM      6  C   UNL     1       1.227   2.188   0.237  0.00  0.00    +0.016 C 
ATOM      7  N   UNL     1       2.384   1.456   0.232  0.00  0.00    -0.321 N 
ATOM      8  C   UNL     1       1.315   3.672   0.494  0.00  0.00    +0.058 C 
ATOM      9  C   UNL     1       0.037   4.152   1.185  0.00  0.00    -0.023 C 
ATOM     10  C   UNL     1      -1.158   3.810   0.288  0.00  0.00    +0.086 C 
ATOM     11  C   UNL     1      -1.159   2.330   0.021  0.00  0.00    +0.162 C 
ATOM     12  O   UNL     1      -2.211   1.763  -0.195  0.00  0.00    -0.292 OA
ATOM     13  C   UNL     1      -0.115   3.445   2.534  0.00  0.00    +0.011 C 
ATOM     14  C   UNL     1       0.106   5.664   1.403  0.00  0.00    +0.011 C 
ATOM     15  H   UNL     1       3.281   1.859   0.725  0.00  0.00    +0.152 HD
ENDROOT
BRANCH   4  16
ATOM     16  C   UNL     1      -0.525  -0.589   0.997  0.00  0.00    -0.015 A 
ATOM     17  C   UNL     1       0.201  -0.490   2.169  0.00  0.00    +0.038 A 
ATOM     18  C   UNL     1      -0.241  -1.129   3.312  0.00  0.00    +0.127 A 
ATOM     19  C   UNL     1      -1.411  -1.866   3.284  0.00  0.00    +0.034 A 
ATOM     20  C   UNL     1      -2.137  -1.965   2.113  0.00  0.00    +0.022 A 
ATOM     21  C   UNL     1      -1.697  -1.322   0.970  0.00  0.00    +0.045 A 
ATOM     22 CL   UNL     1      -2.613  -1.440  -0.500  0.00  0.00    -0.083 Cl
BRANCH  18  23
ATOM     23  N   UNL     1       0.537  -1.023   4.567  0.00  0.00    +0.056 N 
ATOM     24  O   UNL     1       1.567  -0.374   4.592  0.00  0.00    -0.126 OA
ATOM     25  O   UNL     1       0.147  -1.586   5.574  0.00  0.00    -0.126 OA
ENDBRANCH  18  23
ENDBRANCH   4  16
BRANCH   3  26
ATOM     26  C   UNL     1       1.374  -1.703  -1.274  0.00  0.00    +0.338 C 
ATOM     27  O   UNL     1       2.439  -2.107  -1.700  0.00  0.00    -0.245 OA
BRANCH  26  28
ATOM     28  O   UNL     1       0.262  -2.456  -1.413  0.00  0.00    -0.457 OA
BRANCH  28  29
ATOM     29  C   UNL     1       0.411  -3.716  -2.070  0.00  0.00    +0.268 C 
BRANCH  29  30
ATOM     30  C   UNL     1      -0.925  -4.411  -2.132  0.00  0.00    -0.010 A 
ATOM     31  C   UNL     1      -1.312  -5.257  -1.109  0.00  0.00    +0.010 A 
ATOM     32  C   UNL     1      -2.538  -5.890  -1.161  0.00  0.00    +0.046 A 
ATOM     33  C   UNL     1      -3.378  -5.686  -2.246  0.00  0.00    +0.120 A 
ATOM     34  C   UNL     1      -2.985  -4.841  -3.274  0.00  0.00    +0.046 A 
ATOM     35  C   UNL     1      -1.760  -4.205  -3.215  0.00  0.00    +0.010 A 
BRANCH  33  36
ATOM     36  O   UNL     1      -4.583  -6.312  -2.302  0.00  0.00    -0.495 OA
ATOM     37  C   UNL     1      -4.921  -7.167  -1.208  0.00  0.00    +0.277 C 
ENDBRANCH  33  36
ENDBRANCH  29  30
ENDBRANCH  28  29
ENDBRANCH  26  28
ENDBRANCH   3  26
TORSDOF 7
