REMARK  Name = ZINC20556165
REMARK  4 active torsions:
REMARK  status: ('A' for Active; 'I' for Inactive)
REMARK    1  A    between atoms: C_10  and  C_27
REMARK    2  A    between atoms: N_16  and  C_19
REMARK    3  A    between atoms: C_19  and  C_20
REMARK    4  A    between atoms: C_20  and  N_21
REMARK                            x       y       z     vdW  Elec       q    Type
REMARK                         _______ _______ _______ _____ _____    ______ ____
ROOT
ATOM      1  C   UNL     1       2.990  -1.114   4.813  0.00  0.00    +0.002 A 
ATOM      2  C   UNL     1       2.240  -1.629   3.770  0.00  0.00    +0.002 A 
ATOM      3  C   UNL     1       2.175  -1.007   2.534  0.00  0.00    +0.028 A 
ATOM      4  C   UNL     1       2.901   0.168   2.375  0.00  0.00    +0.072 A 
ATOM      5  C   UNL     1       3.675   0.697   3.441  0.00  0.00    +0.091 A 
ATOM      6  C   UNL     1       3.723   0.052   4.681  0.00  0.00    +0.030 A 
ATOM      7  N   UNL     1       4.263   1.826   2.992  0.00  0.00    -0.214 NA
ATOM      8  C   UNL     1       3.928   2.024   1.754  0.00  0.00    +0.209 A 
ATOM      9  N   UNL     1       3.060   1.028   1.334  0.00  0.00    -0.284 N 
ATOM     10  C   UNL     1       2.490   1.047  -0.016  0.00  0.00    +0.241 C 
ATOM     11  N   UNL     1       3.431   1.736  -0.912  0.00  0.00    -0.225 NA
ATOM     12  C   UNL     1       4.212   2.682  -0.489  0.00  0.00    +0.189 C 
ATOM     13  N   UNL     1       4.289   3.013   0.855  0.00  0.00    -0.230 N 
ATOM     14  C   UNL     1       4.749   4.329   1.277  0.00  0.00    +0.204 C 
ATOM     15  N   UNL     1       5.831   4.780   0.386  0.00  0.00    -0.269 NA
ATOM     16  C   UNL     1       5.381   4.758  -1.018  0.00  0.00    +0.193 C 
ATOM     17  N   UNL     1       5.027   3.372  -1.366  0.00  0.00    -0.304 N 
ATOM     18  H   UNL     1       5.408   2.924  -2.296  0.00  0.00    +0.150 HD
ENDROOT
BRANCH  10  19
ATOM     19  C   UNL     1       1.175   1.783   0.000  0.00  0.00    -0.003 A 
ATOM     20  C   UNL     1      -0.013   1.076   0.008  0.00  0.00    +0.009 A 
ATOM     21  C   UNL     1      -1.219   1.750   0.017  0.00  0.00    +0.020 A 
ATOM     22  C   UNL     1      -1.237   3.134   0.030  0.00  0.00    +0.041 A 
ATOM     23  C   UNL     1      -0.048   3.841   0.022  0.00  0.00    +0.020 A 
ATOM     24  C   UNL     1       1.157   3.165   0.008  0.00  0.00    +0.009 A 
ATOM     25 CL   UNL     1      -2.752   3.982   0.048  0.00  0.00    -0.084 Cl
ENDBRANCH  10  19
BRANCH  15  26
ATOM     26  C   UNL     1       6.303   6.117   0.766  0.00  0.00    +0.103 C 
BRANCH  26  27
ATOM     27  C   UNL     1       7.241   6.655  -0.317  0.00  0.00    +0.100 C 
BRANCH  27  28
ATOM     28  N   UNL     1       7.713   7.993   0.064  0.00  0.00    -0.297 NA
ATOM     29  C   UNL     1       6.606   8.960   0.070  0.00  0.00    +0.112 C 
ATOM     30  C   UNL     1       7.130  10.324   0.529  0.00  0.00    +0.175 C 
ATOM     31  O   UNL     1       8.200  10.731  -0.328  0.00  0.00    -0.377 OA
ATOM     32  C   UNL     1       9.295   9.812  -0.358  0.00  0.00    +0.175 C 
ATOM     33  C   UNL     1       8.793   8.443  -0.826  0.00  0.00    +0.112 C 
ENDBRANCH  27  28
ENDBRANCH  26  27
ENDBRANCH  15  26
TORSDOF 4
