REMARK  Name = ZINC36548443
REMARK  13 active torsions:
REMARK  status: ('A' for Active; 'I' for Inactive)
REMARK    1  A    between atoms: C_1  and  C_2
REMARK    2  A    between atoms: C_2  and  C_3
REMARK    3  A    between atoms: C_2  and  C_4
REMARK    4  A    between atoms: C_2  and  C_5
REMARK    5  A    between atoms: C_5  and  C_6
REMARK    6  A    between atoms: C_6  and  C_7
REMARK    7  A    between atoms: C_6  and  C_8
REMARK    8  A    between atoms: C_6  and  N_9
REMARK    9  A    between atoms: C_10  and  C_12
REMARK   10  A    between atoms: C_12  and  C_14
REMARK   11  A    between atoms: C_12  and  N_20
REMARK   12  A    between atoms: N_20  and  C_21
REMARK   13  A    between atoms: C_28  and  C_30
REMARK                            x       y       z     vdW  Elec       q    Type
REMARK                         _______ _______ _______ _____ _____    ______ ____
ROOT
ATOM      1  C   UNL     1       5.357  -0.492  -4.240  0.00  0.00    +0.197 C 
ENDROOT
BRANCH   1   2
ATOM      2  C   UNL     1       5.254  -1.905  -4.754  0.00  0.00    -0.018 A 
ATOM      3  C   UNL     1       6.013  -2.907  -4.179  0.00  0.00    +0.006 A 
ATOM      4  C   UNL     1       5.919  -4.203  -4.651  0.00  0.00    +0.000 A 
ATOM      5  C   UNL     1       5.064  -4.497  -5.697  0.00  0.00    +0.000 A 
ATOM      6  C   UNL     1       4.304  -3.496  -6.271  0.00  0.00    +0.000 A 
ATOM      7  C   UNL     1       4.395  -2.201  -5.796  0.00  0.00    +0.006 A 
ENDBRANCH   1   2
BRANCH   1   9
ATOM      8  N   UNL     1       3.358  -0.720  -2.800  0.00  0.00    -0.308 N 
ATOM      9  C   UNL     1       4.661  -0.391  -2.907  0.00  0.00    +0.239 C 
ATOM     10  O   UNL     1       5.274  -0.014  -1.930  0.00  0.00    -0.273 OA
ATOM     11  H   UNL     1       2.869  -1.021  -3.580  0.00  0.00    +0.149 HD
BRANCH   8  12
ATOM     12  C   UNL     1       2.682  -0.621  -1.504  0.00  0.00    +0.030 C 
ATOM     13  C   UNL     1       2.877   0.785  -0.932  0.00  0.00    +0.031 C 
ATOM     14  C   UNL     1       3.276  -1.650  -0.539  0.00  0.00    +0.031 C 
BRANCH  12  15
ATOM     15  C   UNL     1       1.188  -0.895  -1.686  0.00  0.00    +0.031 C 
BRANCH  15  17
ATOM     16  C   UNL     1       1.018  -0.966  -4.177  0.00  0.00    +0.010 C 
ATOM     17  C   UNL     1       0.681  -0.154  -2.925  0.00  0.00    -0.036 C 
ATOM     18  C   UNL     1       1.353   1.218  -3.009  0.00  0.00    +0.010 C 
ATOM     19  C   UNL     1      -0.835   0.025  -2.827  0.00  0.00    +0.010 C 
ENDBRANCH  15  17
ENDBRANCH  12  15
ENDBRANCH   8  12
ENDBRANCH   1   9
BRANCH   1  20
ATOM     20  N   UNL     1       6.768  -0.132  -4.083  0.00  0.00    -0.252 N 
ATOM     21  C   UNL     1       7.577  -0.093  -5.160  0.00  0.00    +0.241 C 
ATOM     22  O   UNL     1       7.137  -0.357  -6.259  0.00  0.00    -0.273 OA
BRANCH  20  23
ATOM     23  C   UNL     1       7.276   0.173  -2.815  0.00  0.00    +0.056 A 
ATOM     24  C   UNL     1       7.867  -0.820  -2.045  0.00  0.00    +0.025 A 
ATOM     25  C   UNL     1       8.367  -0.516  -0.794  0.00  0.00    +0.002 A 
ATOM     26  C   UNL     1       8.280   0.775  -0.307  0.00  0.00    +0.002 A 
ATOM     27  C   UNL     1       7.691   1.767  -1.070  0.00  0.00    +0.022 A 
ATOM     28  C   UNL     1       7.194   1.471  -2.325  0.00  0.00    +0.062 A 
ATOM     29 CL   UNL     1       6.463   2.718  -3.287  0.00  0.00    -0.082 Cl
ENDBRANCH  20  23
BRANCH  21  30
ATOM     30  C   UNL     1       9.029   0.278  -4.999  0.00  0.00    +0.160 C 
ATOM     31  C   UNL     1       9.183   1.813  -4.923  0.00  0.00    +0.041 C 
ATOM     32  C   UNL     1       9.460   2.176  -6.401  0.00  0.00    +0.098 C 
ATOM     33  C   UNL     1      10.044   0.911  -6.989  0.00  0.00    +0.214 C 
ATOM     34  O   UNL     1      10.651   0.849  -8.037  0.00  0.00    -0.276 OA
ATOM     35  N   UNL     1       9.793  -0.136  -6.181  0.00  0.00    -0.304 N 
ATOM     36  H   UNL     1      10.080  -1.046  -6.356  0.00  0.00    +0.149 HD
ENDBRANCH  21  30
ENDBRANCH   1  20
TORSDOF 8
