REMARK  Name = ZINC14025838
REMARK  8 active torsions:
REMARK  status: ('A' for Active; 'I' for Inactive)
REMARK    1  A    between atoms: C_4  and  O_10
REMARK    2  A    between atoms: C_5  and  N_7
REMARK    3  A    between atoms: O_10  and  C_11
REMARK    4  A    between atoms: C_11  and  C_12
REMARK    5  A    between atoms: N_14  and  N_15
REMARK    6  A    between atoms: C_16  and  C_18
REMARK    7  A    between atoms: C_18  and  O_19
REMARK    8  A    between atoms: O_19  and  C_20
REMARK                            x       y       z     vdW  Elec       q    Type
REMARK                         _______ _______ _______ _____ _____    ______ ____
ROOT
ATOM      1  C   UNL     1       5.408  -4.043  -0.071  0.00  0.00    +0.267 C 
ATOM      2  O   UNL     1       4.457  -4.795  -0.066  0.00  0.00    -0.271 OA
ATOM      3  N   UNL     1       5.212  -2.709  -0.062  0.00  0.00    -0.231 N 
ATOM      4  H   UNL     1       5.972  -2.107  -0.066  0.00  0.00    +0.173 HD
ENDROOT
BRANCH   3   5
ATOM      5  N   UNL     1       3.909  -2.193  -0.047  0.00  0.00    -0.231 N 
ATOM      6  C   UNL     1       3.713  -0.860  -0.038  0.00  0.00    +0.267 C 
ATOM      7  O   UNL     1       4.664  -0.107  -0.043  0.00  0.00    -0.271 OA
ATOM      8  H   UNL     1       3.149  -2.795  -0.043  0.00  0.00    +0.173 HD
BRANCH   6   9
ATOM      9  C   UNL     1       2.312  -0.304  -0.022  0.00  0.00    +0.326 C 
BRANCH   9  10
ATOM     10  O   UNL     1       2.366   1.124  -0.015  0.00  0.00    -0.482 OA
BRANCH  10  11
ATOM     11  C   UNL     1       1.179   1.786   0.000  0.00  0.00    +0.135 A 
ATOM     12  C   UNL     1      -0.013   1.076   0.008  0.00  0.00    +0.048 A 
ATOM     13  C   UNL     1      -1.218   1.751   0.017  0.00  0.00    +0.019 A 
ATOM     14  C   UNL     1      -1.238   3.134   0.030  0.00  0.00    +0.019 A 
ATOM     15  C   UNL     1      -0.051   3.845   0.022  0.00  0.00    +0.034 A 
ATOM     16  C   UNL     1       1.157   3.174   0.008  0.00  0.00    +0.061 A 
ATOM     17 BR   UNL     1       2.779   4.146  -0.003  0.00  0.00    -0.046 Br
ATOM     18 BR   UNL     1      -2.889   4.054   0.050  0.00  0.00    -0.050 Br
ENDBRANCH  10  11
ENDBRANCH   9  10
ENDBRANCH   6   9
ENDBRANCH   3   5
BRANCH   1  19
ATOM     19  C   UNL     1       6.809  -4.598  -0.087  0.00  0.00    +0.326 C 
BRANCH  19  20
ATOM     20  O   UNL     1       6.755  -6.026  -0.095  0.00  0.00    -0.480 OA
BRANCH  20  24
ATOM     21  C   UNL     1      10.357  -8.036  -0.141  0.00  0.00    +0.002 A 
ATOM     22  C   UNL     1      10.338  -6.653  -0.134  0.00  0.00    +0.004 A 
ATOM     23  C   UNL     1       9.133  -5.978  -0.123  0.00  0.00    +0.048 A 
ATOM     24  C   UNL     1       7.942  -6.688  -0.110  0.00  0.00    +0.151 A 
ATOM     25  C   UNL     1       7.963  -8.075  -0.117  0.00  0.00    +0.168 A 
ATOM     26  C   UNL     1       9.171  -8.745  -0.133  0.00  0.00    +0.036 A 
BRANCH  25  27
ATOM     27  N   UNL     1       6.694  -8.835  -0.109  0.00  0.00    +0.060 N 
ATOM     28  O   UNL     1       6.714 -10.053  -0.116  0.00  0.00    -0.126 OA
ATOM     29  O   UNL     1       5.629  -8.244  -0.096  0.00  0.00    -0.126 OA
ENDBRANCH  25  27
ENDBRANCH  20  24
ENDBRANCH  19  20
ENDBRANCH   1  19
TORSDOF 8
