REMARK  Name = ZINC13795160
REMARK  9 active torsions:
REMARK  status: ('A' for Active; 'I' for Inactive)
REMARK    1  A    between atoms: C_1  and  C_2
REMARK    2  A    between atoms: C_2  and  O_3
REMARK    3  A    between atoms: O_3  and  C_4
REMARK    4  A    between atoms: C_4  and  C_6
REMARK    5  A    between atoms: C_6  and  N_7
REMARK    6  A    between atoms: N_16  and  C_17
REMARK    7  A    between atoms: C_17  and  C_19
REMARK    8  A    between atoms: N_25  and  S_26
REMARK    9  A    between atoms: S_26  and  C_29
REMARK                            x       y       z     vdW  Elec       q    Type
REMARK                         _______ _______ _______ _____ _____    ______ ____
ROOT
ATOM      1  N   UNL     1       1.307   5.296  -0.214  0.00  0.00    -0.310 N 
ATOM      2  C   UNL     1       1.086   4.051   0.350  0.00  0.00    +0.062 A 
ATOM      3  C   UNL     1       2.029   3.059   0.661  0.00  0.00    +0.076 A 
ATOM      4  C   UNL     1       1.639   1.862   1.226  0.00  0.00    +0.168 A 
ATOM      5  C   UNL     1       0.295   1.611   1.504  0.00  0.00    +0.167 A 
ATOM      6  C   UNL     1      -0.653   2.574   1.200  0.00  0.00    +0.066 A 
ATOM      7  C   UNL     1      -0.255   3.766   0.641  0.00  0.00    +0.043 A 
ATOM      8  S   UNL     1      -1.107   5.231   0.114  0.00  0.00    -0.052 S 
ATOM      9  C   UNL     1       0.263   6.134  -0.446  0.00  0.00    +0.167 A 
ATOM     10  N   UNL     1       0.287   7.355  -0.977  0.00  0.00    -0.155 NA
ATOM     11  O   UNL     1       0.184   0.368   2.055  0.00  0.00    -0.453 OA
ATOM     12  C   UNL     1       1.512   0.022   2.491  0.00  0.00    +0.466 C 
ATOM     13  O   UNL     1       2.368   0.769   1.607  0.00  0.00    -0.453 OA
ENDROOT
BRANCH  10  14
ATOM     14  C   UNL     1      -0.844   8.035  -1.129  0.00  0.00    +0.257 C 
ATOM     15  O   UNL     1      -1.901   7.543  -0.784  0.00  0.00    -0.272 OA
BRANCH  14  16
ATOM     16  C   UNL     1      -0.818   9.417  -1.730  0.00  0.00    +0.167 C 
ATOM     17  C   UNL     1      -1.428   9.379  -3.134  0.00  0.00    +0.030 C 
ATOM     18  C   UNL     1      -1.526  10.804  -3.683  0.00  0.00    +0.003 C 
ATOM     19  C   UNL     1      -2.439  11.638  -2.781  0.00  0.00    +0.017 C 
ATOM     20  C   UNL     1      -1.840  11.702  -1.373  0.00  0.00    +0.110 C 
ATOM     21  N   UNL     1      -1.608  10.332  -0.895  0.00  0.00    -0.169 NA
BRANCH  21  22
ATOM     22  S   UNL     1      -2.226   9.829   0.557  0.00  0.00    +0.030 S 
ATOM     23  O   UNL     1      -1.351   8.794   0.984  0.00  0.00    -0.158 OA
ATOM     24  O   UNL     1      -2.370  11.018   1.321  0.00  0.00    -0.158 OA
ATOM     25  C   UNL     1      -3.857   9.142   0.156  0.00  0.00    +0.215 C 
ENDBRANCH  21  22
ENDBRANCH  14  16
ENDBRANCH  10  14
BRANCH   1  26
ATOM     26  C   UNL     1       2.668   5.710  -0.563  0.00  0.00    +0.244 C 
BRANCH  26  27
ATOM     27  C   UNL     1       2.667   6.342  -1.931  0.00  0.00    +0.327 C 
ATOM     28  O   UNL     1       1.668   6.310  -2.610  0.00  0.00    -0.249 OA
BRANCH  27  29
ATOM     29  O   UNL     1       3.775   6.940  -2.395  0.00  0.00    -0.464 OA
BRANCH  29  31
ATOM     30  C   UNL     1       5.049   8.159  -4.075  0.00  0.00    +0.048 C 
ATOM     31  C   UNL     1       3.701   7.528  -3.720  0.00  0.00    +0.229 C 
ENDBRANCH  29  31
ENDBRANCH  27  29
ENDBRANCH  26  27
ENDBRANCH   1  26
TORSDOF 7
