REMARK  Name = ZINC45852599
REMARK  5 active torsions:
REMARK  status: ('A' for Active; 'I' for Inactive)
REMARK    1  A    between atoms: C_16  and  C_18
REMARK    2  A    between atoms: C_18  and  O_19
REMARK    3  A    between atoms: O_19  and  C_20
REMARK    4  A    between atoms: C_20  and  C_22
REMARK    5  A    between atoms: C_22  and  N_23
REMARK                            x       y       z     vdW  Elec       q    Type
REMARK                         _______ _______ _______ _____ _____    ______ ____
ROOT
ATOM      1  C   UNL     1      -0.017   1.371   0.010  0.00  0.00    +0.000 A 
ATOM      2  C   UNL     1       1.168   2.085   0.002  0.00  0.00    +0.002 A 
ATOM      3  C   UNL     1       2.365   1.400  -0.028  0.00  0.00    +0.024 A 
ATOM      4  C   UNL     1       2.383   0.009  -0.042  0.00  0.00    +0.045 A 
ATOM      5  C   UNL     1       1.204  -0.717  -0.008  0.00  0.00    -0.025 A 
ATOM      6  C   UNL     1       0.002  -0.004   0.002  0.00  0.00    +0.005 A 
ATOM      7  C   UNL     1       1.047  -2.219   0.059  0.00  0.00    +0.042 C 
ATOM      8  C   UNL     1       2.374  -2.955   0.112  0.00  0.00    +0.042 C 
ATOM      9  C   UNL     1       3.191  -2.701  -1.128  0.00  0.00    -0.025 A 
ATOM     10  C   UNL     1       3.277  -3.606  -2.162  0.00  0.00    +0.005 A 
ATOM     11  C   UNL     1       4.077  -3.297  -3.253  0.00  0.00    +0.000 A 
ATOM     12  C   UNL     1       4.775  -2.103  -3.295  0.00  0.00    +0.002 A 
ATOM     13  C   UNL     1       4.674  -1.195  -2.254  0.00  0.00    +0.024 A 
ATOM     14  C   UNL     1       3.862  -1.508  -1.178  0.00  0.00    +0.045 A 
ATOM     15  N   UNL     1       3.632  -0.626  -0.112  0.00  0.00    -0.237 N 
ATOM     16  C   UNL     1       4.582  -0.395   0.816  0.00  0.00    +0.262 C 
ATOM     17  O   UNL     1       4.364   0.372   1.730  0.00  0.00    -0.271 OA
ENDROOT
BRANCH  16  18
ATOM     18  C   UNL     1       5.916  -1.090   0.718  0.00  0.00    +0.328 C 
BRANCH  18  19
ATOM     19  O   UNL     1       6.745  -0.684   1.808  0.00  0.00    -0.454 OA
BRANCH  19  20
ATOM     20  C   UNL     1       7.976  -1.216   1.868  0.00  0.00    +0.326 C 
ATOM     21  O   UNL     1       8.338  -2.000   1.022  0.00  0.00    -0.249 OA
BRANCH  20  22
ATOM     22  C   UNL     1       8.908  -0.836   2.990  0.00  0.00    +0.237 C 
BRANCH  22  23
ATOM     23  N   UNL     1      10.179  -1.546   2.831  0.00  0.00    -0.223 N 
ATOM     24  C   UNL     1      10.446  -2.756   3.354  0.00  0.00    +0.254 C 
ATOM     25  O   UNL     1       9.682  -3.423   4.022  0.00  0.00    -0.270 OA
ATOM     26  C   UNL     1      11.823  -3.139   2.978  0.00  0.00    +0.049 A 
ATOM     27  C   UNL     1      12.622  -4.245   3.223  0.00  0.00    +0.014 A 
ATOM     28  C   UNL     1      13.908  -4.291   2.709  0.00  0.00    +0.001 A 
ATOM     29  C   UNL     1      14.399  -3.242   1.954  0.00  0.00    +0.001 A 
ATOM     30  C   UNL     1      13.612  -2.130   1.701  0.00  0.00    +0.014 A 
ATOM     31  C   UNL     1      12.324  -2.070   2.208  0.00  0.00    +0.049 A 
ATOM     32  C   UNL     1      11.232  -1.076   2.138  0.00  0.00    +0.254 C 
ATOM     33  O   UNL     1      11.279  -0.012   1.554  0.00  0.00    -0.270 OA
ENDBRANCH  22  23
ENDBRANCH  20  22
ENDBRANCH  19  20
ENDBRANCH  18  19
ENDBRANCH  16  18
TORSDOF 5
