REMARK  Name = ZINC51992883
REMARK  6 active torsions:
REMARK  status: ('A' for Active; 'I' for Inactive)
REMARK    1  A    between atoms: C_1  and  C_2
REMARK    2  A    between atoms: C_5  and  N_21
REMARK    3  A    between atoms: C_7  and  S_8
REMARK    4  A    between atoms: S_8  and  N_11
REMARK    5  A    between atoms: N_11  and  C_12
REMARK    6  A    between atoms: C_18  and  O_20
REMARK                            x       y       z     vdW  Elec       q    Type
REMARK                         _______ _______ _______ _____ _____    ______ ____
ROOT
ATOM      1  S   UNL     1      -0.243   0.200   3.089  0.00  0.00    +0.059 S 
ATOM      2  O   UNL     1      -1.231   1.151   3.460  0.00  0.00    -0.153 OA
ATOM      3  O   UNL     1       0.052  -0.942   3.882  0.00  0.00    -0.153 OA
ENDROOT
BRANCH   1  10
ATOM      4  C   UNL     1       1.343  -1.851   1.534  0.00  0.00    +0.046 C 
ATOM      5  C   UNL     1       0.096  -1.339   0.860  0.00  0.00    -0.024 A 
ATOM      6  C   UNL     1      -0.259  -1.816  -0.389  0.00  0.00    +0.007 A 
ATOM      7  C   UNL     1      -1.401  -1.349  -1.010  0.00  0.00    +0.023 A 
ATOM      8  C   UNL     1      -2.194  -0.400  -0.378  0.00  0.00    +0.026 A 
ATOM      9  C   UNL     1      -1.836   0.076   0.877  0.00  0.00    +0.051 A 
ATOM     10  C   UNL     1      -0.695  -0.399   1.494  0.00  0.00    +0.110 A 
BRANCH   8  11
ATOM     11  N   UNL     1      -3.350   0.074  -1.002  0.00  0.00    -0.358 N 
ATOM     12  H   UNL     1      -3.599  -0.259  -1.879  0.00  0.00    +0.142 HD
ATOM     13  H   UNL     1      -3.903   0.737  -0.560  0.00  0.00    +0.142 HD
ENDBRANCH   8  11
ENDBRANCH   1  10
BRANCH   1  14
ATOM     14  N   UNL     1       1.177   1.034   2.914  0.00  0.00    -0.184 NA
ATOM     15  H   UNL     1       1.981   0.720   3.355  0.00  0.00    +0.148 HD
BRANCH  14  16
ATOM     16  C   UNL     1       1.217   2.247   2.094  0.00  0.00    +0.105 C 
ATOM     17  C   UNL     1       2.107   2.007   0.872  0.00  0.00    +0.023 C 
ATOM     18  C   UNL     1       2.149   3.274   0.015  0.00  0.00    +0.002 C 
ATOM     19  C   UNL     1       2.717   4.430   0.842  0.00  0.00    +0.003 C 
ATOM     20  C   UNL     1       1.827   4.670   2.063  0.00  0.00    +0.033 C 
ATOM     21  C   UNL     1       1.785   3.403   2.920  0.00  0.00    +0.133 C 
BRANCH  21  22
ATOM     22  O   UNL     1       0.954   3.627   4.060  0.00  0.00    -0.390 OA
ATOM     23  H   UNL     1       1.255   4.347   4.631  0.00  0.00    +0.210 HD
ENDBRANCH  21  22
ENDBRANCH  14  16
ENDBRANCH   1  14
TORSDOF 5
