REMARK  Name = ZINC59179912
REMARK  11 active torsions:
REMARK  status: ('A' for Active; 'I' for Inactive)
REMARK    1  A    between atoms: C_1  and  C_2
REMARK    2  A    between atoms: C_5  and  C_8
REMARK    3  A    between atoms: C_14  and  C_16
REMARK    4  A    between atoms: C_19  and  S_24
REMARK    5  A    between atoms: N_20  and  C_21
REMARK    6  A    between atoms: C_21  and  C_22
REMARK    7  A    between atoms: S_24  and  C_25
REMARK    8  A    between atoms: C_25  and  C_26
REMARK    9  A    between atoms: N_28  and  C_29
REMARK   10  A    between atoms: C_31  and  N_36
REMARK   11  A    between atoms: C_34  and  C_35
REMARK                            x       y       z     vdW  Elec       q    Type
REMARK                         _______ _______ _______ _____ _____    ______ ____
ROOT
ATOM      1  C   UNL     1      -0.902  -7.018   0.625  0.00  0.00    +0.155 A 
ATOM      2  N   UNL     1      -2.142  -6.676   0.831  0.00  0.00    -0.132 NA
ATOM      3  N   UNL     1      -2.930  -7.480   0.212  0.00  0.00    -0.122 NA
ATOM      4  C   UNL     1      -2.229  -8.387  -0.428  0.00  0.00    +0.192 A 
ATOM      5  N   UNL     1      -0.912  -8.117  -0.188  0.00  0.00    -0.301 N 
ENDROOT
BRANCH   1  12
ATOM      6  C   UNL     1       0.051  -4.205  -0.133  0.00  0.00    +0.247 C 
ATOM      7  O   UNL     1      -0.015  -4.820  -1.179  0.00  0.00    -0.270 OA
ATOM      8  N   UNL     1       0.177  -4.871   1.032  0.00  0.00    -0.287 N 
ATOM      9  C   UNL     1       0.188  -4.260   2.374  0.00  0.00    +0.109 C 
ATOM     10  C   UNL     1       0.948  -5.274   3.265  0.00  0.00    +0.021 C 
ATOM     11  C   UNL     1       0.460  -6.627   2.684  0.00  0.00    +0.032 C 
ATOM     12  C   UNL     1       0.319  -6.327   1.176  0.00  0.00    +0.144 C 
BRANCH   6  17
ATOM     13  C   UNL     1      -0.172   1.545  -0.151  0.00  0.00    +0.044 C 
ATOM     14  C   UNL     1      -0.113   0.039  -0.147  0.00  0.00    -0.050 A 
ATOM     15  C   UNL     1      -0.655  -0.668   0.912  0.00  0.00    +0.004 A 
ATOM     16  C   UNL     1      -0.605  -2.046   0.923  0.00  0.00    +0.013 A 
ATOM     17  C   UNL     1      -0.006  -2.728  -0.138  0.00  0.00    +0.037 A 
ATOM     18  C   UNL     1       0.538  -2.009  -1.203  0.00  0.00    +0.013 A 
ATOM     19  C   UNL     1       0.477  -0.631  -1.204  0.00  0.00    +0.004 A 
ENDBRANCH   6  17
ENDBRANCH   1  12
BRANCH   5  20
ATOM     20  C   UNL     1       0.248  -8.855  -0.695  0.00  0.00    +0.152 C 
BRANCH  20  21
ATOM     21  C   UNL     1       0.607  -9.952   0.274  0.00  0.00    -0.013 C 
ATOM     22  C   UNL     1       0.689 -11.192  -0.142  0.00  0.00    +0.005 C 
ENDBRANCH  20  21
ENDBRANCH   5  20
BRANCH   4  23
ATOM     23  S   UNL     1      -2.867  -9.700  -1.415  0.00  0.00    -0.077 S 
BRANCH  23  24
ATOM     24  C   UNL     1      -4.666  -9.484  -1.323  0.00  0.00    +0.173 C 
BRANCH  24  25
ATOM     25  C   UNL     1      -5.343 -10.557  -2.136  0.00  0.00    +0.227 C 
ATOM     26  O   UNL     1      -4.678 -11.387  -2.719  0.00  0.00    -0.275 OA
ATOM     27  N   UNL     1      -6.688 -10.596  -2.214  0.00  0.00    -0.285 N 
ATOM     28  H   UNL     1      -7.218  -9.899  -1.797  0.00  0.00    +0.155 HD
BRANCH  27  29
ATOM     29  C   UNL     1      -7.319 -11.642  -2.896  0.00  0.00    +0.038 A 
ATOM     30  C   UNL     1      -6.727 -12.195  -4.024  0.00  0.00    +0.056 A 
ATOM     31  C   UNL     1      -7.353 -13.227  -4.695  0.00  0.00    +0.128 A 
ATOM     32  C   UNL     1      -8.568 -13.710  -4.245  0.00  0.00    +0.033 A 
ATOM     33  C   UNL     1      -9.161 -13.161  -3.123  0.00  0.00    +0.007 A 
ATOM     34  C   UNL     1      -8.537 -12.133  -2.443  0.00  0.00    -0.029 A 
ATOM     35  C   UNL     1      -9.180 -11.540  -1.216  0.00  0.00    +0.045 C 
BRANCH  31  36
ATOM     36  N   UNL     1      -6.722 -13.817  -5.897  0.00  0.00    +0.056 N 
ATOM     37  O   UNL     1      -5.660 -13.395  -6.291  0.00  0.00    -0.126 OA
ATOM     38  O   UNL     1      -7.269 -14.720  -6.485  0.00  0.00    -0.126 OA
ENDBRANCH  31  36
ENDBRANCH  27  29
ENDBRANCH  24  25
ENDBRANCH  23  24
ENDBRANCH   4  23
TORSDOF 9
