REMARK  Name = ZINC14470781
REMARK  7 active torsions:
REMARK  status: ('A' for Active; 'I' for Inactive)
REMARK    1  A    between atoms: C_1  and  C_2
REMARK    2  A    between atoms: C_5  and  N_9
REMARK    3  A    between atoms: C_6  and  C_8
REMARK    4  A    between atoms: N_9  and  S_10
REMARK    5  A    between atoms: S_10  and  C_13
REMARK    6  A    between atoms: C_26  and  C_29
REMARK    7  A    between atoms: C_33  and  N_35
REMARK                            x       y       z     vdW  Elec       q    Type
REMARK                         _______ _______ _______ _____ _____    ______ ____
ROOT
ATOM      1  C   UNL     1       4.249   0.372  -2.388  0.00  0.00    +0.109 A 
ATOM      2  C   UNL     1       3.578   0.129  -3.572  0.00  0.00    +0.030 A 
ATOM      3  C   UNL     1       2.244   0.460  -3.694  0.00  0.00    +0.025 A 
ATOM      4  C   UNL     1       1.565   1.039  -2.629  0.00  0.00    +0.031 A 
ATOM      5  C   UNL     1       2.254   1.295  -1.438  0.00  0.00    -0.018 A 
ATOM      6  C   UNL     1       3.584   0.955  -1.324  0.00  0.00    +0.034 A 
ATOM      7  C   UNL     1       1.501   1.934  -0.338  0.00  0.00    +0.049 C 
ATOM      8  C   UNL     1       1.887   1.760   1.086  0.00  0.00    -0.023 C 
ATOM      9  C   UNL     1       0.791   1.820   1.833  0.00  0.00    -0.030 C 
ATOM     10  C   UNL     1      -0.439   2.010   0.942  0.00  0.00    +0.033 C 
ATOM     11  C   UNL     1       0.039   1.396  -0.380  0.00  0.00    +0.029 C 
ATOM     12  C   UNL     1      -0.553   1.935  -1.670  0.00  0.00    +0.105 C 
ATOM     13  N   UNL     1       0.202   1.331  -2.762  0.00  0.00    -0.336 N 
ATOM     14  H   UNL     1      -0.250   1.121  -3.594  0.00  0.00    +0.147 HD
ENDROOT
BRANCH  12  15
ATOM     15  C   UNL     1      -2.010   1.561  -1.770  0.00  0.00    -0.025 A 
ATOM     16  C   UNL     1      -2.370   0.292  -2.186  0.00  0.00    +0.007 A 
ATOM     17  C   UNL     1      -3.705  -0.052  -2.278  0.00  0.00    +0.022 A 
ATOM     18  C   UNL     1      -4.681   0.873  -1.954  0.00  0.00    +0.071 A 
ATOM     19  C   UNL     1      -4.321   2.142  -1.538  0.00  0.00    +0.145 A 
ATOM     20  C   UNL     1      -2.985   2.483  -1.441  0.00  0.00    +0.039 A 
ATOM     21 CL   UNL     1      -6.359   0.441  -2.069  0.00  0.00    -0.081 Cl
BRANCH  19  22
ATOM     22  N   UNL     1      -5.365   3.132  -1.190  0.00  0.00    +0.058 N 
ATOM     23  O   UNL     1      -5.047   4.249  -0.824  0.00  0.00    -0.126 OA
ATOM     24  O   UNL     1      -6.542   2.829  -1.270  0.00  0.00    -0.126 OA
ENDBRANCH  19  22
ENDBRANCH  12  15
BRANCH   1  25
ATOM     25  S   UNL     1       5.950  -0.060  -2.234  0.00  0.00    +0.072 S 
ATOM     26  O   UNL     1       6.482  -0.090  -3.551  0.00  0.00    -0.150 OA
ATOM     27  O   UNL     1       6.489   0.769  -1.213  0.00  0.00    -0.150 OA
BRANCH  25  28
ATOM     28  N   UNL     1       6.011  -1.614  -1.663  0.00  0.00    -0.216 N 
ATOM     29  H   UNL     1       6.444  -1.803  -0.816  0.00  0.00    +0.174 HD
BRANCH  28  34
ATOM     30  C   UNL     1       3.684  -5.827  -4.662  0.00  0.00    +0.044 C 
ATOM     31  C   UNL     1       4.303  -4.708  -3.865  0.00  0.00    -0.050 A 
ATOM     32  C   UNL     1       4.924  -3.658  -4.517  0.00  0.00    +0.005 A 
ATOM     33  C   UNL     1       5.487  -2.628  -3.790  0.00  0.00    +0.025 A 
ATOM     34  C   UNL     1       5.438  -2.652  -2.402  0.00  0.00    +0.051 A 
ATOM     35  C   UNL     1       4.813  -3.707  -1.750  0.00  0.00    -0.028 A 
ATOM     36  C   UNL     1       4.248  -4.732  -2.483  0.00  0.00    +0.008 A 
ATOM     37  C   UNL     1       4.752  -3.734  -0.244  0.00  0.00    +0.046 C 
ENDBRANCH  28  34
ENDBRANCH  25  28
ENDBRANCH   1  25
TORSDOF 5
