REMARK  Name = ZINC24897973
REMARK  8 active torsions:
REMARK  status: ('A' for Active; 'I' for Inactive)
REMARK    1  A    between atoms: N_9  and  C_22
REMARK    2  A    between atoms: C_10  and  C_12
REMARK    3  A    between atoms: C_12  and  C_13
REMARK    4  A    between atoms: N_15  and  C_16
REMARK    5  A    between atoms: C_16  and  C_17
REMARK    6  A    between atoms: N_25  and  C_28
REMARK    7  A    between atoms: C_29  and  N_34
REMARK    8  A    between atoms: N_34  and  C_35
REMARK                            x       y       z     vdW  Elec       q    Type
REMARK                         _______ _______ _______ _____ _____    ______ ____
ROOT
ATOM      1  C   UNL     1      -6.337   2.653  -5.832  0.00  0.00    +0.000 A 
ATOM      2  C   UNL     1      -6.693   1.413  -5.336  0.00  0.00    +0.000 A 
ATOM      3  C   UNL     1      -6.006   0.878  -4.265  0.00  0.00    +0.002 A 
ATOM      4  C   UNL     1      -4.959   1.577  -3.683  0.00  0.00    -0.057 A 
ATOM      5  C   UNL     1      -4.602   2.812  -4.181  0.00  0.00    -0.047 A 
ATOM      6  C   UNL     1      -5.294   3.350  -5.255  0.00  0.00    +0.004 A 
ATOM      7  C   UNL     1      -3.464   3.604  -3.589  0.00  0.00    +0.017 C 
ATOM      8  C   UNL     1      -3.115   3.061  -2.203  0.00  0.00    -0.073 C 
ATOM      9  N   UNL     1      -2.944   1.603  -2.302  0.00  0.00    +0.387 N 
ATOM     10  C   UNL     1      -4.241   0.953  -2.515  0.00  0.00    -0.028 C 
ATOM     11  H   UNL     1      -2.303   1.383  -3.168  0.00  0.00    -0.081 HD
ENDROOT
BRANCH   9  12
ATOM     12  C   UNL     1      -2.277   1.069  -1.108  0.00  0.00    -0.065 C 
ATOM     13  C   UNL     1      -0.838   1.587  -1.050  0.00  0.00    +0.004 C 
ATOM     14  C   UNL     1      -0.167   1.075   0.227  0.00  0.00    +0.104 C 
ATOM     15  N   UNL     1      -0.921   1.541   1.397  0.00  0.00    -0.325 N 
ATOM     16  C   UNL     1      -2.293   1.017   1.389  0.00  0.00    +0.104 C 
ATOM     17  C   UNL     1      -3.027   1.527   0.146  0.00  0.00    +0.004 C 
BRANCH  15  18
ATOM     18  C   UNL     1      -0.276   1.209   2.562  0.00  0.00    +0.106 C 
ATOM     19  C   UNL     1      -0.530   1.404   3.926  0.00  0.00    +0.099 C 
ATOM     20  C   UNL     1       0.698   0.709   4.339  0.00  0.00    +0.189 C 
ATOM     21  O   UNL     1       1.246   0.430   5.389  0.00  0.00    -0.502 OA
ATOM     22  C   UNL     1       0.973   0.508   2.896  0.00  0.00    +0.245 C 
ATOM     23  O   UNL     1       1.862  -0.019   2.254  0.00  0.00    -0.282 OA
ATOM     24  H   UNL     1       0.787   0.728   6.344  0.00  0.00    +0.292 HD
BRANCH  19  25
ATOM     25  N   UNL     1      -1.545   2.014   4.619  0.00  0.00    -0.337 N 
ATOM     26  H   UNL     1      -2.442   2.519   4.230  0.00  0.00    +0.147 HD
BRANCH  25  27
ATOM     27  C   UNL     1      -1.318   1.933   6.068  0.00  0.00    +0.071 C 
ATOM     28  C   UNL     1      -2.514   1.573   6.951  0.00  0.00    +0.024 C 
ATOM     29  C   UNL     1      -1.970   3.003   6.946  0.00  0.00    +0.024 C 
ENDBRANCH  25  27
ENDBRANCH  19  25
ENDBRANCH  15  18
ENDBRANCH   9  12
BRANCH  10  30
ATOM     30  C   UNL     1      -4.021  -0.535  -2.794  0.00  0.00    +0.085 C 
BRANCH  30  31
ATOM     31  C   UNL     1      -3.132  -0.694  -4.000  0.00  0.00    +0.212 C 
ATOM     32  O   UNL     1      -2.635   0.283  -4.520  0.00  0.00    -0.276 OA
ATOM     33  N   UNL     1      -2.891  -1.921  -4.503  0.00  0.00    -0.308 N 
ATOM     34  H   UNL     1      -3.342  -2.807  -4.032  0.00  0.00    +0.149 HD
BRANCH  33  35
ATOM     35  C   UNL     1      -2.027  -2.075  -5.676  0.00  0.00    +0.178 C 
BRANCH  35  36
ATOM     36  C   UNL     1      -1.920  -3.536  -6.032  0.00  0.00    +0.122 A 
ATOM     37  C   UNL     1      -2.737  -4.203  -6.867  0.00  0.00    +0.046 A 
ATOM     38  C   UNL     1      -2.274  -5.538  -6.912  0.00  0.00    +0.041 A 
ATOM     39  C   UNL     1      -1.206  -5.609  -6.096  0.00  0.00    +0.195 A 
ATOM     40  O   UNL     1      -0.997  -4.393  -5.566  0.00  0.00    -0.466 OA
ENDBRANCH  35  36
ENDBRANCH  33  35
ENDBRANCH  30  31
ENDBRANCH  10  30
TORSDOF 8
