REMARK  Name = ZINC00891509
REMARK  11 active torsions:
REMARK  status: ('A' for Active; 'I' for Inactive)
REMARK    1  A    between atoms: C_1  and  C_2
REMARK    2  A    between atoms: C_6  and  C_8
REMARK    3  A    between atoms: C_8  and  C_9
REMARK    4  A    between atoms: C_9  and  N_10
REMARK    5  A    between atoms: N_10  and  C_11
REMARK    6  A    between atoms: N_10  and  C_28
REMARK    7  A    between atoms: C_11  and  C_12
REMARK    8  A    between atoms: C_28  and  N_30
REMARK    9  A    between atoms: N_30  and  C_31
REMARK   10  A    between atoms: C_31  and  C_32
REMARK   11  A    between atoms: C_32  and  C_33
REMARK                            x       y       z     vdW  Elec       q    Type
REMARK                         _______ _______ _______ _____ _____    ______ ____
ROOT
ATOM      1  N   UNL     1      -0.020   1.094   2.454  0.00  0.00    -0.308 N 
ENDROOT
BRANCH   1   2
ATOM      2  C   UNL     1       0.967   1.833   2.998  0.00  0.00    +0.133 C 
ATOM      3  S   UNL     1       1.794   1.266   4.386  0.00  0.00    -0.019 S 
BRANCH   2   4
ATOM      4  N   UNL     1       1.301   3.018   2.451  0.00  0.00    -0.326 N 
ATOM      5  H   UNL     1       0.832   3.339   1.666  0.00  0.00    +0.148 HD
BRANCH   4   6
ATOM      6  C   UNL     1       2.374   3.821   3.044  0.00  0.00    +0.108 C 
BRANCH   6   7
ATOM      7  C   UNL     1       2.552   5.109   2.237  0.00  0.00    +0.054 C 
BRANCH   7   8
ATOM      8  C   UNL     1       3.655   5.935   2.846  0.00  0.00    -0.046 A 
ATOM      9  C   UNL     1       3.361   6.868   3.823  0.00  0.00    +0.004 A 
ATOM     10  C   UNL     1       4.374   7.622   4.386  0.00  0.00    +0.000 A 
ATOM     11  C   UNL     1       5.679   7.451   3.963  0.00  0.00    +0.000 A 
ATOM     12  C   UNL     1       5.972   6.523   2.982  0.00  0.00    +0.000 A 
ATOM     13  C   UNL     1       4.960   5.764   2.424  0.00  0.00    +0.004 A 
ENDBRANCH   7   8
ENDBRANCH   6   7
ENDBRANCH   4   6
ENDBRANCH   2   4
ENDBRANCH   1   2
BRANCH   1  14
ATOM     14  C   UNL     1      -0.729   1.579   1.267  0.00  0.00    +0.112 C 
BRANCH  14  15
ATOM     15  C   UNL     1      -0.013   1.086   0.008  0.00  0.00    +0.054 C 
BRANCH  15  21
ATOM     16  C   UNL     1      -0.692   4.584  -3.505  0.00  0.00    +0.044 C 
ATOM     17  C   UNL     1      -1.067   3.259  -2.894  0.00  0.00    -0.050 A 
ATOM     18  C   UNL     1      -2.078   2.501  -3.453  0.00  0.00    +0.003 A 
ATOM     19  C   UNL     1      -2.421   1.284  -2.893  0.00  0.00    +0.001 A 
ATOM     20  C   UNL     1      -1.750   0.825  -1.775  0.00  0.00    +0.004 A 
ATOM     21  C   UNL     1      -0.742   1.585  -1.213  0.00  0.00    -0.046 A 
ATOM     22  C   UNL     1      -0.398   2.801  -1.774  0.00  0.00    +0.007 A 
ENDBRANCH  15  21
ENDBRANCH  14  15
ENDBRANCH   1  14
BRANCH   1  23
ATOM     23  C   UNL     1      -0.384  -0.195   3.048  0.00  0.00    +0.147 C 
BRANCH  23  24
ATOM     24  C   UNL     1       0.439  -1.289   2.419  0.00  0.00    +0.035 A 
ATOM     25  C   UNL     1       1.588  -1.698   3.016  0.00  0.00    +0.020 A 
ATOM     26  C   UNL     1       2.362  -2.766   2.384  0.00  0.00    +0.003 A 
ATOM     27  C   UNL     1       3.552  -3.232   2.955  0.00  0.00    +0.059 A 
ATOM     28  C   UNL     1       4.263  -4.236   2.334  0.00  0.00    +0.163 A 
ATOM     29  C   UNL     1       3.800  -4.790   1.137  0.00  0.00    +0.164 A 
ATOM     30  C   UNL     1       2.624  -4.335   0.564  0.00  0.00    +0.075 A 
ATOM     31  C   UNL     1       1.897  -3.323   1.177  0.00  0.00    +0.053 A 
ATOM     32  N   UNL     1       0.723  -2.857   0.619  0.00  0.00    -0.322 N 
ATOM     33  H   UNL     1       0.404  -3.241  -0.213  0.00  0.00    +0.169 HD
ATOM     34  C   UNL     1       0.017  -1.879   1.211  0.00  0.00    +0.254 A 
ATOM     35  O   UNL     1      -1.015  -1.492   0.690  0.00  0.00    -0.268 OA
ATOM     36  O   UNL     1       4.493  -5.784   0.519  0.00  0.00    -0.485 OA
ATOM     37  C   UNL     1       5.857  -5.961   0.917  0.00  0.00    +0.270 C 
ATOM     38  C   UNL     1       5.918  -5.941   2.450  0.00  0.00    +0.270 C 
ATOM     39  O   UNL     1       5.421  -4.676   2.901  0.00  0.00    -0.485 OA
ENDBRANCH  23  24
ENDBRANCH   1  23
TORSDOF 10
