REMARK  Name = ZINC08635463
REMARK  9 active torsions:
REMARK  status: ('A' for Active; 'I' for Inactive)
REMARK    1  A    between atoms: C_1  and  N_2
REMARK    2  A    between atoms: C_3  and  C_17
REMARK    3  A    between atoms: C_5  and  C_7
REMARK    4  A    between atoms: C_25  and  C_27
REMARK    5  A    between atoms: C_27  and  N_28
REMARK    6  A    between atoms: C_29  and  C_31
REMARK    7  A    between atoms: C_31  and  C_32
REMARK    8  A    between atoms: C_32  and  C_37
REMARK    9  A    between atoms: C_37  and  C_38
REMARK                            x       y       z     vdW  Elec       q    Type
REMARK                         _______ _______ _______ _____ _____    ______ ____
ROOT
ATOM      1  C   UNL     1      -2.427   1.237   2.515  0.00  0.00    +0.024 C 
ATOM      2  C   UNL     1      -2.675   1.979   1.192  0.00  0.00    -0.068 C 
ATOM      3  C   UNL     1      -0.422   1.502   0.439  0.00  0.00    -0.078 C 
ATOM      4  C   UNL     1      -0.111   0.748   1.736  0.00  0.00    -0.015 C 
ATOM      5  C   UNL     1      -0.940   1.355   2.875  0.00  0.00    -0.007 C 
ATOM      6  C   UNL     1      -0.586   2.842   3.000  0.00  0.00    -0.010 C 
ATOM      7  C   UNL     1      -0.884   3.538   1.669  0.00  0.00    -0.051 C 
ATOM      8  N   UNL     1      -1.416   2.568   0.688  0.00  0.00    +0.383 N 
ATOM      9  H   UNL     1      -1.607   3.058  -0.195  0.00  0.00    -0.081 HD
ENDROOT
BRANCH   1  12
ATOM     10  C   UNL     1      -2.227   0.645   5.547  0.00  0.00    +0.172 C 
ATOM     11  N   UNL     1      -3.164   1.586   4.928  0.00  0.00    -0.271 N 
ATOM     12  C   UNL     1      -3.261   1.854   3.608  0.00  0.00    +0.041 A 
ATOM     13  C   UNL     1      -4.234   2.775   3.440  0.00  0.00    +0.053 A 
ATOM     14  C   UNL     1      -4.764   3.080   4.709  0.00  0.00    +0.093 A 
ATOM     15  N   UNL     1      -4.114   2.364   5.602  0.00  0.00    -0.171 NA
BRANCH  14  16
ATOM     16  C   UNL     1      -5.857   4.043   4.990  0.00  0.00    +0.003 A 
ATOM     17  C   UNL     1      -6.533   4.660   3.925  0.00  0.00    +0.011 A 
ATOM     18  C   UNL     1      -7.537   5.545   4.156  0.00  0.00    +0.009 A 
ATOM     19  C   UNL     1      -7.912   5.854   5.476  0.00  0.00    -0.018 A 
ATOM     20  C   UNL     1      -8.948   6.765   5.741  0.00  0.00    +0.008 A 
ATOM     21  C   UNL     1      -9.289   7.043   7.029  0.00  0.00    +0.001 A 
ATOM     22  C   UNL     1      -8.625   6.437   8.094  0.00  0.00    +0.001 A 
ATOM     23  C   UNL     1      -7.617   5.549   7.876  0.00  0.00    +0.008 A 
ATOM     24  C   UNL     1      -7.237   5.237   6.559  0.00  0.00    -0.017 A 
ATOM     25  C   UNL     1      -6.205   4.321   6.298  0.00  0.00    +0.018 A 
ENDBRANCH  14  16
ENDBRANCH   1  12
BRANCH   7  26
ATOM     26  C   UNL     1      -1.921   4.640   1.890  0.00  0.00    +0.089 C 
BRANCH  26  27
ATOM     27  N   UNL     1      -2.277   5.242   0.603  0.00  0.00    -0.317 N 
ATOM     28  C   UNL     1      -3.180   6.241   0.552  0.00  0.00    +0.214 C 
ATOM     29  O   UNL     1      -3.698   6.643   1.573  0.00  0.00    -0.276 OA
ATOM     30  H   UNL     1      -1.863   4.920  -0.214  0.00  0.00    +0.149 HD
BRANCH  28  31
ATOM     31  C   UNL     1      -3.546   6.859  -0.772  0.00  0.00    +0.103 C 
BRANCH  31  32
ATOM     32  C   UNL     1      -4.496   8.037  -0.540  0.00  0.00    -0.011 C 
ATOM     33  C   UNL     1      -4.716   8.805  -1.860  0.00  0.00    +0.008 C 
ATOM     34  C   UNL     1      -4.792  10.290  -1.426  0.00  0.00    +0.001 C 
ATOM     35  C   UNL     1      -3.728  10.373  -0.303  0.00  0.00    +0.001 C 
ATOM     36  C   UNL     1      -3.867   9.034   0.449  0.00  0.00    +0.008 C 
BRANCH  32  37
ATOM     37  C   UNL     1      -5.833   7.531   0.003  0.00  0.00    +0.132 C 
BRANCH  37  38
ATOM     38  C   UNL     1      -6.491   6.646  -1.024  0.00  0.00    +0.357 C 
ATOM     39  O   UNL     1      -5.931   6.415  -2.070  0.00  0.00    -0.246 OA
ATOM     40  O   UNL     1      -7.698   6.113  -0.777  0.00  0.00    -0.246 OA
ENDBRANCH  37  38
ENDBRANCH  32  37
ENDBRANCH  31  32
ENDBRANCH  28  31
ENDBRANCH  26  27
ENDBRANCH   7  26
TORSDOF 8
