REMARK  Name = ZINC36834421
REMARK  8 active torsions:
REMARK  status: ('A' for Active; 'I' for Inactive)
REMARK    1  A    between atoms: C_1  and  C_2
REMARK    2  A    between atoms: C_2  and  O_3
REMARK    3  A    between atoms: O_3  and  C_4
REMARK    4  A    between atoms: C_4  and  C_6
REMARK    5  A    between atoms: N_11  and  C_13
REMARK    6  A    between atoms: C_13  and  C_14
REMARK    7  A    between atoms: C_17  and  C_29
REMARK    8  A    between atoms: C_20  and  C_22
REMARK                            x       y       z     vdW  Elec       q    Type
REMARK                         _______ _______ _______ _____ _____    ______ ____
ROOT
ATOM      1  C   UNL     1      -5.406  -6.592   0.218  0.00  0.00    +0.219 C 
ATOM      2  O   UNL     1      -6.377  -5.867   0.259  0.00  0.00    -0.276 OA
ATOM      3  N   UNL     1      -5.560  -7.929   0.299  0.00  0.00    -0.184 N 
ATOM      4  C   UNL     1      -6.843  -8.636   0.432  0.00  0.00    +0.172 C 
ATOM      5  C   UNL     1      -6.434 -10.122   0.477  0.00  0.00    +0.090 C 
ATOM      6  C   UNL     1      -4.927 -10.088   0.361  0.00  0.00    +0.069 C 
ATOM      7  N   UNL     1      -4.530  -8.867   0.264  0.00  0.00    -0.181 NA
ENDROOT
BRANCH   6   8
ATOM      8  C   UNL     1      -4.047 -11.272   0.355  0.00  0.00    -0.002 A 
ATOM      9  C   UNL     1      -4.595 -12.553   0.456  0.00  0.00    +0.011 A 
ATOM     10  C   UNL     1      -3.767 -13.656   0.450  0.00  0.00    +0.020 A 
ATOM     11  C   UNL     1      -2.395 -13.495   0.344  0.00  0.00    +0.041 A 
ATOM     12  C   UNL     1      -1.846 -12.228   0.244  0.00  0.00    +0.020 A 
ATOM     13  C   UNL     1      -2.663 -11.117   0.243  0.00  0.00    +0.011 A 
ATOM     14 CL   UNL     1      -1.360 -14.889   0.337  0.00  0.00    -0.084 Cl
ENDBRANCH   6   8
BRANCH   4  15
ATOM     15  C   UNL     1      -7.540  -8.236   1.707  0.00  0.00    +0.128 A 
ATOM     16  C   UNL     1      -8.864  -8.050   1.854  0.00  0.00    +0.046 A 
ATOM     17  C   UNL     1      -9.078  -7.685   3.203  0.00  0.00    +0.041 A 
ATOM     18  C   UNL     1      -7.872  -7.670   3.799  0.00  0.00    +0.195 A 
ATOM     19  O   UNL     1      -6.945  -8.010   2.889  0.00  0.00    -0.466 OA
ENDBRANCH   4  15
BRANCH   1  20
ATOM     20  C   UNL     1      -4.028  -6.000   0.078  0.00  0.00    +0.021 C 
BRANCH  20  25
ATOM     21  C   UNL     1      -2.881  -2.427   0.017  0.00  0.00    +0.081 C 
ATOM     22  C   UNL     1      -3.647  -1.960  -1.225  0.00  0.00    +0.011 C 
ATOM     23  C   UNL     1      -5.023  -2.632  -1.246  0.00  0.00    -0.018 C 
ATOM     24  C   UNL     1      -4.844  -4.151  -1.211  0.00  0.00    -0.078 C 
ATOM     25  N   UNL     1      -4.129  -4.535   0.011  0.00  0.00    +0.386 N 
ATOM     26  C   UNL     1      -2.781  -3.954   0.005  0.00  0.00    -0.064 C 
ATOM     27  H   UNL     1      -4.635  -4.198   0.816  0.00  0.00    -0.081 HD
BRANCH  21  28
ATOM     28  C   UNL     1      -1.496  -1.832   0.006  0.00  0.00    +0.308 C 
ATOM     29  O   UNL     1      -0.528  -2.555  -0.007  0.00  0.00    -0.251 OA
BRANCH  28  30
ATOM     30  O   UNL     1      -1.339  -0.499   0.012  0.00  0.00    -0.465 OA
BRANCH  30  32
ATOM     31  C   UNL     1      -0.019   1.526   0.010  0.00  0.00    +0.048 C 
ATOM     32  C   UNL     1       0.002  -0.004   0.002  0.00  0.00    +0.229 C 
ENDBRANCH  30  32
ENDBRANCH  28  30
ENDBRANCH  21  28
ENDBRANCH  20  25
ENDBRANCH   1  20
TORSDOF 7
