REMARK  Name = ZINC49508650
REMARK  7 active torsions:
REMARK  status: ('A' for Active; 'I' for Inactive)
REMARK    1  A    between atoms: C_1  and  N_2
REMARK    2  A    between atoms: C_10  and  C_12
REMARK    3  A    between atoms: C_12  and  C_14
REMARK    4  A    between atoms: C_12  and  N_35
REMARK    5  A    between atoms: C_14  and  N_15
REMARK    6  A    between atoms: C_16  and  C_18
REMARK    7  A    between atoms: N_20  and  C_21
REMARK                            x       y       z     vdW  Elec       q    Type
REMARK                         _______ _______ _______ _____ _____    ______ ____
ROOT
ATOM      1  N   UNL     1       5.266  -3.208   1.918  0.00  0.00    -0.309 N 
ATOM      2  C   UNL     1       5.902  -3.204   3.106  0.00  0.00    +0.299 C 
ATOM      3  O   UNL     1       6.969  -2.637   3.221  0.00  0.00    -0.265 OA
ATOM      4  H   UNL     1       4.413  -3.661   1.826  0.00  0.00    +0.149 HD
ENDROOT
BRANCH   2   5
ATOM      5  C   UNL     1       5.294  -3.896   4.281  0.00  0.00    +0.303 C 
ATOM      6  O   UNL     1       4.227  -4.463   4.167  0.00  0.00    -0.265 OA
ATOM      7  N   UNL     1       5.931  -3.892   5.469  0.00  0.00    -0.278 N 
ATOM      8  H   UNL     1       6.745  -3.377   5.582  0.00  0.00    +0.155 HD
BRANCH   7   9
ATOM      9  C   UNL     1       5.417  -4.630   6.540  0.00  0.00    +0.034 A 
ATOM     10  C   UNL     1       4.783  -5.843   6.308  0.00  0.00    +0.028 A 
ATOM     11  C   UNL     1       4.281  -6.580   7.366  0.00  0.00    -0.024 A 
ATOM     12  C   UNL     1       4.418  -6.107   8.663  0.00  0.00    +0.043 A 
ATOM     13  C   UNL     1       5.036  -4.884   8.894  0.00  0.00    -0.023 A 
ATOM     14  C   UNL     1       5.545  -4.154   7.838  0.00  0.00    +0.028 A 
ATOM     15  C   UNL     1       5.142  -4.336  10.293  0.00  0.00    +0.046 C 
ATOM     16  C   UNL     1       5.298  -5.481  11.292  0.00  0.00    +0.101 C 
ATOM     17  C   UNL     1       4.275  -6.547  11.008  0.00  0.00    +0.220 C 
ATOM     18  O   UNL     1       3.759  -7.143  11.931  0.00  0.00    -0.275 OA
ATOM     19  N   UNL     1       3.926  -6.847   9.746  0.00  0.00    -0.271 N 
ATOM     20  C   UNL     1       3.012  -7.969   9.491  0.00  0.00    +0.114 C 
ATOM     21  C   UNL     1       3.579  -8.777   8.316  0.00  0.00    +0.024 C 
ATOM     22  C   UNL     1       3.595  -7.888   7.072  0.00  0.00    +0.038 C 
ENDBRANCH   7   9
ENDBRANCH   2   5
BRANCH   1  23
ATOM     23  C   UNL     1       5.862  -2.529   0.765  0.00  0.00    +0.094 C 
BRANCH  23  24
ATOM     24  C   UNL     1       5.008  -2.788  -0.477  0.00  0.00    -0.020 C 
BRANCH  24  34
ATOM     25  C   UNL     1      -0.155   1.141   0.229  0.00  0.00    +0.129 C 
ATOM     26  N   UNL     1      -0.057  -0.320   0.177  0.00  0.00    -0.333 N 
ATOM     27  C   UNL     1      -1.263  -1.153   0.286  0.00  0.00    +0.105 C 
ATOM     28  C   UNL     1      -0.952  -2.304   1.252  0.00  0.00    +0.024 C 
ATOM     29  C   UNL     1       0.160  -3.164   0.654  0.00  0.00    +0.038 C 
ATOM     30  C   UNL     1       1.329  -2.306   0.246  0.00  0.00    -0.026 A 
ATOM     31  C   UNL     1       1.184  -0.945   0.017  0.00  0.00    +0.033 A 
ATOM     32  C   UNL     1       2.281  -0.183  -0.369  0.00  0.00    +0.023 A 
ATOM     33  C   UNL     1       3.516  -0.779  -0.529  0.00  0.00    +0.004 A 
ATOM     34  C   UNL     1       3.660  -2.136  -0.304  0.00  0.00    -0.059 A 
ATOM     35  C   UNL     1       2.571  -2.897   0.090  0.00  0.00    +0.007 A 
ENDBRANCH  24  34
BRANCH  24  36
ATOM     36  N   UNL     1       5.676  -2.224  -1.658  0.00  0.00    +0.385 N 
ATOM     37  C   UNL     1       6.915  -2.986  -1.958  0.00  0.00    -0.078 C 
ATOM     38  C   UNL     1       7.170  -2.674  -3.454  0.00  0.00    -0.020 C 
ATOM     39  C   UNL     1       5.743  -2.644  -4.048  0.00  0.00    -0.020 C 
ATOM     40  C   UNL     1       4.814  -2.370  -2.850  0.00  0.00    -0.078 C 
ATOM     41  H   UNL     1       5.894  -1.251  -1.503  0.00  0.00    -0.081 HD
ENDBRANCH  24  36
ENDBRANCH  23  24
ENDBRANCH   1  23
TORSDOF 6
