REMARK  Name = ZINC36601025
REMARK  10 active torsions:
REMARK  status: ('A' for Active; 'I' for Inactive)
REMARK    1  A    between atoms: C_1  and  C_2
REMARK    2  A    between atoms: C_5  and  C_7
REMARK    3  A    between atoms: C_7  and  N_8
REMARK    4  A    between atoms: N_8  and  C_9
REMARK    5  A    between atoms: C_9  and  C_11
REMARK    6  A    between atoms: C_9  and  C_20
REMARK    7  A    between atoms: N_22  and  C_23
REMARK    8  A    between atoms: C_29  and  C_31
REMARK    9  A    between atoms: C_31  and  N_32
REMARK   10  A    between atoms: C_33  and  C_35
REMARK                            x       y       z     vdW  Elec       q    Type
REMARK                         _______ _______ _______ _____ _____    ______ ____
ROOT
ATOM      1  N   UNL     1       1.921  -3.727  -1.376  0.00  0.00    -0.277 N 
ATOM      2  C   UNL     1       1.502  -4.984  -1.623  0.00  0.00    +0.234 C 
ATOM      3  O   UNL     1       2.133  -5.697  -2.374  0.00  0.00    -0.274 OA
ENDROOT
BRANCH   1   4
ATOM      4  C   UNL     1       1.159  -2.866  -0.469  0.00  0.00    +0.183 C 
BRANCH   4   9
ATOM      5  C   UNL     1      -1.333   0.727  -2.983  0.00  0.00    +0.086 C 
ATOM      6  C   UNL     1      -1.007  -0.593  -2.333  0.00  0.00    +0.102 A 
ATOM      7  C   UNL     1      -1.809  -1.672  -2.298  0.00  0.00    +0.045 A 
ATOM      8  C   UNL     1      -1.111  -2.679  -1.594  0.00  0.00    +0.046 A 
ATOM      9  C   UNL     1       0.076  -2.155  -1.240  0.00  0.00    +0.122 A 
ATOM     10  O   UNL     1       0.136  -0.893  -1.696  0.00  0.00    -0.463 OA
ENDBRANCH   4   9
ENDBRANCH   1   4
BRANCH   1  11
ATOM     11  C   UNL     1       3.138  -3.221  -2.016  0.00  0.00    +0.193 C 
BRANCH  11  12
ATOM     12  C   UNL     1       4.346  -3.767  -1.300  0.00  0.00    -0.015 A 
ATOM     13  C   UNL     1       4.392  -3.753   0.082  0.00  0.00    +0.010 A 
ATOM     14  C   UNL     1       5.498  -4.253   0.744  0.00  0.00    +0.050 A 
ATOM     15  C   UNL     1       6.564  -4.768   0.024  0.00  0.00    +0.166 A 
ATOM     16  C   UNL     1       6.517  -4.781  -1.368  0.00  0.00    +0.167 A 
ATOM     17  C   UNL     1       5.403  -4.284  -2.025  0.00  0.00    +0.055 A 
ATOM     18  O   UNL     1       7.673  -5.333  -1.838  0.00  0.00    -0.453 OA
ATOM     19  C   UNL     1       8.599  -5.282  -0.737  0.00  0.00    +0.466 C 
ATOM     20  O   UNL     1       7.750  -5.311   0.425  0.00  0.00    -0.453 OA
ENDBRANCH  11  12
BRANCH  11  21
ATOM     21  C   UNL     1       3.151  -1.716  -1.950  0.00  0.00    +0.238 C 
ATOM     22  O   UNL     1       2.280  -1.127  -1.346  0.00  0.00    -0.273 OA
ATOM     23  N   UNL     1       4.132  -1.023  -2.563  0.00  0.00    -0.311 N 
ATOM     24  H   UNL     1       4.829  -1.494  -3.047  0.00  0.00    +0.149 HD
BRANCH  23  25
ATOM     25  C   UNL     1       4.146   0.440  -2.499  0.00  0.00    +0.073 C 
ATOM     26  C   UNL     1       3.254   1.007  -3.606  0.00  0.00    +0.022 C 
ATOM     27  C   UNL     1       3.268   2.536  -3.539  0.00  0.00    +0.002 C 
ATOM     28  C   UNL     1       4.700   3.041  -3.728  0.00  0.00    +0.000 C 
ATOM     29  C   UNL     1       5.591   2.474  -2.621  0.00  0.00    +0.002 C 
ATOM     30  C   UNL     1       5.577   0.946  -2.688  0.00  0.00    +0.022 C 
ENDBRANCH  23  25
ENDBRANCH  11  21
ENDBRANCH   1  11
BRANCH   2  31
ATOM     31  C   UNL     1       0.250  -5.504  -0.964  0.00  0.00    +0.200 C 
BRANCH  31  32
ATOM     32  N   UNL     1       0.012  -6.885  -1.391  0.00  0.00    -0.303 N 
ATOM     33  C   UNL     1      -1.059  -7.559  -0.926  0.00  0.00    +0.244 C 
ATOM     34  O   UNL     1      -1.827  -7.020  -0.153  0.00  0.00    -0.270 OA
ATOM     35  H   UNL     1       0.625  -7.315  -2.008  0.00  0.00    +0.150 HD
BRANCH  33  36
ATOM     36  C   UNL     1      -1.300  -8.953  -1.357  0.00  0.00    +0.037 A 
ATOM     37  C   UNL     1      -0.416  -9.576  -2.240  0.00  0.00    +0.013 A 
ATOM     38  C   UNL     1      -0.647 -10.877  -2.638  0.00  0.00    +0.001 A 
ATOM     39  C   UNL     1      -1.750 -11.563  -2.163  0.00  0.00    +0.000 A 
ATOM     40  C   UNL     1      -2.630 -10.951  -1.288  0.00  0.00    +0.001 A 
ATOM     41  C   UNL     1      -2.408  -9.653  -0.877  0.00  0.00    +0.013 A 
ENDBRANCH  33  36
ENDBRANCH  31  32
ENDBRANCH   2  31
TORSDOF 9
