REMARK  Name = ZINC40367944
REMARK  15 active torsions:
REMARK  status: ('A' for Active; 'I' for Inactive)
REMARK    1  A    between atoms: C_1  and  C_2
REMARK    2  A    between atoms: C_2  and  C_3
REMARK    3  A    between atoms: C_2  and  C_4
REMARK    4  A    between atoms: C_4  and  N_5
REMARK    5  A    between atoms: C_6  and  C_8
REMARK    6  A    between atoms: C_11  and  C_14
REMARK    7  A    between atoms: C_14  and  S_15
REMARK    8  A    between atoms: S_15  and  C_16
REMARK    9  A    between atoms: N_23  and  C_24
REMARK   10  A    between atoms: N_23  and  C_29
REMARK   11  A    between atoms: C_24  and  C_25
REMARK   12  A    between atoms: C_25  and  N_26
REMARK   13  A    between atoms: N_26  and  C_27
REMARK   14  A    between atoms: N_26  and  C_28
REMARK   15  A    between atoms: C_29  and  C_30
REMARK                            x       y       z     vdW  Elec       q    Type
REMARK                         _______ _______ _______ _____ _____    ______ ____
ROOT
ATOM      1  C   UNL     1      11.103   0.512  -1.244  0.00  0.00    +0.192 A 
ATOM      2  N   UNL     1      12.080  -0.215  -0.721  0.00  0.00    -0.207 NA
ATOM      3  C   UNL     1      13.332   0.233  -0.722  0.00  0.00    +0.127 A 
ATOM      4  C   UNL     1      13.605   1.481  -1.282  0.00  0.00    +0.084 A 
ATOM      5  C   UNL     1      12.558   2.208  -1.817  0.00  0.00    +0.135 A 
ATOM      6  N   UNL     1      11.334   1.699  -1.787  0.00  0.00    -0.210 NA
ATOM      7 CL   UNL     1      12.842   3.767  -2.526  0.00  0.00    -0.062 Cl
ATOM      8  N   UNL     1      14.351  -0.530  -0.173  0.00  0.00    -0.312 N 
ENDROOT
BRANCH   1   9
ATOM      9  S   UNL     1       9.458  -0.118  -1.223  0.00  0.00    -0.081 S 
BRANCH   9  10
ATOM     10  C   UNL     1       8.481   1.178  -2.033  0.00  0.00    +0.112 C 
BRANCH  10  14
ATOM     11  C   UNL     1       4.375  -0.008  -2.172  0.00  0.00    +0.037 A 
ATOM     12  C   UNL     1       4.860   0.713  -1.079  0.00  0.00    +0.013 A 
ATOM     13  C   UNL     1       6.186   1.092  -1.040  0.00  0.00    +0.005 A 
ATOM     14  C   UNL     1       7.034   0.760  -2.082  0.00  0.00    -0.037 A 
ATOM     15  C   UNL     1       6.559   0.046  -3.168  0.00  0.00    +0.005 A 
ATOM     16  C   UNL     1       5.237  -0.344  -3.216  0.00  0.00    +0.013 A 
BRANCH  11  18
ATOM     17  N   UNL     1       2.125  -0.091  -1.209  0.00  0.00    -0.311 N 
ATOM     18  C   UNL     1       2.955  -0.418  -2.220  0.00  0.00    +0.244 C 
ATOM     19  O   UNL     1       2.537  -1.050  -3.170  0.00  0.00    -0.270 OA
ATOM     20  H   UNL     1       2.459   0.413  -0.451  0.00  0.00    +0.149 HD
BRANCH  17  21
ATOM     21  C   UNL     1       0.718  -0.497  -1.257  0.00  0.00    +0.107 C 
BRANCH  21  23
ATOM     22  C   UNL     1      -0.019   1.526   0.010  0.00  0.00    +0.009 C 
ATOM     23  C   UNL     1       0.002  -0.004   0.002  0.00  0.00    -0.000 C 
ATOM     24  C   UNL     1      -1.433  -0.534   0.013  0.00  0.00    +0.009 C 
ENDBRANCH  21  23
ENDBRANCH  17  21
ENDBRANCH  11  18
ENDBRANCH  10  14
ENDBRANCH   9  10
ENDBRANCH   1   9
BRANCH   8  25
ATOM     25  C   UNL     1      15.706   0.017  -0.080  0.00  0.00    +0.088 C 
BRANCH  25  26
ATOM     26  C   UNL     1      15.874   0.740   1.258  0.00  0.00    -0.060 C 
BRANCH  26  27
ATOM     27  N   UNL     1      17.233   1.288   1.352  0.00  0.00    +0.377 N 
ATOM     28  C   UNL     1      17.415   2.324   0.326  0.00  0.00    -0.097 C 
ATOM     29  C   UNL     1      17.433   1.877   2.683  0.00  0.00    -0.097 C 
ATOM     30  H   UNL     1      17.905   0.550   1.207  0.00  0.00    -0.083 HD
ENDBRANCH  26  27
ENDBRANCH  25  26
ENDBRANCH   8  25
BRANCH   8  31
ATOM     31  C   UNL     1      14.072  -1.883   0.313  0.00  0.00    +0.141 C 
BRANCH  31  32
ATOM     32  C   UNL     1      14.276  -2.872  -0.806  0.00  0.00    -0.030 A 
ATOM     33  C   UNL     1      13.224  -3.198  -1.641  0.00  0.00    +0.005 A 
ATOM     34  C   UNL     1      13.411  -4.105  -2.667  0.00  0.00    +0.000 A 
ATOM     35  C   UNL     1      14.652  -4.684  -2.860  0.00  0.00    +0.000 A 
ATOM     36  C   UNL     1      15.704  -4.357  -2.026  0.00  0.00    +0.000 A 
ATOM     37  C   UNL     1      15.518  -3.447  -1.002  0.00  0.00    +0.005 A 
ENDBRANCH  31  32
ENDBRANCH   8  31
TORSDOF 11
