REMARK  Name = ZINC59057903
REMARK  7 active torsions:
REMARK  status: ('A' for Active; 'I' for Inactive)
REMARK    1  A    between atoms: C_1  and  C_2
REMARK    2  A    between atoms: N_4  and  C_5
REMARK    3  A    between atoms: N_4  and  C_23
REMARK    4  A    between atoms: C_5  and  C_6
REMARK    5  A    between atoms: C_11  and  O_12
REMARK    6  A    between atoms: O_12  and  C_13
REMARK    7  A    between atoms: C_13  and  C_14
REMARK                            x       y       z     vdW  Elec       q    Type
REMARK                         _______ _______ _______ _____ _____    ______ ____
ROOT
ATOM      1  C   UNL     1      -0.035  -2.915  -1.091  0.00  0.00    +0.152 C 
ENDROOT
BRANCH   1   2
ATOM      2  C   UNL     1      -1.385  -3.333  -0.569  0.00  0.00    +0.015 A 
ATOM      3  C   UNL     1      -1.522  -3.746   0.743  0.00  0.00    +0.029 A 
ATOM      4  C   UNL     1      -2.761  -4.130   1.223  0.00  0.00    +0.043 A 
ATOM      5  C   UNL     1      -3.866  -4.103   0.391  0.00  0.00    +0.043 A 
ATOM      6  C   UNL     1      -3.735  -3.692  -0.922  0.00  0.00    +0.084 A 
ATOM      7  C   UNL     1      -2.493  -3.299  -1.403  0.00  0.00    +0.144 A 
ATOM      8 CL   UNL     1      -5.121  -3.658  -1.965  0.00  0.00    -0.080 Cl
ATOM      9 CL   UNL     1      -2.929  -4.649   2.871  0.00  0.00    -0.083 Cl
BRANCH   7  10
ATOM     10  O   UNL     1      -2.361  -2.888  -2.692  0.00  0.00    -0.486 OA
BRANCH  10  11
ATOM     11  C   UNL     1      -1.998  -3.880  -3.655  0.00  0.00    +0.266 C 
BRANCH  11  12
ATOM     12  C   UNL     1      -1.798  -3.226  -4.998  0.00  0.00    +0.008 A 
ATOM     13  C   UNL     1      -2.027  -1.871  -5.149  0.00  0.00    +0.008 A 
ATOM     14  C   UNL     1      -1.844  -1.272  -6.380  0.00  0.00    +0.000 A 
ATOM     15  C   UNL     1      -1.431  -2.026  -7.463  0.00  0.00    +0.001 A 
ATOM     16  C   UNL     1      -1.201  -3.381  -7.314  0.00  0.00    +0.020 A 
ATOM     17  C   UNL     1      -1.379  -3.981  -6.080  0.00  0.00    +0.047 A 
ATOM     18 CL   UNL     1      -1.085  -5.681  -5.890  0.00  0.00    -0.083 Cl
ENDBRANCH  11  12
ENDBRANCH  10  11
ENDBRANCH   7  10
ENDBRANCH   1   2
BRANCH   1  22
ATOM     19  C   UNL     1       2.492  -3.925   1.599  0.00  0.00    +0.109 C 
ATOM     20  C   UNL     1       1.583  -3.964   0.398  0.00  0.00    +0.217 C 
ATOM     21  O   UNL     1       1.447  -4.995  -0.226  0.00  0.00    -0.276 OA
ATOM     22  N   UNL     1       0.920  -2.854   0.018  0.00  0.00    -0.267 N 
BRANCH  22  23
ATOM     23  C   UNL     1       1.144  -1.642   0.683  0.00  0.00    +0.039 A 
ATOM     24  C   UNL     1       0.498  -1.381   1.887  0.00  0.00    +0.025 A 
ATOM     25  C   UNL     1       0.715  -0.189   2.547  0.00  0.00    +0.029 A 
ATOM     26  C   UNL     1       1.580   0.753   2.009  0.00  0.00    +0.067 A 
ATOM     27  C   UNL     1       2.230   0.494   0.801  0.00  0.00    +0.069 A 
ATOM     28  C   UNL     1       2.014  -0.707   0.143  0.00  0.00    +0.051 A 
ATOM     29  N   UNL     1       3.019   1.607   0.522  0.00  0.00    -0.306 N 
ATOM     30  H   UNL     1       3.588   1.719  -0.256  0.00  0.00    +0.170 HD
ATOM     31  C   UNL     1       2.857   2.503   1.514  0.00  0.00    +0.325 A 
ATOM     32  O   UNL     1       3.407   3.587   1.576  0.00  0.00    -0.247 OA
ATOM     33  N   UNL     1       1.995   2.017   2.427  0.00  0.00    -0.306 N 
ATOM     34  H   UNL     1       1.711   2.470   3.237  0.00  0.00    +0.170 HD
ENDBRANCH  22  23
ENDBRANCH   1  22
TORSDOF 6
