REMARK  Name = ZINC08763874
REMARK  11 active torsions:
REMARK  status: ('A' for Active; 'I' for Inactive)
REMARK    1  A    between atoms: C_1  and  C_2
REMARK    2  A    between atoms: C_4  and  C_33
REMARK    3  A    between atoms: C_6  and  O_8
REMARK    4  A    between atoms: O_8  and  C_9
REMARK    5  A    between atoms: C_14  and  O_20
REMARK    6  A    between atoms: O_20  and  C_21
REMARK    7  A    between atoms: C_21  and  C_22
REMARK    8  A    between atoms: C_22  and  C_24
REMARK    9  A    between atoms: C_22  and  O_32
REMARK   10  A    between atoms: C_24  and  N_63
REMARK   11  A    between atoms: C_29  and  C_31
REMARK                            x       y       z     vdW  Elec       q    Type
REMARK                         _______ _______ _______ _____ _____    ______ ____
ROOT
ATOM      1  C   UNL     1      10.728   3.497  -8.080  0.00  0.00    +0.210 A 
ATOM      2  C   UNL     1       9.780   2.928  -8.851  0.00  0.00    +0.245 A 
ATOM      3  O   UNL     1       8.578   2.576  -8.378  0.00  0.00    -0.459 OA
ATOM      4  C   UNL     1       8.224   2.764  -7.091  0.00  0.00    +0.142 A 
ATOM      5  C   UNL     1       6.969   2.387  -6.633  0.00  0.00    +0.092 A 
ATOM      6  C   UNL     1       6.631   2.592  -5.306  0.00  0.00    +0.124 A 
ATOM      7  C   UNL     1       7.539   3.179  -4.426  0.00  0.00    +0.046 A 
ATOM      8  C   UNL     1       8.779   3.551  -4.860  0.00  0.00    +0.019 A 
ATOM      9  C   UNL     1       9.135   3.350  -6.195  0.00  0.00    +0.068 A 
ATOM     10  C   UNL     1      10.460   3.743  -6.704  0.00  0.00    +0.234 A 
ATOM     11  O   UNL     1      11.294   4.256  -5.976  0.00  0.00    -0.283 OA
ENDROOT
BRANCH   1  12
ATOM     12  O   UNL     1      11.934   3.836  -8.615  0.00  0.00    -0.449 OA
BRANCH  12  18
ATOM     13  C   UNL     1      13.573  -0.494  -7.071  0.00  0.00    +0.044 C 
ATOM     14  C   UNL     1      13.806   0.851  -7.710  0.00  0.00    -0.047 A 
ATOM     15  C   UNL     1      15.073   1.203  -8.136  0.00  0.00    +0.007 A 
ATOM     16  C   UNL     1      15.290   2.437  -8.721  0.00  0.00    -0.047 A 
ATOM     17  C   UNL     1      14.241   3.320  -8.883  0.00  0.00    +0.049 A 
ATOM     18  C   UNL     1      12.968   2.969  -8.457  0.00  0.00    +0.129 A 
ATOM     19  C   UNL     1      12.754   1.733  -7.864  0.00  0.00    +0.049 A 
ATOM     20  C   UNL     1      16.673   2.818  -9.184  0.00  0.00    +0.044 C 
ENDBRANCH  12  18
ENDBRANCH   1  12
BRANCH   6  21
ATOM     21  O   UNL     1       5.404   2.223  -4.859  0.00  0.00    -0.489 OA
BRANCH  21  22
ATOM     22  C   UNL     1       5.117   2.462  -3.480  0.00  0.00    +0.258 C 
BRANCH  22  23
ATOM     23  C   UNL     1       3.698   1.984  -3.164  0.00  0.00    +0.135 C 
BRANCH  23  24
ATOM     24  O   UNL     1       3.625   0.566  -3.326  0.00  0.00    -0.390 OA
ATOM     25  H   UNL     1       4.227   0.074  -2.751  0.00  0.00    +0.210 HD
ENDBRANCH  23  24
BRANCH  23  26
ATOM     26  C   UNL     1       3.345   2.352  -1.722  0.00  0.00    -0.043 C 
BRANCH  26  33
ATOM     27  C   UNL     1       1.755   0.588  -1.252  0.00  0.00    -0.078 C 
ATOM     28  C   UNL     1       0.263   0.271  -1.133  0.00  0.00    -0.019 C 
ATOM     29  C   UNL     1      -0.329   1.057   0.041  0.00  0.00    -0.003 C 
ATOM     30  C   UNL     1      -0.085   2.552  -0.182  0.00  0.00    -0.016 C 
ATOM     31  C   UNL     1       1.417   2.803  -0.329  0.00  0.00    -0.072 C 
ATOM     32  C   UNL     1       1.664   4.293  -0.571  0.00  0.00    -0.013 C 
ATOM     33  N   UNL     1       1.920   2.038  -1.489  0.00  0.00    +0.383 N 
ATOM     34  H   UNL     1       1.381   2.303  -2.322  0.00  0.00    -0.081 HD
ENDBRANCH  26  33
ENDBRANCH  23  26
ENDBRANCH  22  23
ENDBRANCH  21  22
ENDBRANCH   6  21
TORSDOF 8
