REMARK  Name = ZINC36591577
REMARK  19 active torsions:
REMARK  status: ('A' for Active; 'I' for Inactive)
REMARK    1  A    between atoms: C_1  and  C_2
REMARK    2  A    between atoms: C_2  and  C_3
REMARK    3  A    between atoms: C_2  and  C_4
REMARK    4  A    between atoms: C_2  and  C_5
REMARK    5  A    between atoms: C_5  and  C_6
REMARK    6  A    between atoms: C_6  and  C_7
REMARK    7  A    between atoms: C_6  and  C_8
REMARK    8  A    between atoms: C_6  and  N_9
REMARK    9  A    between atoms: C_10  and  C_12
REMARK   10  A    between atoms: C_12  and  C_14
REMARK   11  A    between atoms: C_12  and  N_23
REMARK   12  A    between atoms: C_17  and  N_20
REMARK   13  A    between atoms: N_20  and  C_21
REMARK   14  A    between atoms: N_20  and  C_22
REMARK   15  A    between atoms: N_23  and  C_33
REMARK   16  A    between atoms: C_24  and  C_26
REMARK   17  A    between atoms: C_33  and  C_34
REMARK   18  A    between atoms: C_33  and  C_35
REMARK   19  A    between atoms: C_33  and  C_36
REMARK                            x       y       z     vdW  Elec       q    Type
REMARK                         _______ _______ _______ _____ _____    ______ ____
ROOT
ATOM      1  C   UNL     1       4.200   0.227  -2.331  0.00  0.00    +0.193 C 
ENDROOT
BRANCH   1   2
ATOM      2  C   UNL     1       3.866  -1.234  -2.483  0.00  0.00    -0.018 A 
ATOM      3  C   UNL     1       4.881  -2.165  -2.609  0.00  0.00    +0.008 A 
ATOM      4  C   UNL     1       4.578  -3.505  -2.748  0.00  0.00    +0.023 A 
ATOM      5  C   UNL     1       3.252  -3.918  -2.762  0.00  0.00    +0.029 A 
ATOM      6  C   UNL     1       2.235  -2.981  -2.635  0.00  0.00    +0.023 A 
ATOM      7  C   UNL     1       2.545  -1.643  -2.490  0.00  0.00    +0.008 A 
BRANCH   5   8
ATOM      8  N   UNL     1       2.942  -5.273  -2.903  0.00  0.00    -0.336 N 
ATOM      9  C   UNL     1       4.016  -6.260  -3.037  0.00  0.00    +0.129 C 
ATOM     10  C   UNL     1       1.543  -5.707  -2.917  0.00  0.00    +0.129 C 
ENDBRANCH   5   8
ENDBRANCH   1   2
BRANCH   1  12
ATOM     11  N   UNL     1       3.845   0.738   0.063  0.00  0.00    -0.308 N 
ATOM     12  C   UNL     1       4.712   0.483  -0.937  0.00  0.00    +0.239 C 
ATOM     13  O   UNL     1       5.904   0.460  -0.715  0.00  0.00    -0.273 OA
ATOM     14  H   UNL     1       2.892   0.757  -0.115  0.00  0.00    +0.149 HD
BRANCH  11  15
ATOM     15  C   UNL     1       4.343   0.987   1.418  0.00  0.00    +0.030 C 
ATOM     16  C   UNL     1       5.451   2.041   1.369  0.00  0.00    +0.031 C 
ATOM     17  C   UNL     1       4.901  -0.312   2.003  0.00  0.00    +0.031 C 
BRANCH  15  18
ATOM     18  C   UNL     1       3.198   1.492   2.297  0.00  0.00    +0.031 C 
BRANCH  18  20
ATOM     19  C   UNL     1       1.436   1.830   0.558  0.00  0.00    +0.010 C 
ATOM     20  C   UNL     1       2.386   2.536   1.528  0.00  0.00    -0.036 C 
ATOM     21  C   UNL     1       3.336   3.442   0.741  0.00  0.00    +0.010 C 
ATOM     22  C   UNL     1       1.575   3.380   2.513  0.00  0.00    +0.010 C 
ENDBRANCH  18  20
ENDBRANCH  15  18
ENDBRANCH  11  15
ENDBRANCH   1  12
BRANCH   1  23
ATOM     23  N   UNL     1       5.230   0.596  -3.305  0.00  0.00    -0.279 N 
ATOM     24  C   UNL     1       4.911   0.720  -4.609  0.00  0.00    +0.237 C 
ATOM     25  O   UNL     1       5.777   0.952  -5.426  0.00  0.00    -0.274 OA
BRANCH  24  26
ATOM     26  C   UNL     1       3.479   0.571  -5.052  0.00  0.00    +0.159 C 
ATOM     27  C   UNL     1       3.128  -0.922  -5.234  0.00  0.00    +0.041 C 
ATOM     28  C   UNL     1       3.407  -1.130  -6.740  0.00  0.00    +0.098 C 
ATOM     29  C   UNL     1       3.251   0.250  -7.340  0.00  0.00    +0.214 C 
ATOM     30  O   UNL     1       3.111   0.481  -8.523  0.00  0.00    -0.276 OA
ATOM     31  N   UNL     1       3.289   1.184  -6.372  0.00  0.00    -0.304 N 
ATOM     32  H   UNL     1       3.202   2.138  -6.525  0.00  0.00    +0.149 HD
ENDBRANCH  24  26
BRANCH  23  33
ATOM     33  C   UNL     1       6.607   0.830  -2.862  0.00  0.00    +0.030 C 
ATOM     34  C   UNL     1       7.141  -0.426  -2.171  0.00  0.00    +0.031 C 
ATOM     35  C   UNL     1       7.483   1.158  -4.073  0.00  0.00    +0.031 C 
ATOM     36  C   UNL     1       6.634   2.003  -1.881  0.00  0.00    +0.031 C 
ENDBRANCH  23  33
ENDBRANCH   1  23
TORSDOF 9
