REMARK  Name = ZINC39674726
REMARK  8 active torsions:
REMARK  status: ('A' for Active; 'I' for Inactive)
REMARK    1  A    between atoms: C_1  and  C_2
REMARK    2  A    between atoms: C_5  and  C_9
REMARK    3  A    between atoms: C_13  and  C_22
REMARK    4  A    between atoms: N_24  and  C_25
REMARK    5  A    between atoms: C_25  and  C_26
REMARK    6  A    between atoms: C_26  and  C_27
REMARK    7  A    between atoms: C_30  and  C_38
REMARK    8  A    between atoms: C_35  and  C_37
REMARK                            x       y       z     vdW  Elec       q    Type
REMARK                         _______ _______ _______ _____ _____    ______ ____
ROOT
ATOM      1  C   UNL     1       0.058  -4.251  -0.024  0.00  0.00    +0.247 C 
ATOM      2  O   UNL     1      -0.048  -4.852  -1.075  0.00  0.00    -0.270 OA
ATOM      3  N   UNL     1       0.174  -4.931   1.134  0.00  0.00    -0.296 N 
ATOM      4  C   UNL     1       0.185  -4.386   2.511  0.00  0.00    +0.121 C 
ATOM      5  C   UNL     1      -0.634  -5.401   3.340  0.00  0.00    +0.100 C 
ATOM      6  C   UNL     1      -0.539  -6.718   2.551  0.00  0.00    -0.004 C 
ATOM      7  C   UNL     1       0.315  -6.396   1.316  0.00  0.00    +0.115 C 
ATOM      8  C   UNL     1       0.138  -7.793   3.397  0.00  0.00    -0.010 C 
ATOM      9  C   UNL     1       0.168  -9.108   2.613  0.00  0.00    -0.082 C 
ATOM     10  N   UNL     1      -1.202  -9.512   2.277  0.00  0.00    +0.379 N 
ATOM     11  C   UNL     1      -1.814  -8.518   1.388  0.00  0.00    -0.082 C 
ATOM     12  C   UNL     1      -1.928  -7.177   2.120  0.00  0.00    -0.010 C 
ATOM     13  H   UNL     1      -1.183 -10.409   1.815  0.00  0.00    -0.086 HD
ATOM     14  H   UNL     1      -1.747  -9.585   3.124  0.00  0.00    -0.086 HD
ENDROOT
BRANCH   1  19
ATOM     15  C   UNL     1       0.064   1.506   0.014  0.00  0.00    +0.047 C 
ATOM     16  C   UNL     1       0.061  -0.001   0.004  0.00  0.00    -0.015 A 
ATOM     17  C   UNL     1       0.666  -0.698   1.035  0.00  0.00    +0.007 A 
ATOM     18  C   UNL     1       0.668  -2.078   1.032  0.00  0.00    +0.013 A 
ATOM     19  C   UNL     1       0.058  -2.772  -0.015  0.00  0.00    +0.040 A 
ATOM     20  C   UNL     1      -0.551  -2.065  -1.052  0.00  0.00    +0.051 A 
ATOM     21  C   UNL     1      -0.551  -0.683  -1.035  0.00  0.00    +0.127 A 
ATOM     22  F   UNL     1      -1.145   0.004  -2.036  0.00  0.00    -0.205 F 
ENDBRANCH   1  19
BRANCH   5  23
ATOM     23  C   UNL     1      -0.033  -5.564   4.712  0.00  0.00    +0.218 C 
ATOM     24  O   UNL     1       1.143  -5.332   4.891  0.00  0.00    -0.275 OA
ATOM     25  N   UNL     1      -0.804  -5.969   5.741  0.00  0.00    -0.315 N 
ATOM     26  H   UNL     1      -1.745  -6.155   5.598  0.00  0.00    +0.149 HD
BRANCH  25  27
ATOM     27  C   UNL     1      -0.220  -6.127   7.075  0.00  0.00    +0.108 C 
BRANCH  27  28
ATOM     28  C   UNL     1      -1.301  -6.592   8.053  0.00  0.00    +0.052 C 
BRANCH  28  29
ATOM     29  C   UNL     1      -0.701  -6.755   9.426  0.00  0.00    -0.037 C 
ATOM     30  C   UNL     1       0.589  -6.530   9.785  0.00  0.00    +0.000 A 
ATOM     31  C   UNL     1       1.717  -6.098   9.040  0.00  0.00    +0.028 A 
ATOM     32  C   UNL     1       2.937  -5.948   9.659  0.00  0.00    +0.052 A 
ATOM     33  C   UNL     1       3.103  -6.226  11.081  0.00  0.00    +0.021 A 
ATOM     34  C   UNL     1       2.066  -6.638  11.839  0.00  0.00    +0.027 A 
ATOM     35  C   UNL     1       0.744  -6.814  11.228  0.00  0.00    +0.043 A 
ATOM     36  N   UNL     1      -0.399  -7.199  11.742  0.00  0.00    -0.378 N 
ATOM     37  C   UNL     1      -1.414  -7.197  10.684  0.00  0.00    +0.103 C 
ATOM     38  C   UNL     1      -2.536  -6.214  11.026  0.00  0.00    +0.035 C 
ATOM     39  H   UNL     1      -0.550  -7.440  12.669  0.00  0.00    +0.160 HD
BRANCH  32  40
ATOM     40  C   UNL     1       4.065  -5.512   8.892  0.00  0.00    +0.099 C 
ATOM     41  N   UNL     1       4.959  -5.166   8.284  0.00  0.00    -0.191 NA
ENDBRANCH  32  40
ENDBRANCH  28  29
ENDBRANCH  27  28
ENDBRANCH  25  27
ENDBRANCH   5  23
TORSDOF 6
