REMARK  Name = ZINC00907715
REMARK  9 active torsions:
REMARK  status: ('A' for Active; 'I' for Inactive)
REMARK    1  A    between atoms: C_1  and  C_2
REMARK    2  A    between atoms: C_2  and  C_3
REMARK    3  A    between atoms: C_3  and  C_4
REMARK    4  A    between atoms: C_3  and  C_5
REMARK    5  A    between atoms: C_3  and  N_6
REMARK    6  A    between atoms: C_7  and  C_11
REMARK    7  A    between atoms: C_11  and  C_13
REMARK    8  A    between atoms: C_11  and  N_62
REMARK    9  A    between atoms: C_17  and  C_25
REMARK                            x       y       z     vdW  Elec       q    Type
REMARK                         _______ _______ _______ _____ _____    ______ ____
ROOT
ATOM      1  C   UNL     1      -0.675  -1.769   1.456  0.00  0.00    +0.039 C 
ENDROOT
BRANCH   1   2
ATOM      2  C   UNL     1      -2.020  -1.361   0.913  0.00  0.00    +0.011 A 
ATOM      3  C   UNL     1      -2.587  -2.072  -0.093  0.00  0.00    +0.017 A 
ATOM      4  C   UNL     1      -3.894  -1.650  -0.598  0.00  0.00    -0.001 A 
ATOM      5  C   UNL     1      -4.528  -2.344  -1.634  0.00  0.00    +0.013 A 
ATOM      6  C   UNL     1      -5.748  -1.924  -2.083  0.00  0.00    -0.050 A 
ATOM      7  C   UNL     1      -6.365  -0.815  -1.519  0.00  0.00    +0.005 A 
ATOM      8  C   UNL     1      -5.759  -0.117  -0.498  0.00  0.00    +0.026 A 
ATOM      9  C   UNL     1      -4.516  -0.525  -0.024  0.00  0.00    +0.049 A 
ATOM     10  N   UNL     1      -3.888   0.154   0.997  0.00  0.00    -0.322 N 
ATOM     11  H   UNL     1      -4.330   0.955   1.401  0.00  0.00    +0.169 HD
ATOM     12  C   UNL     1      -2.689  -0.244   1.458  0.00  0.00    +0.251 A 
ATOM     13  O   UNL     1      -2.165   0.378   2.365  0.00  0.00    -0.268 OA
ATOM     14  C   UNL     1      -6.431  -2.671  -3.199  0.00  0.00    +0.044 C 
ENDBRANCH   1   2
BRANCH   1  21
ATOM     15  C   UNL     1       0.418  -0.168  -0.005  0.00  0.00    -0.077 C 
ATOM     16  C   UNL     1       0.708   1.311   0.024  0.00  0.00    -0.019 C 
ATOM     17  C   UNL     1       2.220   1.593  -0.011  0.00  0.00    -0.002 C 
ATOM     18  C   UNL     1       3.010   0.615   0.881  0.00  0.00    -0.002 C 
ATOM     19  C   UNL     1       2.326   0.351   2.199  0.00  0.00    -0.019 C 
ATOM     20  C   UNL     1       1.439  -0.905   2.063  0.00  0.00    -0.077 C 
ATOM     21  N   UNL     1       0.214  -0.594   1.415  0.00  0.00    +0.389 N 
ATOM     22  H   UNL     1      -0.232   0.179   1.924  0.00  0.00    -0.080 HD
ENDBRANCH   1  21
BRANCH   1  24
ATOM     23  N   UNL     1      -0.687  -3.461   3.364  0.00  0.00    -0.225 N 
ATOM     24  C   UNL     1      -0.824  -2.209   2.890  0.00  0.00    +0.143 A 
ATOM     25  N   UNL     1      -1.119  -1.448   3.915  0.00  0.00    -0.115 NA
ATOM     26  N   UNL     1      -1.155  -2.193   4.966  0.00  0.00    -0.023 NA
ATOM     27  N   UNL     1      -0.891  -3.409   4.637  0.00  0.00    -0.043 NA
BRANCH  23  28
ATOM     28  C   UNL     1      -0.362  -4.657   2.583  0.00  0.00    +0.061 C 
ATOM     29  C   UNL     1      -1.407  -4.846   1.481  0.00  0.00    +0.036 C 
ATOM     30  C   UNL     1       1.022  -4.494   1.952  0.00  0.00    +0.036 C 
BRANCH  28  32
ATOM     31  C   UNL     1      -0.024  -7.131   2.685  0.00  0.00    +0.006 C 
ATOM     32  C   UNL     1      -0.363  -5.881   3.501  0.00  0.00    +0.026 C 
ENDBRANCH  28  32
ENDBRANCH  23  28
ENDBRANCH   1  24
TORSDOF 5
