REMARK  Name = ZINC22681384
REMARK  10 active torsions:
REMARK  status: ('A' for Active; 'I' for Inactive)
REMARK    1  A    between atoms: C_1  and  C_2
REMARK    2  A    between atoms: C_5  and  C_11
REMARK    3  A    between atoms: C_7  and  N_8
REMARK    4  A    between atoms: N_13  and  C_14
REMARK    5  A    between atoms: C_14  and  C_15
REMARK    6  A    between atoms: N_17  and  C_18
REMARK    7  A    between atoms: C_18  and  C_19
REMARK    8  A    between atoms: C_19  and  C_21
REMARK    9  A    between atoms: C_19  and  N_26
REMARK   10  A    between atoms: C_29  and  C_32
REMARK                            x       y       z     vdW  Elec       q    Type
REMARK                         _______ _______ _______ _____ _____    ______ ____
ROOT
ATOM      1  C   UNL     1       1.017   0.751   0.809  0.00  0.00    +0.230 C 
ATOM      2  O   UNL     1      -0.029   1.354   0.927  0.00  0.00    -0.274 OA
ATOM      3  N   UNL     1       1.022  -0.597   0.817  0.00  0.00    -0.315 N 
ATOM      4  H   UNL     1       1.969  -1.144   0.706  0.00  0.00    +0.149 HD
ENDROOT
BRANCH   1   5
ATOM      5  C   UNL     1       2.310   1.508   0.649  0.00  0.00    +0.200 C 
BRANCH   5   8
ATOM      6  C   UNL     1       3.053   3.826   0.545  0.00  0.00    +0.245 C 
ATOM      7  O   UNL     1       4.192   3.424   0.410  0.00  0.00    -0.270 OA
ATOM      8  N   UNL     1       2.039   2.947   0.673  0.00  0.00    -0.303 N 
ATOM      9  H   UNL     1       1.008   3.311   0.795  0.00  0.00    +0.150 HD
BRANCH   6  14
ATOM     10  C   UNL     1       1.990   9.481   0.639  0.00  0.00    +0.046 C 
ATOM     11  C   UNL     1       2.268   8.000   0.614  0.00  0.00    -0.020 A 
ATOM     12  C   UNL     1       1.225   7.101   0.745  0.00  0.00    +0.006 A 
ATOM     13  C   UNL     1       1.472   5.744   0.719  0.00  0.00    +0.013 A 
ATOM     14  C   UNL     1       2.780   5.279   0.570  0.00  0.00    +0.039 A 
ATOM     15  C   UNL     1       3.828   6.191   0.438  0.00  0.00    +0.046 A 
ATOM     16  C   UNL     1       3.566   7.546   0.461  0.00  0.00    +0.130 A 
BRANCH  16  17
ATOM     17  N   UNL     1       4.676   8.515   0.322  0.00  0.00    +0.057 N 
ATOM     18  O   UNL     1       5.829   8.122   0.301  0.00  0.00    -0.126 OA
ATOM     19  O   UNL     1       4.437   9.705   0.228  0.00  0.00    -0.126 OA
ENDBRANCH  16  17
ENDBRANCH   6  14
ENDBRANCH   5   8
ENDBRANCH   1   5
BRANCH   3  20
ATOM     20  C   UNL     1      -0.236  -1.333   0.973  0.00  0.00    +0.094 C 
BRANCH  20  21
ATOM     21  C   UNL     1       0.029  -2.832   0.823  0.00  0.00    -0.013 C 
BRANCH  21  22
ATOM     22  N   UNL     1       0.648  -3.092  -0.484  0.00  0.00    +0.386 N 
ATOM     23  C   UNL     1       0.776  -4.535  -0.728  0.00  0.00    -0.078 C 
ATOM     24  C   UNL     1       1.552  -4.766  -2.026  0.00  0.00    -0.015 C 
ATOM     25  C   UNL     1       0.810  -4.098  -3.186  0.00  0.00    -0.018 C 
ATOM     26  C   UNL     1       0.647  -2.605  -2.885  0.00  0.00    -0.015 C 
ATOM     27  C   UNL     1      -0.103  -2.436  -1.562  0.00  0.00    -0.078 C 
ATOM     28  C   UNL     1       1.612  -4.274  -4.477  0.00  0.00    +0.007 C 
ATOM     29  H   UNL     1       1.661  -2.663  -0.472  0.00  0.00    -0.081 HD
ENDBRANCH  21  22
BRANCH  21  30
ATOM     30  C   UNL     1      -1.273  -3.585   0.921  0.00  0.00    -0.022 A 
ATOM     31  C   UNL     1      -1.795  -4.254   1.978  0.00  0.00    +0.009 A 
ATOM     32  C   UNL     1      -3.022  -4.875   1.839  0.00  0.00    +0.008 A 
ATOM     33  C   UNL     1      -3.662  -4.805   0.646  0.00  0.00    +0.045 A 
ATOM     34  S   UNL     1      -2.525  -3.833  -0.328  0.00  0.00    -0.103 S 
ENDBRANCH  21  30
ENDBRANCH  20  21
ENDBRANCH   3  20
TORSDOF 8
