REMARK  Name = ZINC08430174
REMARK  3 active torsions:
REMARK  status: ('A' for Active; 'I' for Inactive)
REMARK    1  A    between atoms: N_10  and  N_11
REMARK    2  A    between atoms: N_11  and  C_12
REMARK    3  A    between atoms: C_14  and  C_28
REMARK                            x       y       z     vdW  Elec       q    Type
REMARK                         _______ _______ _______ _____ _____    ______ ____
ROOT
ATOM      1  C   UNL     1       4.651  -5.603  -0.075  0.00  0.00    +0.103 C 
ATOM      2  C   UNL     1       5.986  -5.971  -0.090  0.00  0.00    +0.085 C 
ATOM      3  C   UNL     1       7.160  -5.086  -0.090  0.00  0.00    +0.176 C 
ATOM      4  N   UNL     1       8.217  -5.838  -0.106  0.00  0.00    -0.165 NA
ATOM      5  N   UNL     1       7.878  -7.191  -0.117  0.00  0.00    -0.131 N 
ATOM      6  C   UNL     1       6.537  -7.332  -0.103  0.00  0.00    +0.275 C 
ATOM      7  O   UNL     1       5.910  -8.378  -0.103  0.00  0.00    -0.268 OA
ATOM      8  C   UNL     1       8.788  -8.238  -0.136  0.00  0.00    +0.189 A 
ATOM      9  N   UNL     1       8.555  -9.530  -0.153  0.00  0.00    -0.223 NA
ATOM     10  C   UNL     1       9.547 -10.446  -0.171  0.00  0.00    +0.080 A 
ATOM     11  C   UNL     1       9.434 -11.856  -0.190  0.00  0.00    +0.029 A 
ATOM     12  C   UNL     1      10.552 -12.648  -0.204  0.00  0.00    +0.002 A 
ATOM     13  C   UNL     1      11.828 -12.101  -0.201  0.00  0.00    +0.001 A 
ATOM     14  C   UNL     1      11.976 -10.727  -0.183  0.00  0.00    +0.017 A 
ATOM     15  C   UNL     1      10.861  -9.925  -0.168  0.00  0.00    +0.041 A 
ATOM     16  S   UNL     1      10.574  -8.172  -0.149  0.00  0.00    -0.050 S 
ENDROOT
BRANCH   3  17
ATOM     17  C   UNL     1       7.139  -3.579  -0.075  0.00  0.00    +0.436 C 
ATOM     18  F   UNL     1       8.451  -3.095  -0.080  0.00  0.00    -0.164 F 
ATOM     19  F   UNL     1       6.465  -3.111  -1.207  0.00  0.00    -0.164 F 
ATOM     20  F   UNL     1       6.482  -3.133   1.077  0.00  0.00    -0.164 F 
ENDBRANCH   3  17
BRANCH   1  21
ATOM     21  N   UNL     1       4.313  -4.297  -0.064  0.00  0.00    -0.271 N 
ATOM     22  H   UNL     1       5.004  -3.617  -0.066  0.00  0.00    +0.169 HD
BRANCH  21  32
ATOM     23  C   UNL     1      -0.017   1.366   0.010  0.00  0.00    +0.002 A 
ATOM     24  C   UNL     1       1.156   2.107   0.002  0.00  0.00    +0.001 A 
ATOM     25  C   UNL     1       2.373   1.449  -0.013  0.00  0.00    +0.017 A 
ATOM     26  C   UNL     1       2.401   0.077  -0.020  0.00  0.00    +0.041 A 
ATOM     27  C   UNL     1       1.227  -0.710  -0.013  0.00  0.00    +0.080 A 
ATOM     28  C   UNL     1       0.002  -0.004   0.002  0.00  0.00    +0.029 A 
ATOM     29  N   UNL     1       1.419  -2.047  -0.023  0.00  0.00    -0.224 NA
ATOM     30  C   UNL     1       2.616  -2.588  -0.037  0.00  0.00    +0.176 A 
ATOM     31  S   UNL     1       3.682  -1.153  -0.040  0.00  0.00    -0.051 S 
ATOM     32  N   UNL     1       2.963  -3.924  -0.049  0.00  0.00    -0.245 N 
ATOM     33  H   UNL     1       2.271  -4.604  -0.046  0.00  0.00    +0.172 HD
ENDBRANCH  21  32
ENDBRANCH   1  21
TORSDOF 3
