REMARK  Name = ZINC08744113
REMARK  8 active torsions:
REMARK  status: ('A' for Active; 'I' for Inactive)
REMARK    1  A    between atoms: C_3  and  C_10
REMARK    2  A    between atoms: C_5  and  N_7
REMARK    3  A    between atoms: C_13  and  C_14
REMARK    4  A    between atoms: C_13  and  O_24
REMARK    5  A    between atoms: N_29  and  C_30
REMARK    6  A    between atoms: C_30  and  C_31
REMARK    7  A    between atoms: C_31  and  C_32
REMARK    8  A    between atoms: C_32  and  N_64
REMARK                            x       y       z     vdW  Elec       q    Type
REMARK                         _______ _______ _______ _____ _____    ______ ____
ROOT
ATOM      1  C   UNL     1      -6.249  -0.712   0.259  0.00  0.00    +0.145 C 
ATOM      2  C   UNL     1      -4.873  -0.100   0.134  0.00  0.00    +0.071 C 
ATOM      3  C   UNL     1      -3.672  -0.774   0.018  0.00  0.00    +0.133 C 
ATOM      4  C   UNL     1      -5.059   1.290   0.166  0.00  0.00    +0.249 C 
ATOM      5  O   UNL     1      -4.180   2.130   0.094  0.00  0.00    -0.282 OA
ATOM      6  C   UNL     1      -6.516   1.560   0.298  0.00  0.00    +0.288 C 
ATOM      7  O   UNL     1      -7.017   2.664   0.350  0.00  0.00    -0.266 OA
ATOM      8  N   UNL     1      -7.196   0.402   0.354  0.00  0.00    -0.284 N 
ENDROOT
BRANCH   3   9
ATOM      9  C   UNL     1      -2.433  -0.029  -0.254  0.00  0.00    +0.021 A 
ATOM     10  C   UNL     1      -2.384   0.890  -1.309  0.00  0.00    +0.015 A 
ATOM     11  C   UNL     1      -1.222   1.583  -1.563  0.00  0.00    +0.050 A 
ATOM     12  C   UNL     1      -0.096   1.378  -0.772  0.00  0.00    +0.162 A 
ATOM     13  C   UNL     1      -0.139   0.466   0.281  0.00  0.00    +0.163 A 
ATOM     14  C   UNL     1      -1.300  -0.237   0.540  0.00  0.00    +0.061 A 
ATOM     15  O   UNL     1       0.955   0.255   1.064  0.00  0.00    -0.485 OA
ATOM     16  C   UNL     1       2.213   0.700   0.544  0.00  0.00    +0.270 C 
ATOM     17  C   UNL     1       2.029   2.119  -0.009  0.00  0.00    +0.270 C 
ATOM     18  O   UNL     1       1.040   2.073  -1.043  0.00  0.00    -0.485 OA
ENDBRANCH   3   9
BRANCH   1  21
ATOM     19  C   UNL     1      -7.227  -1.705  -3.250  0.00  0.00    +0.003 A 
ATOM     20  C   UNL     1      -6.947  -0.938  -2.134  0.00  0.00    +0.006 A 
ATOM     21  C   UNL     1      -6.554  -1.548  -0.957  0.00  0.00    -0.020 A 
ATOM     22  C   UNL     1      -6.437  -2.924  -0.897  0.00  0.00    +0.038 A 
ATOM     23  C   UNL     1      -6.721  -3.691  -2.011  0.00  0.00    +0.127 A 
ATOM     24  C   UNL     1      -7.114  -3.082  -3.188  0.00  0.00    +0.033 A 
BRANCH  23  25
ATOM     25  N   UNL     1      -6.601  -5.165  -1.946  0.00  0.00    +0.056 N 
ATOM     26  O   UNL     1      -6.847  -5.841  -2.929  0.00  0.00    -0.126 OA
ATOM     27  O   UNL     1      -6.255  -5.702  -0.909  0.00  0.00    -0.126 OA
ENDBRANCH  23  25
ENDBRANCH   1  21
BRANCH   3  28
ATOM     28  O   UNL     1      -3.636  -2.117   0.155  0.00  0.00    -0.506 OA
ATOM     29  H   UNL     1      -2.696  -2.438   0.043  0.00  0.00    +0.292 HD
ENDBRANCH   3  28
BRANCH   8  30
ATOM     30  C   UNL     1      -8.649   0.275   0.489  0.00  0.00    +0.107 C 
BRANCH  30  31
ATOM     31  C   UNL     1      -9.021   0.222   1.973  0.00  0.00    +0.000 C 
BRANCH  31  32
ATOM     32  C   UNL     1     -10.539   0.089   2.114  0.00  0.00    -0.077 C 
BRANCH  32  38
ATOM     33  C   UNL     1     -10.384  -1.189   4.166  0.00  0.00    -0.050 C 
ATOM     34  C   UNL     1     -10.725  -1.173   5.658  0.00  0.00    +0.141 C 
ATOM     35  O   UNL     1     -12.140  -1.033   5.817  0.00  0.00    -0.383 OA
ATOM     36  C   UNL     1     -12.672   0.152   5.218  0.00  0.00    +0.141 C 
ATOM     37  C   UNL     1     -12.350   0.149   3.721  0.00  0.00    -0.050 C 
ATOM     38  N   UNL     1     -10.884   0.059   3.551  0.00  0.00    +0.383 N 
ATOM     39  H   UNL     1     -10.444   0.861   4.017  0.00  0.00    -0.082 HD
ENDBRANCH  32  38
ENDBRANCH  31  32
ENDBRANCH  30  31
ENDBRANCH   8  30
TORSDOF 8
