REMARK  Name = ZINC10333973
REMARK  6 active torsions:
REMARK  status: ('A' for Active; 'I' for Inactive)
REMARK    1  A    between atoms: C_10  and  C_11
REMARK    2  A    between atoms: C_11  and  C_13
REMARK    3  A    between atoms: C_11  and  N_60
REMARK    4  A    between atoms: C_13  and  N_14
REMARK    5  A    between atoms: C_15  and  C_17
REMARK    6  A    between atoms: N_19  and  C_20
REMARK                            x       y       z     vdW  Elec       q    Type
REMARK                         _______ _______ _______ _____ _____    ______ ____
ROOT
ATOM      1  C   UNL     1       6.104  -4.798   0.583  0.00  0.00    +0.094 C 
ENDROOT
BRANCH   1   2
ATOM      2  N   UNL     1       4.768  -4.224   0.760  0.00  0.00    -0.309 N 
ATOM      3  C   UNL     1       4.623  -2.895   0.929  0.00  0.00    +0.299 C 
ATOM      4  O   UNL     1       5.599  -2.174   0.935  0.00  0.00    -0.265 OA
ATOM      5  H   UNL     1       3.988  -4.800   0.756  0.00  0.00    +0.149 HD
BRANCH   3   6
ATOM      6  C   UNL     1       3.261  -2.309   1.109  0.00  0.00    +0.303 C 
ATOM      7  O   UNL     1       2.285  -3.030   1.104  0.00  0.00    -0.265 OA
ATOM      8  N   UNL     1       3.116  -0.980   1.278  0.00  0.00    -0.278 N 
ATOM      9  H   UNL     1       3.887  -0.396   1.212  0.00  0.00    +0.155 HD
BRANCH   8  10
ATOM     10  C   UNL     1       1.853  -0.443   1.549  0.00  0.00    +0.038 A 
ATOM     11  C   UNL     1       1.729   0.646   2.402  0.00  0.00    +0.027 A 
ATOM     12  C   UNL     1       0.482   1.175   2.671  0.00  0.00    +0.051 A 
ATOM     13  C   UNL     1      -0.650   0.622   2.090  0.00  0.00    +0.162 A 
ATOM     14  C   UNL     1      -0.529  -0.466   1.233  0.00  0.00    +0.164 A 
ATOM     15  C   UNL     1       0.723  -0.998   0.965  0.00  0.00    +0.072 A 
ATOM     16  O   UNL     1      -1.627  -1.016   0.647  0.00  0.00    -0.485 OA
ATOM     17  C   UNL     1      -2.896  -0.696   1.228  0.00  0.00    +0.270 C 
ATOM     18  C   UNL     1      -2.941   0.817   1.481  0.00  0.00    +0.270 C 
ATOM     19  O   UNL     1      -1.871   1.153   2.373  0.00  0.00    -0.485 OA
ENDBRANCH   8  10
ENDBRANCH   3   6
ENDBRANCH   1   2
BRANCH   1  20
ATOM     20  C   UNL     1       5.981  -6.295   0.292  0.00  0.00    -0.020 C 
BRANCH  20  30
ATOM     21  C   UNL     1       9.643  -6.788  -3.250  0.00  0.00    +0.001 A 
ATOM     22  C   UNL     1       8.374  -6.213  -3.225  0.00  0.00    +0.001 A 
ATOM     23  C   UNL     1       7.614  -6.241  -2.097  0.00  0.00    +0.009 A 
ATOM     24  C   UNL     1       8.112  -6.861  -0.939  0.00  0.00    -0.016 A 
ATOM     25  C   UNL     1       9.402  -7.447  -0.964  0.00  0.00    -0.018 A 
ATOM     26  C   UNL     1      10.158  -7.397  -2.148  0.00  0.00    +0.008 A 
ATOM     27  C   UNL     1       9.900  -8.067   0.194  0.00  0.00    +0.008 A 
ATOM     28  C   UNL     1       9.139  -8.097   1.323  0.00  0.00    +0.001 A 
ATOM     29  C   UNL     1       7.873  -7.517   1.349  0.00  0.00    +0.003 A 
ATOM     30  C   UNL     1       7.355  -6.912   0.244  0.00  0.00    -0.052 A 
ENDBRANCH  20  30
BRANCH  20  35
ATOM     31  C   UNL     1       5.361  -8.413   1.322  0.00  0.00    -0.078 C 
ATOM     32  C   UNL     1       4.933  -8.848   2.746  0.00  0.00    -0.020 C 
ATOM     33  C   UNL     1       5.485  -7.710   3.636  0.00  0.00    -0.020 C 
ATOM     34  C   UNL     1       5.654  -6.506   2.690  0.00  0.00    -0.078 C 
ATOM     35  N   UNL     1       5.190  -6.952   1.376  0.00  0.00    +0.385 N 
ATOM     36  H   UNL     1       4.198  -6.715   1.259  0.00  0.00    -0.081 HD
ENDBRANCH  20  35
ENDBRANCH   1  20
TORSDOF 6
