REMARK  Name = ZINC17297505
REMARK  8 active torsions:
REMARK  status: ('A' for Active; 'I' for Inactive)
REMARK    1  A    between atoms: C_1  and  C_2
REMARK    2  A    between atoms: C_2  and  O_3
REMARK    3  A    between atoms: O_3  and  C_4
REMARK    4  A    between atoms: C_4  and  C_6
REMARK    5  A    between atoms: C_10  and  N_11
REMARK    6  A    between atoms: C_12  and  C_14
REMARK    7  A    between atoms: C_14  and  N_15
REMARK    8  A    between atoms: C_23  and  C_28
REMARK                            x       y       z     vdW  Elec       q    Type
REMARK                         _______ _______ _______ _____ _____    ______ ____
ROOT
ATOM      1  N   UNL     1       0.691   5.116   3.280  0.00  0.00    -0.278 N 
ATOM      2  C   UNL     1       1.219   4.458   2.229  0.00  0.00    +0.235 C 
ATOM      3  O   UNL     1       2.365   4.062   2.275  0.00  0.00    -0.274 OA
ATOM      4  H   UNL     1      -0.225   5.433   3.244  0.00  0.00    +0.155 HD
ENDROOT
BRANCH   1   9
ATOM      5  C   UNL     1       1.096   5.992   5.585  0.00  0.00    +0.091 A 
ATOM      6  C   UNL     1       2.097   6.092   6.634  0.00  0.00    -0.021 A 
ATOM      7  C   UNL     1       3.291   5.530   6.345  0.00  0.00    -0.004 A 
ATOM      8  S   UNL     1       3.098   4.869   4.714  0.00  0.00    -0.077 S 
ATOM      9  C   UNL     1       1.458   5.340   4.413  0.00  0.00    +0.086 A 
ATOM     10  C   UNL     1       4.502   5.481   7.225  0.00  0.00    +0.043 C 
ATOM     11  C   UNL     1       4.313   6.490   8.366  0.00  0.00    +0.005 C 
ATOM     12  C   UNL     1       2.917   6.300   8.967  0.00  0.00    +0.005 C 
ATOM     13  C   UNL     1       1.854   6.774   7.975  0.00  0.00    +0.037 C 
BRANCH   5  14
ATOM     14  C   UNL     1      -0.244   6.556   5.758  0.00  0.00    +0.342 C 
ATOM     15  O   UNL     1      -1.134   5.877   6.235  0.00  0.00    -0.245 OA
BRANCH  14  16
ATOM     16  O   UNL     1      -0.493   7.829   5.387  0.00  0.00    -0.461 OA
BRANCH  16  18
ATOM     17  C   UNL     1      -1.933   9.774   5.112  0.00  0.00    +0.048 C 
ATOM     18  C   UNL     1      -1.844   8.322   5.588  0.00  0.00    +0.229 C 
ENDBRANCH  16  18
ENDBRANCH  14  16
ENDBRANCH   5  14
ENDBRANCH   1   9
BRANCH   2  19
ATOM     19  C   UNL     1       0.386   4.214   0.997  0.00  0.00    +0.209 C 
BRANCH  19  20
ATOM     20  N   UNL     1       1.181   3.486   0.006  0.00  0.00    -0.261 N 
ATOM     21  C   UNL     1       1.177   2.082   0.002  0.00  0.00    +0.050 A 
ATOM     22  C   UNL     1      -0.017   1.379   0.010  0.00  0.00    +0.024 A 
ATOM     23  C   UNL     1       0.002  -0.004   0.002  0.00  0.00    +0.002 A 
ATOM     24  C   UNL     1       1.205  -0.686  -0.014  0.00  0.00    +0.001 A 
ATOM     25  C   UNL     1       2.401   0.009  -0.021  0.00  0.00    +0.016 A 
ATOM     26  C   UNL     1       2.388   1.394  -0.012  0.00  0.00    +0.030 A 
ATOM     27  S   UNL     1       3.897   2.307  -0.014  0.00  0.00    -0.112 S 
ATOM     28  C   UNL     1       3.964   2.998  -1.700  0.00  0.00    +0.126 C 
ATOM     29  C   UNL     1       2.544   3.469  -2.060  0.00  0.00    +0.118 C 
ATOM     30  C   UNL     1       1.909   4.162  -0.892  0.00  0.00    +0.222 C 
ATOM     31  O   UNL     1       2.057   5.358  -0.757  0.00  0.00    -0.275 OA
BRANCH  28  32
ATOM     32  C   UNL     1       4.414   1.938  -2.672  0.00  0.00    +0.118 A 
ATOM     33  C   UNL     1       5.487   2.017  -3.481  0.00  0.00    +0.046 A 
ATOM     34  C   UNL     1       5.536   0.810  -4.214  0.00  0.00    +0.041 A 
ATOM     35  C   UNL     1       4.486   0.069  -3.817  0.00  0.00    +0.195 A 
ATOM     36  O   UNL     1       3.810   0.757  -2.882  0.00  0.00    -0.467 OA
ENDBRANCH  28  32
ENDBRANCH  19  20
ENDBRANCH   2  19
TORSDOF 7
