REMARK  Name = ZINC02891208
REMARK  5 active torsions:
REMARK  status: ('A' for Active; 'I' for Inactive)
REMARK    1  A    between atoms: C_1  and  C_2
REMARK    2  A    between atoms: C_6  and  S_8
REMARK    3  A    between atoms: S_8  and  C_9
REMARK    4  A    between atoms: C_9  and  C_10
REMARK    5  A    between atoms: C_10  and  C_12
REMARK                            x       y       z     vdW  Elec       q    Type
REMARK                         _______ _______ _______ _____ _____    ______ ____
ROOT
ATOM      1  C   UNL     1      -1.421   3.070  -3.598  0.00  0.00    +0.066 C 
ATOM      2  C   UNL     1      -1.315   3.784  -2.275  0.00  0.00    +0.046 A 
ATOM      3  C   UNL     1      -0.992   3.078  -1.121  0.00  0.00    -0.005 A 
ATOM      4  C   UNL     1      -0.901   3.767   0.070  0.00  0.00    +0.049 A 
ATOM      5  N   UNL     1      -1.128   5.075   0.075  0.00  0.00    -0.227 NA
ATOM      6  C   UNL     1      -1.434   5.719  -1.040  0.00  0.00    +0.189 A 
ATOM      7  N   UNL     1      -1.526   5.086  -2.201  0.00  0.00    -0.227 NA
ATOM      8  C   UNL     1      -0.545   3.095   1.368  0.00  0.00    +0.056 C 
ATOM      9  C   UNL     1      -0.739   1.584   1.263  0.00  0.00    +0.006 C 
ATOM     10  C   UNL     1      -0.013   1.086   0.008  0.00  0.00    +0.005 C 
ATOM     11  C   UNL     1      -0.760   1.596  -1.224  0.00  0.00    +0.039 C 
ENDROOT
BRANCH   6  12
ATOM     12  S   UNL     1      -1.726   7.456  -0.980  0.00  0.00    -0.078 S 
BRANCH  12  13
ATOM     13  C   UNL     1      -2.085   7.774  -2.725  0.00  0.00    +0.157 C 
BRANCH  13  14
ATOM     14  C   UNL     1      -2.374   9.241  -2.919  0.00  0.00    +0.173 C 
ATOM     15  O   UNL     1      -2.341   9.996  -1.971  0.00  0.00    -0.291 OA
BRANCH  14  16
ATOM     16  C   UNL     1      -2.697   9.756  -4.259  0.00  0.00    +0.018 A 
ATOM     17  C   UNL     1      -2.731   8.889  -5.356  0.00  0.00    +0.012 A 
ATOM     18  C   UNL     1      -3.041   9.378  -6.607  0.00  0.00    +0.016 A 
ATOM     19  C   UNL     1      -3.305  10.726  -6.781  0.00  0.00    +0.018 A 
ATOM     20  C   UNL     1      -3.267  11.592  -5.700  0.00  0.00    +0.016 A 
ATOM     21  C   UNL     1      -2.966  11.117  -4.442  0.00  0.00    +0.012 A 
ATOM     22 BR   UNL     1      -3.721  11.389  -8.503  0.00  0.00    -0.050 Br
ENDBRANCH  14  16
ENDBRANCH  13  14
ENDBRANCH  12  13
ENDBRANCH   6  12
TORSDOF 4
