REMARK  Name = ZINC03390322
REMARK  9 active torsions:
REMARK  status: ('A' for Active; 'I' for Inactive)
REMARK    1  A    between atoms: C_6  and  C_7
REMARK    2  A    between atoms: C_7  and  N_8
REMARK    3  A    between atoms: C_9  and  C_11
REMARK    4  A    between atoms: C_11  and  O_12
REMARK    5  A    between atoms: O_12  and  C_13
REMARK    6  A    between atoms: C_13  and  C_15
REMARK    7  A    between atoms: C_15  and  N_16
REMARK    8  A    between atoms: N_16  and  S_17
REMARK    9  A    between atoms: S_17  and  C_20
REMARK                            x       y       z     vdW  Elec       q    Type
REMARK                         _______ _______ _______ _____ _____    ______ ____
ROOT
ATOM      1  O   UNL     1       9.658  -1.767   1.032  0.00  0.00    -0.454 OA
ENDROOT
BRANCH   1   2
ATOM      2  C   UNL     1      10.648  -2.141   0.206  0.00  0.00    +0.323 C 
ATOM      3  O   UNL     1      10.410  -2.375  -0.955  0.00  0.00    -0.249 OA
BRANCH   2   4
ATOM      4  C   UNL     1      12.056  -2.271   0.727  0.00  0.00    +0.226 C 
BRANCH   4   5
ATOM      5  N   UNL     1      12.943  -2.689  -0.361  0.00  0.00    -0.179 NA
ATOM      6  H   UNL     1      12.569  -3.044  -1.182  0.00  0.00    +0.149 HD
BRANCH   5   7
ATOM      7  S   UNL     1      14.585  -2.556  -0.189  0.00  0.00    +0.060 S 
ATOM      8  O   UNL     1      15.161  -3.060  -1.386  0.00  0.00    -0.153 OA
ATOM      9  O   UNL     1      14.838  -1.240   0.283  0.00  0.00    -0.153 OA
BRANCH   7  10
ATOM     10  C   UNL     1      15.064  -3.654   1.103  0.00  0.00    +0.124 A 
ATOM     11  C   UNL     1      15.875  -4.738   0.823  0.00  0.00    +0.031 A 
ATOM     12  C   UNL     1      16.251  -5.600   1.835  0.00  0.00    +0.017 A 
ATOM     13  C   UNL     1      15.817  -5.378   3.130  0.00  0.00    +0.019 A 
ATOM     14  C   UNL     1      15.005  -4.295   3.411  0.00  0.00    +0.037 A 
ATOM     15  C   UNL     1      14.633  -3.429   2.398  0.00  0.00    +0.068 A 
ATOM     16 CL   UNL     1      13.621  -2.063   2.751  0.00  0.00    -0.081 Cl
ATOM     17 BR   UNL     1      16.332  -6.558   4.515  0.00  0.00    -0.050 Br
ENDBRANCH   7  10
ENDBRANCH   5   7
ENDBRANCH   4   5
ENDBRANCH   2   4
ENDBRANCH   1   2
BRANCH   1  18
ATOM     18  C   UNL     1       8.327  -1.663   0.462  0.00  0.00    +0.327 C 
BRANCH  18  20
ATOM     19  N   UNL     1       6.051  -1.072   1.229  0.00  0.00    -0.308 N 
ATOM     20  C   UNL     1       7.355  -1.234   1.530  0.00  0.00    +0.251 C 
ATOM     21  O   UNL     1       7.745  -1.036   2.661  0.00  0.00    -0.272 OA
ATOM     22  H   UNL     1       5.739  -1.231   0.324  0.00  0.00    +0.149 HD
BRANCH  19  23
ATOM     23  C   UNL     1       5.106  -0.655   2.267  0.00  0.00    +0.139 C 
BRANCH  23  29
ATOM     24  C   UNL     1       2.886  -1.646   1.677  0.00  0.00    +0.009 A 
ATOM     25  C   UNL     1       1.617  -1.552   1.135  0.00  0.00    +0.050 A 
ATOM     26  C   UNL     1       1.183  -0.356   0.589  0.00  0.00    +0.166 A 
ATOM     27  C   UNL     1       2.029   0.752   0.587  0.00  0.00    +0.167 A 
ATOM     28  C   UNL     1       3.298   0.650   1.131  0.00  0.00    +0.054 A 
ATOM     29  C   UNL     1       3.724  -0.547   1.675  0.00  0.00    -0.027 A 
ATOM     30  O   UNL     1       1.376   1.797  -0.001  0.00  0.00    -0.453 OA
ATOM     31  C   UNL     1      -0.018   1.436   0.010  0.00  0.00    +0.466 C 
ATOM     32  O   UNL     1       0.002  -0.004   0.002  0.00  0.00    -0.453 OA
ENDBRANCH  23  29
ENDBRANCH  19  23
ENDBRANCH  18  20
ENDBRANCH   1  18
TORSDOF 9
