REMARK  Name = ZINC08845479
REMARK  9 active torsions:
REMARK  status: ('A' for Active; 'I' for Inactive)
REMARK    1  A    between atoms: C_1  and  C_2
REMARK    2  A    between atoms: C_2  and  O_3
REMARK    3  A    between atoms: O_3  and  C_4
REMARK    4  A    between atoms: C_6  and  C_11
REMARK    5  A    between atoms: C_9  and  O_10
REMARK    6  A    between atoms: C_14  and  C_32
REMARK    7  A    between atoms: N_21  and  C_22
REMARK    8  A    between atoms: C_22  and  C_23
REMARK    9  A    between atoms: C_37  and  O_38
REMARK                            x       y       z     vdW  Elec       q    Type
REMARK                         _______ _______ _______ _____ _____    ______ ____
ROOT
ATOM      1  C   UNL     1       0.645  -4.880   0.177  0.00  0.00    +0.142 C 
ATOM      2  C   UNL     1       0.798  -5.607   1.485  0.00  0.00    +0.035 A 
ATOM      3  C   UNL     1       0.981  -5.520   2.869  0.00  0.00    +0.102 A 
ATOM      4  N   UNL     1       1.012  -6.750   3.342  0.00  0.00    -0.173 NA
ATOM      5  N   UNL     1       0.866  -7.606   2.394  0.00  0.00    -0.272 N 
ATOM      6  H   UNL     1       0.856  -8.569   2.509  0.00  0.00    +0.189 HD
ATOM      7  C   UNL     1       0.726  -6.957   1.200  0.00  0.00    +0.126 A 
ATOM      8  C   UNL     1       0.533  -7.119  -0.246  0.00  0.00    +0.266 C 
ATOM      9  O   UNL     1       0.430  -8.188  -0.817  0.00  0.00    -0.268 OA
ATOM     10  N   UNL     1       0.485  -5.917  -0.851  0.00  0.00    -0.281 N 
ENDROOT
BRANCH   3  11
ATOM     11  C   UNL     1       1.116  -4.271   3.660  0.00  0.00    +0.047 A 
ATOM     12  C   UNL     1       1.188  -3.039   3.014  0.00  0.00    +0.052 A 
ATOM     13  C   UNL     1       1.313  -1.879   3.755  0.00  0.00    +0.124 A 
ATOM     14  C   UNL     1       1.368  -1.939   5.138  0.00  0.00    +0.042 A 
ATOM     15  C   UNL     1       1.298  -3.157   5.787  0.00  0.00    +0.049 A 
ATOM     16  C   UNL     1       1.166  -4.326   5.055  0.00  0.00    +0.126 A 
ATOM     17  F   UNL     1       1.383  -0.684   3.129  0.00  0.00    -0.205 F 
BRANCH  16  18
ATOM     18  O   UNL     1       1.091  -5.524   5.693  0.00  0.00    -0.506 OA
ATOM     19  H   UNL     1       1.949  -5.944   5.843  0.00  0.00    +0.292 HD
ENDBRANCH  16  18
ENDBRANCH   3  11
BRANCH   1  22
ATOM     20  C   UNL     1      -2.958  -3.747   0.269  0.00  0.00    +0.162 A 
ATOM     21  C   UNL     1      -1.836  -4.560   0.234  0.00  0.00    +0.055 A 
ATOM     22  C   UNL     1      -0.574  -3.995   0.215  0.00  0.00    -0.019 A 
ATOM     23  C   UNL     1      -0.428  -2.620   0.231  0.00  0.00    +0.009 A 
ATOM     24  C   UNL     1      -1.544  -1.804   0.267  0.00  0.00    +0.049 A 
ATOM     25  C   UNL     1      -2.811  -2.364   0.280  0.00  0.00    +0.158 A 
BRANCH  25  26
ATOM     26  O   UNL     1      -3.909  -1.562   0.308  0.00  0.00    -0.503 OA
ATOM     27  H   UNL     1      -4.210  -1.339   1.200  0.00  0.00    +0.292 HD
ENDBRANCH  25  26
BRANCH  20  28
ATOM     28  O   UNL     1      -4.200  -4.301   0.288  0.00  0.00    -0.489 OA
BRANCH  28  30
ATOM     29  C   UNL     1      -5.739  -6.157   0.448  0.00  0.00    +0.048 C 
ATOM     30  C   UNL     1      -4.274  -5.726   0.363  0.00  0.00    +0.226 C 
ENDBRANCH  28  30
ENDBRANCH  20  28
ENDBRANCH   1  22
BRANCH  10  31
ATOM     31  C   UNL     1       0.304  -5.683  -2.285  0.00  0.00    +0.144 C 
BRANCH  31  32
ATOM     32  C   UNL     1       1.650  -5.638  -2.961  0.00  0.00    -0.026 A 
ATOM     33  C   UNL     1       2.323  -4.436  -3.079  0.00  0.00    +0.009 A 
ATOM     34  C   UNL     1       3.559  -4.389  -3.697  0.00  0.00    +0.050 A 
ATOM     35  C   UNL     1       4.126  -5.549  -4.201  0.00  0.00    +0.166 A 
ATOM     36  C   UNL     1       3.448  -6.760  -4.082  0.00  0.00    +0.167 A 
ATOM     37  C   UNL     1       2.212  -6.799  -3.456  0.00  0.00    +0.054 A 
ATOM     38  O   UNL     1       4.207  -7.742  -4.651  0.00  0.00    -0.453 OA
ATOM     39  C   UNL     1       5.165  -7.057  -5.479  0.00  0.00    +0.466 C 
ATOM     40  O   UNL     1       5.309  -5.772  -4.844  0.00  0.00    -0.453 OA
ENDBRANCH  31  32
ENDBRANCH  10  31
TORSDOF 8
