REMARK  Name = ZINC15760465
REMARK  8 active torsions:
REMARK  status: ('A' for Active; 'I' for Inactive)
REMARK    1  A    between atoms: C_1  and  C_2
REMARK    2  A    between atoms: C_2  and  C_4
REMARK    3  A    between atoms: C_2  and  N_12
REMARK    4  A    between atoms: C_13  and  C_15
REMARK    5  A    between atoms: C_15  and  C_16
REMARK    6  A    between atoms: C_16  and  S_17
REMARK    7  A    between atoms: S_17  and  C_18
REMARK    8  A    between atoms: C_18  and  C_19
REMARK                            x       y       z     vdW  Elec       q    Type
REMARK                         _______ _______ _______ _____ _____    ______ ____
ROOT
ATOM      1  C   UNL     1      -1.377   3.407  -9.213  0.00  0.00    +0.079 C 
ENDROOT
BRANCH   1   2
ATOM      2  C   UNL     1      -2.624   3.993  -9.877  0.00  0.00    +0.106 C 
BRANCH   2   4
ATOM      3  N   UNL     1      -3.329   4.696 -12.141  0.00  0.00    -0.309 N 
ATOM      4  C   UNL     1      -2.364   4.188 -11.348  0.00  0.00    +0.214 C 
ATOM      5  O   UNL     1      -1.288   3.888 -11.820  0.00  0.00    -0.276 OA
ATOM      6  H   UNL     1      -4.189   4.936 -11.764  0.00  0.00    +0.149 HD
BRANCH   3   8
ATOM      7  C   UNL     1      -2.388   6.234 -13.794  0.00  0.00    +0.033 C 
ATOM      8  C   UNL     1      -3.076   4.886 -13.572  0.00  0.00    +0.101 C 
BRANCH   8   9
ATOM      9  C   UNL     1      -4.384   4.861 -14.320  0.00  0.00    -0.009 A 
ATOM     10  C   UNL     1      -5.558   5.195 -13.671  0.00  0.00    +0.008 A 
ATOM     11  C   UNL     1      -6.758   5.172 -14.357  0.00  0.00    +0.020 A 
ATOM     12  C   UNL     1      -6.785   4.814 -15.693  0.00  0.00    +0.042 A 
ATOM     13  C   UNL     1      -5.610   4.480 -16.343  0.00  0.00    +0.040 A 
ATOM     14  C   UNL     1      -4.409   4.509 -15.658  0.00  0.00    +0.047 A 
ATOM     15 CL   UNL     1      -2.933   4.098 -16.475  0.00  0.00    -0.083 Cl
ATOM     16 CL   UNL     1      -8.292   4.786 -16.554  0.00  0.00    -0.083 Cl
ENDBRANCH   8   9
ENDBRANCH   3   8
ENDBRANCH   2   4
ENDBRANCH   1   2
BRANCH   1  17
ATOM     17  S   UNL     1      -1.689   3.172  -7.441  0.00  0.00    -0.153 S 
BRANCH  17  18
ATOM     18  C   UNL     1      -0.135   2.480  -6.809  0.00  0.00    +0.143 C 
BRANCH  18  19
ATOM     19  C   UNL     1      -0.261   2.234  -5.328  0.00  0.00    +0.121 A 
ATOM     20  N   UNL     1       0.793   1.715  -4.647  0.00  0.00    -0.310 N 
ATOM     21  H   UNL     1       1.613   1.509  -5.125  0.00  0.00    +0.170 HD
ATOM     22  C   UNL     1       0.724   1.479  -3.323  0.00  0.00    +0.260 A 
ATOM     23  O   UNL     1       1.678   1.012  -2.725  0.00  0.00    -0.267 OA
ATOM     24  C   UNL     1      -0.492   1.786  -2.631  0.00  0.00    +0.075 A 
ATOM     25  C   UNL     1      -0.791   1.612  -1.202  0.00  0.00    -0.023 A 
ATOM     26  C   UNL     1      -2.016   1.978  -0.788  0.00  0.00    -0.004 A 
ATOM     27  S   UNL     1      -2.837   2.567  -2.251  0.00  0.00    -0.073 S 
ATOM     28  C   UNL     1      -1.523   2.318  -3.416  0.00  0.00    +0.116 A 
ATOM     29  N   UNL     1      -1.381   2.524  -4.723  0.00  0.00    -0.226 NA
ATOM     30  C   UNL     1      -2.207   1.760   0.689  0.00  0.00    +0.043 C 
ATOM     31  C   UNL     1      -0.772   1.602   1.246  0.00  0.00    +0.010 C 
ATOM     32  C   UNL     1      -0.013   1.086   0.008  0.00  0.00    +0.037 C 
ENDBRANCH  18  19
ENDBRANCH  17  18
ENDBRANCH   1  17
TORSDOF 7
