REMARK  Name = ZINC08766264
REMARK  9 active torsions:
REMARK  status: ('A' for Active; 'I' for Inactive)
REMARK    1  A    between atoms: C_1  and  C_2
REMARK    2  A    between atoms: C_2  and  C_3
REMARK    3  A    between atoms: C_9  and  C_10
REMARK    4  A    between atoms: C_9  and  N_59
REMARK    5  A    between atoms: C_11  and  O_33
REMARK    6  A    between atoms: C_17  and  C_29
REMARK    7  A    between atoms: C_18  and  O_21
REMARK    8  A    between atoms: O_21  and  C_22
REMARK    9  A    between atoms: C_26  and  C_28
REMARK                            x       y       z     vdW  Elec       q    Type
REMARK                         _______ _______ _______ _____ _____    ______ ____
ROOT
ATOM      1  C   UNL     1      -7.297   0.370  -0.109  0.00  0.00    +0.020 A 
ATOM      2  C   UNL     1      -8.064  -0.268   0.852  0.00  0.00    +0.122 A 
ATOM      3  C   UNL     1      -7.724  -0.184   2.200  0.00  0.00    +0.046 A 
ATOM      4  C   UNL     1      -6.628   0.529   2.594  0.00  0.00    +0.019 A 
ATOM      5  C   UNL     1      -5.845   1.178   1.638  0.00  0.00    +0.068 A 
ATOM      6  C   UNL     1      -6.181   1.099   0.274  0.00  0.00    +0.144 A 
ATOM      7  O   UNL     1      -5.417   1.730  -0.640  0.00  0.00    -0.447 OA
ATOM      8  C   UNL     1      -4.337   2.447  -0.302  0.00  0.00    +0.254 A 
ATOM      9  C   UNL     1      -3.923   2.584   0.973  0.00  0.00    +0.222 A 
ATOM     10  C   UNL     1      -4.656   1.958   2.021  0.00  0.00    +0.235 A 
ATOM     11  O   UNL     1      -4.314   2.064   3.187  0.00  0.00    -0.283 OA
ENDROOT
BRANCH   8  12
ATOM     12  C   UNL     1      -3.549   3.124  -1.394  0.00  0.00    +0.454 C 
ATOM     13  F   UNL     1      -2.556   2.255  -1.860  0.00  0.00    -0.163 F 
ATOM     14  F   UNL     1      -4.406   3.461  -2.447  0.00  0.00    -0.163 F 
ATOM     15  F   UNL     1      -2.953   4.285  -0.888  0.00  0.00    -0.163 F 
ENDBRANCH   8  12
BRANCH   2  16
ATOM     16  O   UNL     1      -9.156  -0.981   0.476  0.00  0.00    -0.506 OA
ATOM     17  H   UNL     1      -9.973  -0.464   0.449  0.00  0.00    +0.292 HD
ENDBRANCH   2  16
BRANCH   1  18
ATOM     18  C   UNL     1      -7.674   0.272  -1.565  0.00  0.00    -0.035 C 
BRANCH  18  24
ATOM     19  C   UNL     1      -8.886   1.373  -3.347  0.00  0.00    -0.068 C 
ATOM     20  C   UNL     1      -9.711   2.615  -3.696  0.00  0.00    -0.015 C 
ATOM     21  C   UNL     1     -11.006   2.607  -2.879  0.00  0.00    -0.003 C 
ATOM     22  C   UNL     1     -10.660   2.559  -1.388  0.00  0.00    -0.019 C 
ATOM     23  C   UNL     1      -9.807   1.320  -1.107  0.00  0.00    -0.078 C 
ATOM     24  N   UNL     1      -8.565   1.400  -1.905  0.00  0.00    +0.384 N 
ATOM     25  H   UNL     1      -8.086   2.282  -1.687  0.00  0.00    -0.081 HD
BRANCH  19  27
ATOM     26  C   UNL     1      -7.897   1.268  -5.639  0.00  0.00    +0.002 C 
ATOM     27  C   UNL     1      -7.582   1.387  -4.147  0.00  0.00    -0.019 C 
ENDBRANCH  19  27
ENDBRANCH  18  24
ENDBRANCH   1  18
BRANCH   9  28
ATOM     28  O   UNL     1      -2.813   3.320   1.258  0.00  0.00    -0.448 OA
BRANCH  28  29
ATOM     29  C   UNL     1      -1.614   2.683   1.281  0.00  0.00    +0.129 A 
ATOM     30  C   UNL     1      -1.544   1.323   1.012  0.00  0.00    +0.046 A 
ATOM     31  C   UNL     1      -0.323   0.676   1.042  0.00  0.00    +0.004 A 
ATOM     32  C   UNL     1       0.829   1.385   1.326  0.00  0.00    +0.003 A 
ATOM     33  C   UNL     1       0.763   2.741   1.588  0.00  0.00    -0.047 A 
ATOM     34  C   UNL     1      -0.456   3.392   1.566  0.00  0.00    +0.049 A 
ATOM     35  C   UNL     1       2.022   3.510   1.898  0.00  0.00    +0.044 C 
ENDBRANCH  28  29
ENDBRANCH   9  28
TORSDOF 7
