REMARK  Name = ZINC40031505
REMARK  6 active torsions:
REMARK  status: ('A' for Active; 'I' for Inactive)
REMARK    1  A    between atoms: C_2  and  C_3
REMARK    2  A    between atoms: C_3  and  N_4
REMARK    3  A    between atoms: C_5  and  C_21
REMARK    4  A    between atoms: C_24  and  O_27
REMARK    5  A    between atoms: O_27  and  C_28
REMARK    6  A    between atoms: C_28  and  C_29
REMARK                            x       y       z     vdW  Elec       q    Type
REMARK                         _______ _______ _______ _____ _____    ______ ____
ROOT
ATOM      1  N   UNL     1      -1.318  -1.700  -1.126  0.00  0.00    -0.280 N 
ATOM      2  C   UNL     1      -1.833  -1.402  -2.472  0.00  0.00    +0.145 C 
ATOM      3  C   UNL     1      -1.642  -2.651  -3.267  0.00  0.00    +0.072 A 
ATOM      4  C   UNL     1      -1.969  -2.969  -4.661  0.00  0.00    +0.199 A 
ATOM      5  O   UNL     1      -2.324  -2.131  -5.471  0.00  0.00    -0.287 OA
ATOM      6  C   UNL     1      -1.825  -4.410  -4.992  0.00  0.00    +0.066 A 
ATOM      7  C   UNL     1      -2.286  -4.903  -6.213  0.00  0.00    +0.035 A 
ATOM      8  C   UNL     1      -2.149  -6.244  -6.500  0.00  0.00    +0.042 A 
ATOM      9  C   UNL     1      -1.556  -7.096  -5.578  0.00  0.00    +0.023 A 
ATOM     10  C   UNL     1      -1.097  -6.620  -4.371  0.00  0.00    +0.048 A 
ATOM     11  C   UNL     1      -1.221  -5.266  -4.057  0.00  0.00    +0.140 A 
ATOM     12  O   UNL     1      -0.752  -4.823  -2.869  0.00  0.00    -0.450 OA
ATOM     13  C   UNL     1      -1.064  -3.581  -2.450  0.00  0.00    +0.199 A 
ATOM     14  C   UNL     1      -0.867  -2.971  -1.123  0.00  0.00    +0.283 C 
ATOM     15  O   UNL     1      -0.374  -3.532  -0.166  0.00  0.00    -0.267 OA
ATOM     16 CL   UNL     1      -2.719  -6.867  -8.017  0.00  0.00    -0.084 Cl
ENDROOT
BRANCH   2  17
ATOM     17  C   UNL     1      -1.054  -0.268  -3.088  0.00  0.00    -0.022 A 
ATOM     18  C   UNL     1       0.317  -0.202  -2.920  0.00  0.00    +0.009 A 
ATOM     19  C   UNL     1       1.034   0.836  -3.483  0.00  0.00    +0.046 A 
ATOM     20  C   UNL     1       0.377   1.813  -4.218  0.00  0.00    +0.121 A 
ATOM     21  C   UNL     1      -0.998   1.744  -4.385  0.00  0.00    +0.046 A 
ATOM     22  C   UNL     1      -1.710   0.701  -3.825  0.00  0.00    +0.009 A 
BRANCH  20  23
ATOM     23  O   UNL     1       1.080   2.835  -4.772  0.00  0.00    -0.483 OA
BRANCH  23  24
ATOM     24  C   UNL     1       0.338   3.804  -5.515  0.00  0.00    +0.324 C 
BRANCH  24  25
ATOM     25  C   UNL     1       1.277   4.854  -6.051  0.00  0.00    +0.248 C 
ATOM     26  O   UNL     1       2.465   4.780  -5.819  0.00  0.00    -0.272 OA
ATOM     27  N   UNL     1       0.797   5.875  -6.787  0.00  0.00    -0.327 N 
ATOM     28  H   UNL     1      -0.153   5.935  -6.973  0.00  0.00    +0.145 HD
ATOM     29  H   UNL     1       1.402   6.551  -7.132  0.00  0.00    +0.145 HD
ENDBRANCH  24  25
ENDBRANCH  23  24
ENDBRANCH  20  23
ENDBRANCH   2  17
BRANCH   1  30
ATOM     30  C   UNL     1      -1.293  -0.775   0.010  0.00  0.00    +0.136 C 
BRANCH  30  32
ATOM     31  C   UNL     1      -0.016   1.306   0.009  0.00  0.00    +0.005 C 
ATOM     32  C   UNL     1       0.002  -0.004   0.002  0.00  0.00    -0.016 C 
ENDBRANCH  30  32
ENDBRANCH   1  30
TORSDOF 6
