REMARK  Name = ZINC39684189
REMARK  11 active torsions:
REMARK  status: ('A' for Active; 'I' for Inactive)
REMARK    1  A    between atoms: C_1  and  C_2
REMARK    2  A    between atoms: C_7  and  C_11
REMARK    3  A    between atoms: C_11  and  C_12
REMARK    4  A    between atoms: C_12  and  N_13
REMARK    5  A    between atoms: C_14  and  C_16
REMARK    6  A    between atoms: C_27  and  C_29
REMARK    7  A    between atoms: C_32  and  C_39
REMARK    8  A    between atoms: N_34  and  C_35
REMARK    9  A    between atoms: C_35  and  C_36
REMARK   10  A    between atoms: C_35  and  C_37
REMARK   11  A    between atoms: C_35  and  C_38
REMARK                            x       y       z     vdW  Elec       q    Type
REMARK                         _______ _______ _______ _____ _____    ______ ____
ROOT
ATOM      1  C   UNL     1      -9.093   1.222  -4.761  0.00  0.00    +0.100 C 
ATOM      2  C   UNL     1     -10.491   1.794  -4.435  0.00  0.00    +0.121 C 
ATOM      3  N   UNL     1     -11.289   1.552  -5.661  0.00  0.00    -0.299 N 
ATOM      4  C   UNL     1     -10.859   0.211  -6.122  0.00  0.00    +0.115 C 
ATOM      5  C   UNL     1      -9.339   0.183  -5.868  0.00  0.00    -0.004 C 
ATOM      6  C   UNL     1      -8.908  -1.202  -5.397  0.00  0.00    -0.010 C 
ATOM      7  C   UNL     1      -9.107  -2.208  -6.535  0.00  0.00    -0.082 C 
ATOM      8  N   UNL     1      -8.314  -1.796  -7.699  0.00  0.00    +0.379 N 
ATOM      9  C   UNL     1      -8.797  -0.504  -8.203  0.00  0.00    -0.082 C 
ATOM     10  C   UNL     1      -8.584   0.573  -7.136  0.00  0.00    -0.010 C 
ATOM     11  C   UNL     1     -12.199   2.369  -6.228  0.00  0.00    +0.238 C 
ATOM     12  O   UNL     1     -12.774   2.026  -7.239  0.00  0.00    -0.273 OA
ATOM     13  H   UNL     1      -7.345  -1.710  -7.431  0.00  0.00    -0.086 HD
ATOM     14  H   UNL     1      -8.399  -2.491  -8.425  0.00  0.00    -0.086 HD
ENDROOT
BRANCH  11  15
ATOM     15  C   UNL     1     -12.503   3.707  -5.605  0.00  0.00    +0.184 C 
ATOM     16  C   UNL     1     -11.632   4.812  -6.238  0.00  0.00    +0.085 C 
ATOM     17  C   UNL     1     -12.639   5.753  -6.860  0.00  0.00    +0.036 C 
ATOM     18  N   UNL     1     -13.815   5.321  -6.652  0.00  0.00    -0.192 NA
ATOM     19  N   UNL     1     -13.876   4.130  -5.925  0.00  0.00    -0.238 N 
ATOM     20  C   UNL     1     -12.299   7.013  -7.613  0.00  0.00    +0.062 C 
BRANCH  19  21
ATOM     21  C   UNL     1     -15.099   3.418  -5.546  0.00  0.00    +0.044 C 
ATOM     22  C   UNL     1     -14.737   2.202  -4.690  0.00  0.00    +0.033 C 
ATOM     23  C   UNL     1     -16.007   4.353  -4.745  0.00  0.00    +0.033 C 
ATOM     24  C   UNL     1     -15.831   2.954  -6.807  0.00  0.00    +0.033 C 
ENDBRANCH  19  21
ENDBRANCH  11  15
BRANCH   1  26
ATOM     25  N   UNL     1      -7.162   0.442  -3.426  0.00  0.00    -0.315 N 
ATOM     26  C   UNL     1      -8.500   0.562  -3.544  0.00  0.00    +0.218 C 
ATOM     27  O   UNL     1      -9.225   0.137  -2.670  0.00  0.00    -0.275 OA
ATOM     28  H   UNL     1      -6.582   0.782  -4.125  0.00  0.00    +0.149 HD
BRANCH  25  29
ATOM     29  C   UNL     1      -6.585  -0.200  -2.243  0.00  0.00    +0.109 C 
BRANCH  29  30
ATOM     30  C   UNL     1      -5.060  -0.206  -2.358  0.00  0.00    +0.056 C 
BRANCH  30  37
ATOM     31  C   UNL     1      -2.752  -3.878   2.171  0.00  0.00    +0.046 C 
ATOM     32  C   UNL     1      -3.372  -3.711   0.807  0.00  0.00    -0.027 A 
ATOM     33  C   UNL     1      -3.631  -4.815   0.025  0.00  0.00    +0.005 A 
ATOM     34  C   UNL     1      -4.201  -4.675  -1.232  0.00  0.00    +0.001 A 
ATOM     35  C   UNL     1      -4.516  -3.436  -1.717  0.00  0.00    +0.010 A 
ATOM     36  C   UNL     1      -4.262  -2.304  -0.942  0.00  0.00    +0.003 A 
ATOM     37  C   UNL     1      -4.466  -0.867  -1.141  0.00  0.00    -0.021 A 
ATOM     38  C   UNL     1      -4.024  -0.250  -0.034  0.00  0.00    +0.087 A 
ATOM     39  N   UNL     1      -3.553  -1.175   0.859  0.00  0.00    -0.360 N 
ATOM     40  C   UNL     1      -3.689  -2.441   0.336  0.00  0.00    +0.050 A 
ATOM     41  H   UNL     1      -3.182  -0.969   1.730  0.00  0.00    +0.165 HD
ENDBRANCH  30  37
ENDBRANCH  29  30
ENDBRANCH  25  29
ENDBRANCH   1  26
TORSDOF 6
