REMARK  Name = ZINC00782385
REMARK  10 active torsions:
REMARK  status: ('A' for Active; 'I' for Inactive)
REMARK    1  A    between atoms: C_1  and  C_2
REMARK    2  A    between atoms: C_4  and  C_31
REMARK    3  A    between atoms: C_9  and  C_14
REMARK    4  A    between atoms: C_14  and  C_16
REMARK    5  A    between atoms: C_14  and  N_62
REMARK    6  A    between atoms: N_20  and  C_21
REMARK    7  A    between atoms: C_21  and  C_22
REMARK    8  A    between atoms: C_21  and  C_23
REMARK    9  A    between atoms: C_21  and  C_24
REMARK   10  A    between atoms: C_27  and  C_30
REMARK                            x       y       z     vdW  Elec       q    Type
REMARK                         _______ _______ _______ _____ _____    ______ ____
ROOT
ATOM      1  C   UNL     1      -1.026  -0.719  -0.142  0.00  0.00    +0.039 C 
ENDROOT
BRANCH   1  10
ATOM      2  C   UNL     1       6.197   0.241  -1.734  0.00  0.00    +0.044 C 
ATOM      3  C   UNL     1       4.841   0.802  -1.388  0.00  0.00    -0.050 A 
ATOM      4  C   UNL     1       4.676   2.175  -1.262  0.00  0.00    +0.008 A 
ATOM      5  C   UNL     1       3.446   2.709  -0.947  0.00  0.00    -0.026 A 
ATOM      6  C   UNL     1       2.357   1.866  -0.751  0.00  0.00    +0.052 A 
ATOM      7  C   UNL     1       2.528   0.475  -0.879  0.00  0.00    -0.001 A 
ATOM      8  C   UNL     1       3.786  -0.045  -1.201  0.00  0.00    +0.013 A 
ATOM      9  C   UNL     1       1.375  -0.404  -0.672  0.00  0.00    +0.017 A 
ATOM     10  C   UNL     1       0.180   0.157  -0.363  0.00  0.00    +0.011 A 
ATOM     11  C   UNL     1       0.062   1.559  -0.246  0.00  0.00    +0.251 A 
ATOM     12  O   UNL     1      -1.022   2.043   0.028  0.00  0.00    -0.268 OA
ATOM     13  N   UNL     1       1.115   2.374  -0.434  0.00  0.00    -0.322 N 
ATOM     14  H   UNL     1       0.995   3.363  -0.343  0.00  0.00    +0.169 HD
ATOM     15  C   UNL     1       3.281   4.201  -0.814  0.00  0.00    +0.046 C 
ENDBRANCH   1  10
BRANCH   1  22
ATOM     16  C   UNL     1      -2.879  -1.142   1.357  0.00  0.00    -0.077 C 
ATOM     17  C   UNL     1      -3.529  -0.703   2.671  0.00  0.00    -0.015 C 
ATOM     18  C   UNL     1      -2.578  -1.006   3.831  0.00  0.00    -0.018 C 
ATOM     19  C   UNL     1      -1.247  -0.288   3.592  0.00  0.00    -0.015 C 
ATOM     20  C   UNL     1      -0.663  -0.739   2.251  0.00  0.00    -0.077 C 
ATOM     21  C   UNL     1      -3.196  -0.514   5.141  0.00  0.00    +0.007 C 
ATOM     22  N   UNL     1      -1.615  -0.397   1.173  0.00  0.00    +0.389 N 
ATOM     23  H   UNL     1      -1.814   0.610   1.212  0.00  0.00    -0.080 HD
ENDBRANCH   1  22
BRANCH   1  24
ATOM     24  C   UNL     1      -2.047  -0.447  -1.217  0.00  0.00    +0.143 A 
ATOM     25  N   UNL     1      -2.752   0.647  -1.368  0.00  0.00    -0.115 NA
ATOM     26  N   UNL     1      -3.509   0.494  -2.400  0.00  0.00    -0.023 NA
ATOM     27  N   UNL     1      -3.310  -0.673  -2.906  0.00  0.00    -0.043 NA
ATOM     28  N   UNL     1      -2.416  -1.284  -2.205  0.00  0.00    -0.225 N 
BRANCH  28  29
ATOM     29  C   UNL     1      -1.899  -2.634  -2.440  0.00  0.00    +0.059 C 
ATOM     30  C   UNL     1      -2.238  -3.526  -1.244  0.00  0.00    +0.036 C 
ATOM     31  C   UNL     1      -2.538  -3.212  -3.704  0.00  0.00    +0.036 C 
ATOM     32  C   UNL     1      -0.380  -2.575  -2.617  0.00  0.00    +0.036 C 
ENDBRANCH  28  29
ENDBRANCH   1  24
TORSDOF 4
