REMARK  Name = ZINC39326821
REMARK  10 active torsions:
REMARK  status: ('A' for Active; 'I' for Inactive)
REMARK    1  A    between atoms: C_1  and  O_2
REMARK    2  A    between atoms: O_2  and  C_3
REMARK    3  A    between atoms: C_8  and  C_9
REMARK    4  A    between atoms: N_12  and  C_32
REMARK    5  A    between atoms: C_17  and  N_31
REMARK    6  A    between atoms: C_18  and  C_29
REMARK    7  A    between atoms: C_19  and  C_21
REMARK    8  A    between atoms: C_26  and  O_27
REMARK    9  A    between atoms: O_27  and  C_28
REMARK   10  A    between atoms: C_32  and  C_33
REMARK                            x       y       z     vdW  Elec       q    Type
REMARK                         _______ _______ _______ _____ _____    ______ ____
ROOT
ATOM      1  C   UNL     1      -0.017  -2.830  -0.013  0.00  0.00    +0.020 C 
ATOM      2  C   UNL     1      -0.073  -4.171   0.081  0.00  0.00    +0.010 C 
ATOM      3  C   UNL     1      -1.399  -4.903   0.087  0.00  0.00    +0.124 C 
ATOM      4  N   UNL     1      -1.294  -5.974   1.095  0.00  0.00    -0.290 NA
ATOM      5  C   UNL     1      -0.268  -6.945   0.713  0.00  0.00    +0.120 C 
ATOM      6  C   UNL     1       1.066  -6.282   0.483  0.00  0.00    -0.000 C 
ATOM      7  C   UNL     1       1.156  -4.985   0.177  0.00  0.00    +0.136 C 
ATOM      8  O   UNL     1       2.349  -4.382  -0.045  0.00  0.00    -0.441 OA
ATOM      9  C   UNL     1       3.425  -5.120  -0.371  0.00  0.00    +0.199 C 
ATOM     10  C   UNL     1       3.469  -6.447  -0.093  0.00  0.00    +0.098 C 
ATOM     11  C   UNL     1       2.313  -7.125   0.600  0.00  0.00    +0.099 C 
ENDROOT
BRANCH   1  17
ATOM     12  C   UNL     1      -1.420  -0.797   0.315  0.00  0.00    +0.127 A 
ATOM     13  C   UNL     1      -2.575  -0.077   0.059  0.00  0.00    +0.046 A 
ATOM     14  C   UNL     1      -3.551  -0.602  -0.767  0.00  0.00    +0.004 A 
ATOM     15  C   UNL     1      -3.383  -1.849  -1.345  0.00  0.00    +0.001 A 
ATOM     16  C   UNL     1      -2.240  -2.580  -1.102  0.00  0.00    +0.011 A 
ATOM     17  C   UNL     1      -1.243  -2.058  -0.273  0.00  0.00    +0.017 A 
BRANCH  12  19
ATOM     18  C   UNL     1      -0.711   1.006   1.690  0.00  0.00    +0.277 C 
ATOM     19  O   UNL     1      -0.461  -0.283   1.127  0.00  0.00    -0.495 OA
ENDBRANCH  12  19
ENDBRANCH   1  17
BRANCH  11  20
ATOM     20  C   UNL     1       2.639  -7.333   2.057  0.00  0.00    +0.007 A 
ATOM     21  C   UNL     1       2.886  -6.245   2.872  0.00  0.00    +0.008 A 
ATOM     22  C   UNL     1       3.186  -6.435   4.208  0.00  0.00    +0.001 A 
ATOM     23  C   UNL     1       3.239  -7.714   4.732  0.00  0.00    +0.004 A 
ATOM     24  C   UNL     1       2.993  -8.804   3.921  0.00  0.00    +0.046 A 
ATOM     25  C   UNL     1       2.687  -8.616   2.581  0.00  0.00    +0.124 A 
BRANCH  25  26
ATOM     26  O   UNL     1       2.438  -9.687   1.782  0.00  0.00    -0.495 OA
ATOM     27  C   UNL     1       2.505 -10.979   2.390  0.00  0.00    +0.277 C 
ENDBRANCH  25  26
ENDBRANCH  11  20
BRANCH   9  28
ATOM     28  N   UNL     1       4.492  -4.523  -0.995  0.00  0.00    -0.328 N 
ATOM     29  H   UNL     1       4.467  -3.574  -1.197  0.00  0.00    +0.145 HD
ATOM     30  H   UNL     1       5.271  -5.049  -1.233  0.00  0.00    +0.145 HD
ENDBRANCH   9  28
BRANCH  10  31
ATOM     31  C   UNL     1       4.627  -7.208  -0.453  0.00  0.00    +0.101 C 
ATOM     32  N   UNL     1       5.545  -7.813  -0.738  0.00  0.00    -0.191 NA
ENDBRANCH  10  31
BRANCH   4  33
ATOM     33  C   UNL     1      -2.591  -6.633   1.300  0.00  0.00    +0.120 C 
BRANCH  33  34
ATOM     34  C   UNL     1      -3.559  -5.655   1.916  0.00  0.00    -0.033 A 
ATOM     35  C   UNL     1      -3.651  -5.547   3.291  0.00  0.00    +0.005 A 
ATOM     36  C   UNL     1      -4.539  -4.651   3.856  0.00  0.00    +0.000 A 
ATOM     37  C   UNL     1      -5.334  -3.862   3.045  0.00  0.00    +0.000 A 
ATOM     38  C   UNL     1      -5.242  -3.970   1.670  0.00  0.00    +0.000 A 
ATOM     39  C   UNL     1      -4.351  -4.863   1.105  0.00  0.00    +0.005 A 
ENDBRANCH  33  34
ENDBRANCH   4  33
TORSDOF 8
