REMARK  Name = ZINC08008005
REMARK  7 active torsions:
REMARK  status: ('A' for Active; 'I' for Inactive)
REMARK    1  A    between atoms: C_1  and  C_2
REMARK    2  A    between atoms: C_8  and  C_16
REMARK    3  A    between atoms: C_16  and  O_18
REMARK    4  A    between atoms: O_18  and  C_19
REMARK    5  A    between atoms: C_19  and  C_21
REMARK    6  A    between atoms: C_19  and  C_22
REMARK    7  A    between atoms: N_27  and  C_28
REMARK                            x       y       z     vdW  Elec       q    Type
REMARK                         _______ _______ _______ _____ _____    ______ ____
ROOT
ATOM      1  C   UNL     1      -1.281   2.173  -4.948  0.00  0.00    +0.008 C 
ATOM      2  C   UNL     1      -1.812   2.729  -3.625  0.00  0.00    -0.009 C 
ATOM      3  C   UNL     1      -3.341   2.626  -3.597  0.00  0.00    +0.010 C 
ATOM      4  C   UNL     1      -3.862   3.395  -2.390  0.00  0.00    +0.056 C 
ATOM      5  C   UNL     1      -3.143   2.969  -1.134  0.00  0.00    +0.046 A 
ATOM      6  C   UNL     1      -1.931   2.292  -1.173  0.00  0.00    -0.011 A 
ATOM      7  C   UNL     1      -1.304   1.932   0.019  0.00  0.00    +0.073 A 
ATOM      8  C   UNL     1      -1.932   2.280   1.239  0.00  0.00    +0.015 A 
ATOM      9  C   UNL     1      -1.362   1.957   2.477  0.00  0.00    +0.011 A 
ATOM     10  C   UNL     1      -2.002   2.312   3.627  0.00  0.00    +0.001 A 
ATOM     11  C   UNL     1      -3.218   2.991   3.586  0.00  0.00    +0.002 A 
ATOM     12  C   UNL     1      -3.800   3.319   2.401  0.00  0.00    +0.028 A 
ATOM     13  C   UNL     1      -3.168   2.970   1.192  0.00  0.00    +0.072 A 
ATOM     14  N   UNL     1      -3.711   3.279   0.016  0.00  0.00    -0.251 NA
ATOM     15  C   UNL     1      -1.253   1.911  -2.462  0.00  0.00    +0.041 C 
ENDROOT
BRANCH   7  16
ATOM     16  C   UNL     1      -0.014   1.210   0.009  0.00  0.00    +0.341 C 
ATOM     17  O   UNL     1       0.002  -0.004   0.002  0.00  0.00    -0.245 OA
BRANCH  16  18
ATOM     18  O   UNL     1       1.143   1.900   0.001  0.00  0.00    -0.449 OA
BRANCH  18  19
ATOM     19  C   UNL     1       2.371   1.126  -0.015  0.00  0.00    +0.259 C 
ATOM     20  C   UNL     1       2.789   0.862  -1.462  0.00  0.00    +0.062 C 
BRANCH  19  21
ATOM     21  C   UNL     1       3.459   1.895   0.690  0.00  0.00    +0.261 C 
ATOM     22  O   UNL     1       3.223   2.988   1.159  0.00  0.00    -0.271 OA
ATOM     23  N   UNL     1       4.695   1.368   0.798  0.00  0.00    -0.237 N 
ATOM     24  C   UNL     1       5.668   2.056   1.428  0.00  0.00    +0.306 C 
ATOM     25  O   UNL     1       5.431   3.152   1.898  0.00  0.00    -0.252 OA
ATOM     26  N   UNL     1       6.904   1.530   1.536  0.00  0.00    -0.302 N 
ATOM     27  C   UNL     1       7.961   2.277   2.221  0.00  0.00    +0.129 C 
ATOM     28  H   UNL     1       4.884   0.494   0.423  0.00  0.00    +0.159 HD
ATOM     29  H   UNL     1       7.093   0.655   1.161  0.00  0.00    +0.150 HD
ENDBRANCH  19  21
ENDBRANCH  18  19
ENDBRANCH  16  18
ENDBRANCH   7  16
TORSDOF 4
