REMARK  Name = ZINC08144709
REMARK  4 active torsions:
REMARK  status: ('A' for Active; 'I' for Inactive)
REMARK    1  A    between atoms: C_1  and  N_2
REMARK    2  A    between atoms: C_4  and  C_11
REMARK    3  A    between atoms: N_13  and  N_14
REMARK    4  A    between atoms: C_15  and  C_17
REMARK                            x       y       z     vdW  Elec       q    Type
REMARK                         _______ _______ _______ _____ _____    ______ ____
ROOT
ATOM      1  N   UNL     1       4.843   5.326  -0.016  0.00  0.00    -0.230 N 
ATOM      2  C   UNL     1       4.835   3.978  -0.024  0.00  0.00    +0.267 C 
ATOM      3  O   UNL     1       5.885   3.364  -0.037  0.00  0.00    -0.268 OA
ATOM      4  H   UNL     1       4.005   5.816  -0.005  0.00  0.00    +0.173 HD
ENDROOT
BRANCH   2   5
ATOM      5  C   UNL     1       3.555   3.249  -0.015  0.00  0.00    +0.123 A 
ATOM      6  C   UNL     1       2.353   3.936   0.000  0.00  0.00    +0.031 A 
ATOM      7  C   UNL     1       1.145   3.193   0.008  0.00  0.00    +0.018 A 
ATOM      8  C   UNL     1      -0.091   3.857   0.024  0.00  0.00    +0.011 A 
ATOM      9  C   UNL     1      -1.250   3.137   0.031  0.00  0.00    +0.001 A 
ATOM     10  C   UNL     1      -1.216   1.749   0.017  0.00  0.00    +0.004 A 
ATOM     11  C   UNL     1      -0.013   1.076   0.008  0.00  0.00    +0.047 A 
ATOM     12  C   UNL     1       1.182   1.788   0.000  0.00  0.00    +0.139 A 
ATOM     13  O   UNL     1       2.359   1.126  -0.015  0.00  0.00    -0.422 OA
ATOM     14  C   UNL     1       3.531   1.782  -0.023  0.00  0.00    +0.350 A 
ATOM     15  O   UNL     1       4.576   1.158  -0.037  0.00  0.00    -0.244 OA
ENDBRANCH   2   5
BRANCH   1  18
ATOM     16  C   UNL     1       6.068   7.367  -0.016  0.00  0.00    +0.262 C 
ATOM     17  O   UNL     1       5.018   7.982  -0.003  0.00  0.00    -0.269 OA
ATOM     18  N   UNL     1       6.060   6.019  -0.024  0.00  0.00    -0.230 N 
ATOM     19  H   UNL     1       6.897   5.530  -0.035  0.00  0.00    +0.173 HD
BRANCH  16  23
ATOM     20  C   UNL     1      10.972   8.317  -0.060  0.00  0.00    +0.149 C 
ATOM     21  N   UNL     1       9.524   8.535  -0.045  0.00  0.00    -0.349 N 
ATOM     22  C   UNL     1       8.594   7.549  -0.041  0.00  0.00    +0.099 A 
ATOM     23  C   UNL     1       7.344   8.095  -0.025  0.00  0.00    +0.063 A 
ATOM     24  C   UNL     1       7.526   9.558  -0.024  0.00  0.00    +0.012 A 
ATOM     25  C   UNL     1       8.914   9.772  -0.032  0.00  0.00    +0.050 A 
ATOM     26  C   UNL     1       9.403  11.074  -0.030  0.00  0.00    +0.026 A 
ATOM     27  C   UNL     1       8.526  12.138  -0.015  0.00  0.00    +0.002 A 
ATOM     28  C   UNL     1       7.156  11.924  -0.003  0.00  0.00    +0.001 A 
ATOM     29  C   UNL     1       6.652  10.641  -0.004  0.00  0.00    +0.011 A 
ENDBRANCH  16  23
ENDBRANCH   1  18
TORSDOF 3
