REMARK  Name = ZINC36545402
REMARK  17 active torsions:
REMARK  status: ('A' for Active; 'I' for Inactive)
REMARK    1  A    between atoms: C_1  and  C_2
REMARK    2  A    between atoms: C_2  and  C_4
REMARK    3  A    between atoms: C_2  and  C_10
REMARK    4  A    between atoms: C_10  and  C_12
REMARK    5  A    between atoms: C_10  and  N_23
REMARK    6  A    between atoms: N_14  and  C_15
REMARK    7  A    between atoms: C_15  and  C_16
REMARK    8  A    between atoms: C_15  and  C_17
REMARK    9  A    between atoms: C_15  and  C_18
REMARK   10  A    between atoms: C_18  and  C_19
REMARK   11  A    between atoms: C_19  and  C_20
REMARK   12  A    between atoms: C_19  and  C_21
REMARK   13  A    between atoms: C_19  and  C_22
REMARK   14  A    between atoms: N_23  and  C_24
REMARK   15  A    between atoms: C_31  and  C_33
REMARK   16  A    between atoms: C_37  and  O_40
REMARK   17  A    between atoms: C_38  and  O_39
REMARK                            x       y       z     vdW  Elec       q    Type
REMARK                         _______ _______ _______ _____ _____    ______ ____
ROOT
ATOM      1  C   UNL     1       1.260   0.328  -0.929  0.00  0.00    +0.174 C 
ENDROOT
BRANCH   1   2
ATOM      2  C   UNL     1       0.638   0.774  -2.227  0.00  0.00    +0.235 C 
ATOM      3  O   UNL     1       0.525  -0.009  -3.146  0.00  0.00    -0.274 OA
ATOM      4  N   UNL     1       0.208   2.044  -2.366  0.00  0.00    -0.309 N 
ATOM      5  H   UNL     1       0.351   2.685  -1.653  0.00  0.00    +0.149 HD
BRANCH   4   6
ATOM      6  C   UNL     1      -0.475   2.455  -3.595  0.00  0.00    +0.030 C 
ATOM      7  C   UNL     1       0.404   2.125  -4.803  0.00  0.00    +0.031 C 
ATOM      8  C   UNL     1      -1.805   1.708  -3.714  0.00  0.00    +0.031 C 
BRANCH   6   9
ATOM      9  C   UNL     1      -0.739   3.962  -3.553  0.00  0.00    +0.031 C 
BRANCH   9  10
ATOM     10  C   UNL     1       0.593   4.714  -3.605  0.00  0.00    -0.036 C 
ATOM     11  C   UNL     1       1.146   4.673  -5.031  0.00  0.00    +0.010 C 
ATOM     12  C   UNL     1       0.374   6.168  -3.185  0.00  0.00    +0.010 C 
ATOM     13  C   UNL     1       1.590   4.052  -2.652  0.00  0.00    +0.010 C 
ENDBRANCH   9  10
ENDBRANCH   6   9
ENDBRANCH   4   6
ENDBRANCH   1   2
BRANCH   1  14
ATOM     14  N   UNL     1       1.810  -1.021  -1.089  0.00  0.00    -0.253 N 
ATOM     15  C   UNL     1       0.990  -2.055  -1.363  0.00  0.00    +0.255 C 
ATOM     16  O   UNL     1      -0.214  -1.885  -1.391  0.00  0.00    -0.269 OA
BRANCH  14  17
ATOM     17  C   UNL     1       3.186  -1.235  -0.959  0.00  0.00    +0.056 A 
ATOM     18  C   UNL     1       3.745  -1.422   0.299  0.00  0.00    +0.025 A 
ATOM     19  C   UNL     1       5.104  -1.634   0.424  0.00  0.00    +0.002 A 
ATOM     20  C   UNL     1       5.909  -1.659  -0.700  0.00  0.00    +0.002 A 
ATOM     21  C   UNL     1       5.356  -1.474  -1.954  0.00  0.00    +0.022 A 
ATOM     22  C   UNL     1       3.996  -1.267  -2.088  0.00  0.00    +0.062 A 
ATOM     23 CL   UNL     1       3.302  -1.040  -3.663  0.00  0.00    -0.082 Cl
ENDBRANCH  14  17
BRANCH  15  24
ATOM     24  C   UNL     1       1.553  -3.392  -1.628  0.00  0.00    +0.082 A 
ATOM     25  C   UNL     1       2.449  -3.970  -0.724  0.00  0.00    +0.017 A 
ATOM     26  C   UNL     1       2.972  -5.219  -0.975  0.00  0.00    +0.005 A 
ATOM     27  C   UNL     1       2.616  -5.909  -2.122  0.00  0.00    +0.049 A 
ATOM     28  C   UNL     1       1.731  -5.351  -3.028  0.00  0.00    +0.159 A 
ATOM     29  C   UNL     1       1.188  -4.092  -2.785  0.00  0.00    +0.171 A 
BRANCH  29  30
ATOM     30  O   UNL     1       0.315  -3.544  -3.667  0.00  0.00    -0.503 OA
ATOM     31  H   UNL     1       0.735  -3.015  -4.359  0.00  0.00    +0.292 HD
ENDBRANCH  29  30
BRANCH  28  32
ATOM     32  O   UNL     1       1.387  -6.034  -4.152  0.00  0.00    -0.503 OA
ATOM     33  H   UNL     1       0.612  -6.603  -4.045  0.00  0.00    +0.292 HD
ENDBRANCH  28  32
ENDBRANCH  15  24
ENDBRANCH   1  14
BRANCH   1  35
ATOM     34  C   UNL     1      -0.320   1.739   0.395  0.00  0.00    +0.015 C 
ATOM     35  C   UNL     1       0.195   0.317   0.170  0.00  0.00    +0.046 C 
BRANCH  35  36
ATOM     36  C   UNL     1       0.797  -0.208   1.448  0.00  0.00    -0.042 A 
ATOM     37  C   UNL     1       1.808   0.496   2.075  0.00  0.00    +0.004 A 
ATOM     38  C   UNL     1       2.360   0.015   3.247  0.00  0.00    +0.000 A 
ATOM     39  C   UNL     1       1.901  -1.170   3.793  0.00  0.00    +0.000 A 
ATOM     40  C   UNL     1       0.889  -1.873   3.166  0.00  0.00    +0.000 A 
ATOM     41  C   UNL     1       0.334  -1.390   1.996  0.00  0.00    +0.004 A 
ENDBRANCH  35  36
ENDBRANCH   1  35
TORSDOF 11
