REMARK  Name = ZINC39575009
REMARK  5 active torsions:
REMARK  status: ('A' for Active; 'I' for Inactive)
REMARK    1  A    between atoms: C_4  and  C_7
REMARK    2  A    between atoms: C_11  and  C_13
REMARK    3  A    between atoms: C_13  and  N_14
REMARK    4  A    between atoms: C_17  and  C_20
REMARK    5  A    between atoms: C_17  and  O_27
REMARK                            x       y       z     vdW  Elec       q    Type
REMARK                         _______ _______ _______ _____ _____    ______ ____
ROOT
ATOM      1  N   UNL     1       3.421  -4.254  -1.112  0.00  0.00    +0.381 N 
ATOM      2  C   UNL     1       4.842  -4.607  -1.013  0.00  0.00    -0.076 C 
ATOM      3  C   UNL     1       4.981  -6.105  -0.732  0.00  0.00    +0.021 C 
ATOM      4  C   UNL     1       4.335  -6.895  -1.874  0.00  0.00    +0.088 C 
ATOM      5  C   UNL     1       2.872  -6.464  -2.016  0.00  0.00    +0.021 C 
ATOM      6  C   UNL     1       2.812  -4.953  -2.250  0.00  0.00    -0.076 C 
ATOM      7  H   UNL     1       2.950  -4.523  -0.262  0.00  0.00    -0.082 HD
ENDROOT
BRANCH   4   8
ATOM      8  C   UNL     1       4.398  -8.369  -1.566  0.00  0.00    -0.016 A 
ATOM      9  C   UNL     1       4.371  -8.802  -0.253  0.00  0.00    +0.008 A 
ATOM     10  C   UNL     1       4.429 -10.154   0.030  0.00  0.00    +0.020 A 
ATOM     11  C   UNL     1       4.515 -11.073  -1.000  0.00  0.00    +0.041 A 
ATOM     12  C   UNL     1       4.542 -10.639  -2.314  0.00  0.00    +0.020 A 
ATOM     13  C   UNL     1       4.478  -9.288  -2.596  0.00  0.00    +0.008 A 
ATOM     14 CL   UNL     1       4.588 -12.771  -0.645  0.00  0.00    -0.084 Cl
ENDBRANCH   4   8
BRANCH   4  15
ATOM     15  O   UNL     1       5.032  -6.630  -3.093  0.00  0.00    -0.384 OA
ATOM     16  H   UNL     1       4.675  -7.099  -3.860  0.00  0.00    +0.211 HD
ENDBRANCH   4  15
BRANCH   1  17
ATOM     17  C   UNL     1       3.291  -2.803  -1.304  0.00  0.00    -0.063 C 
BRANCH  17  22
ATOM     18  C   UNL     1       1.641  -0.933  -1.530  0.00  0.00    +0.077 C 
ATOM     19  N   UNL     1       1.106  -0.423  -0.455  0.00  0.00    -0.153 NA
ATOM     20  N   UNL     1       0.899  -1.380   0.533  0.00  0.00    -0.161 NA
ATOM     21  C   UNL     1       1.281  -2.560   0.167  0.00  0.00    +0.115 C 
ATOM     22  C   UNL     1       1.813  -2.411  -1.244  0.00  0.00    +0.066 C 
BRANCH  18  26
ATOM     23  C   UNL     1       2.669   1.121  -5.097  0.00  0.00    +0.000 A 
ATOM     24  C   UNL     1       2.110   1.816  -4.039  0.00  0.00    +0.001 A 
ATOM     25  C   UNL     1       1.773   1.156  -2.876  0.00  0.00    +0.010 A 
ATOM     26  C   UNL     1       1.997  -0.220  -2.768  0.00  0.00    -0.001 A 
ATOM     27  C   UNL     1       2.561  -0.916  -3.842  0.00  0.00    +0.010 A 
ATOM     28  C   UNL     1       2.893  -0.241  -4.997  0.00  0.00    +0.001 A 
ENDBRANCH  18  26
ENDBRANCH  17  22
ENDBRANCH   1  17
TORSDOF 5
