REMARK  Name = ZINC29119830
REMARK  4 active torsions:
REMARK  status: ('A' for Active; 'I' for Inactive)
REMARK    1  A    between atoms: C_11  and  C_33
REMARK    2  A    between atoms: C_14  and  C_16
REMARK    3  A    between atoms: C_16  and  N_17
REMARK    4  A    between atoms: C_21  and  C_23
REMARK                            x       y       z     vdW  Elec       q    Type
REMARK                         _______ _______ _______ _____ _____    ______ ____
ROOT
ATOM      1  C   UNL     1       1.185   1.802  -0.005  0.00  0.00    +0.002 A 
ATOM      2  C   UNL     1       1.159   3.185  -0.003  0.00  0.00    +0.002 A 
ATOM      3  C   UNL     1      -0.048   3.860   0.007  0.00  0.00    +0.025 A 
ATOM      4  C   UNL     1      -1.235   3.147   0.015  0.00  0.00    +0.058 A 
ATOM      5  C   UNL     1      -1.210   1.752   0.025  0.00  0.00    +0.055 A 
ATOM      6  C   UNL     1       0.004   1.084   0.012  0.00  0.00    +0.025 A 
ATOM      7  N   UNL     1      -2.416   1.045   0.079  0.00  0.00    -0.284 N 
ATOM      8  C   UNL     1      -3.421   1.343  -0.772  0.00  0.00    +0.219 C 
ATOM      9  O   UNL     1      -4.492   0.785  -0.659  0.00  0.00    -0.275 OA
ATOM     10  C   UNL     1      -3.220   2.365  -1.860  0.00  0.00    +0.128 C 
ATOM     11  C   UNL     1      -3.250   3.775  -1.270  0.00  0.00    +0.194 C 
ATOM     12  N   UNL     1      -2.469   3.812  -0.021  0.00  0.00    -0.259 N 
ATOM     13  C   UNL     1      -2.922   4.475   1.062  0.00  0.00    +0.204 C 
ATOM     14  O   UNL     1      -3.991   5.047   1.019  0.00  0.00    -0.277 OA
ATOM     15  H   UNL     1      -2.550   0.242   0.818  0.00  0.00    +0.155 HD
ENDROOT
BRANCH  11  16
ATOM     16  C   UNL     1      -2.654   4.760  -2.277  0.00  0.00    +0.409 C 
ATOM     17  F   UNL     1      -3.405   4.732  -3.457  0.00  0.00    -0.169 F 
ATOM     18  F   UNL     1      -2.681   6.051  -1.739  0.00  0.00    -0.169 F 
ATOM     19  F   UNL     1      -1.332   4.399  -2.558  0.00  0.00    -0.169 F 
ENDBRANCH  11  16
BRANCH  13  20
ATOM     20  C   UNL     1      -2.102   4.505   2.325  0.00  0.00    +0.020 C 
BRANCH  20  21
ATOM     21  N   UNL     1      -2.808   5.285   3.350  0.00  0.00    +0.390 N 
ATOM     22  C   UNL     1      -2.724   6.733   3.066  0.00  0.00    -0.077 C 
ATOM     23  C   UNL     1      -2.674   7.408   4.459  0.00  0.00    -0.020 C 
ATOM     24  C   UNL     1      -1.810   6.401   5.263  0.00  0.00    -0.013 C 
ATOM     25  C   UNL     1      -2.241   5.036   4.688  0.00  0.00    -0.037 C 
ATOM     26  H   UNL     1      -3.859   4.960   3.328  0.00  0.00    -0.080 HD
BRANCH  25  27
ATOM     27  C   UNL     1      -1.046   4.125   4.577  0.00  0.00    -0.057 A 
ATOM     28  C   UNL     1       0.087   4.553   3.909  0.00  0.00    +0.006 A 
ATOM     29  C   UNL     1       1.186   3.720   3.805  0.00  0.00    +0.049 A 
ATOM     30  C   UNL     1       1.154   2.454   4.369  0.00  0.00    +0.162 A 
ATOM     31  C   UNL     1       0.016   2.025   5.042  0.00  0.00    +0.162 A 
ATOM     32  C   UNL     1      -1.081   2.867   5.147  0.00  0.00    +0.051 A 
ATOM     33  O   UNL     1      -0.034   0.789   5.609  0.00  0.00    -0.485 OA
ATOM     34  C   UNL     1       0.940  -0.162   5.164  0.00  0.00    +0.270 C 
ATOM     35  C   UNL     1       2.311   0.527   5.146  0.00  0.00    +0.270 C 
ATOM     36  O   UNL     1       2.240   1.642   4.251  0.00  0.00    -0.485 OA
ENDBRANCH  25  27
ENDBRANCH  20  21
ENDBRANCH  13  20
TORSDOF 4
