REMARK  Name = ZINC10047987
REMARK  10 active torsions:
REMARK  status: ('A' for Active; 'I' for Inactive)
REMARK    1  A    between atoms: C_1  and  C_2
REMARK    2  A    between atoms: C_4  and  C_31
REMARK    3  A    between atoms: N_6  and  C_26
REMARK    4  A    between atoms: N_12  and  C_25
REMARK    5  A    between atoms: N_15  and  C_18
REMARK    6  A    between atoms: C_18  and  C_19
REMARK    7  A    between atoms: C_19  and  N_60
REMARK    8  A    between atoms: C_26  and  C_27
REMARK    9  A    between atoms: C_27  and  O_29
REMARK   10  A    between atoms: O_29  and  C_30
REMARK                            x       y       z     vdW  Elec       q    Type
REMARK                         _______ _______ _______ _____ _____    ______ ____
ROOT
ATOM      1  C   UNL     1      -3.544   3.579   2.703  0.00  0.00    +0.037 C 
ATOM      2  C   UNL     1      -2.368   2.751   3.227  0.00  0.00    +0.133 C 
ATOM      3  C   UNL     1      -1.080   3.329   2.708  0.00  0.00    +0.057 C 
ATOM      4  N   UNL     1      -0.358   2.780   1.818  0.00  0.00    -0.184 NA
ATOM      5  N   UNL     1      -0.698   1.558   1.213  0.00  0.00    -0.182 N 
ATOM      6  C   UNL     1      -1.702   0.819   1.807  0.00  0.00    +0.222 A 
ATOM      7  N   UNL     1      -2.507   1.368   2.774  0.00  0.00    -0.296 N 
ATOM      8  C   UNL     1      -3.381   0.390   3.157  0.00  0.00    +0.153 A 
ATOM      9  C   UNL     1      -3.070  -0.742   2.386  0.00  0.00    +0.170 A 
ATOM     10  N   UNL     1      -2.057  -0.426   1.594  0.00  0.00    -0.195 NA
ATOM     11  N   UNL     1      -3.795  -1.914   2.546  0.00  0.00    -0.280 N 
ATOM     12  C   UNL     1      -4.791  -1.905   3.462  0.00  0.00    +0.333 A 
ATOM     13  O   UNL     1      -5.440  -2.921   3.620  0.00  0.00    -0.246 OA
ATOM     14  N   UNL     1      -5.097  -0.831   4.205  0.00  0.00    -0.261 N 
ATOM     15  C   UNL     1      -4.430   0.344   4.098  0.00  0.00    +0.282 A 
ATOM     16  O   UNL     1      -4.721   1.311   4.781  0.00  0.00    -0.265 OA
ATOM     17  C   UNL     1      -3.495  -3.111   1.756  0.00  0.00    +0.155 C 
ATOM     18  C   UNL     1      -0.611   4.639   3.285  0.00  0.00    +0.064 C 
ENDROOT
BRANCH  14  19
ATOM     19  C   UNL     1      -6.196  -0.931   5.168  0.00  0.00    +0.111 C 
BRANCH  19  20
ATOM     20  C   UNL     1      -5.650  -1.402   6.517  0.00  0.00    -0.057 C 
BRANCH  20  26
ATOM     21  C   UNL     1      -7.320  -0.180   7.774  0.00  0.00    -0.079 C 
ATOM     22  C   UNL     1      -8.553  -0.338   8.666  0.00  0.00    -0.019 C 
ATOM     23  C   UNL     1      -8.149  -1.036   9.967  0.00  0.00    -0.004 C 
ATOM     24  C   UNL     1      -7.516  -2.390   9.635  0.00  0.00    -0.019 C 
ATOM     25  C   UNL     1      -6.313  -2.174   8.714  0.00  0.00    -0.079 C 
ATOM     26  N   UNL     1      -6.772  -1.520   7.470  0.00  0.00    +0.381 N 
ATOM     27  H   UNL     1      -7.511  -2.093   7.046  0.00  0.00    -0.082 HD
ENDBRANCH  20  26
ENDBRANCH  19  20
ENDBRANCH  14  19
BRANCH   5  28
ATOM     28  C   UNL     1      -0.013   1.086   0.008  0.00  0.00    +0.255 C 
BRANCH  28  29
ATOM     29  C   UNL     1      -0.742   1.585  -1.213  0.00  0.00    +0.326 C 
ATOM     30  O   UNL     1      -1.732   2.266  -1.089  0.00  0.00    -0.249 OA
BRANCH  29  31
ATOM     31  O   UNL     1      -0.290   1.274  -2.438  0.00  0.00    -0.467 OA
ATOM     32  C   UNL     1      -1.042   1.789  -3.568  0.00  0.00    +0.280 C 
ENDBRANCH  29  31
ENDBRANCH  28  29
ENDBRANCH   5  28
TORSDOF 6
