REMARK  Name = ZINC25395399
REMARK  13 active torsions:
REMARK  status: ('A' for Active; 'I' for Inactive)
REMARK    1  A    between atoms: C_1  and  N_2
REMARK    2  A    between atoms: N_2  and  C_3
REMARK    3  A    between atoms: N_2  and  C_4
REMARK    4  A    between atoms: C_4  and  C_6
REMARK    5  A    between atoms: C_4  and  C_30
REMARK    6  A    between atoms: C_6  and  N_7
REMARK    7  A    between atoms: C_8  and  C_10
REMARK    8  A    between atoms: C_12  and  S_17
REMARK    9  A    between atoms: S_17  and  N_20
REMARK   10  A    between atoms: N_20  and  C_21
REMARK   11  A    between atoms: C_21  and  C_22
REMARK   12  A    between atoms: C_22  and  C_23
REMARK   13  A    between atoms: C_23  and  N_24
REMARK                            x       y       z     vdW  Elec       q    Type
REMARK                         _______ _______ _______ _____ _____    ______ ____
ROOT
ATOM      1  C   UNL     1      -2.536   2.570  -2.814  0.00  0.00    +0.057 A 
ATOM      2  C   UNL     1      -1.998   1.575  -1.995  0.00  0.00    +0.043 A 
ATOM      3  C   UNL     1      -1.257   1.924  -0.886  0.00  0.00    +0.106 A 
ATOM      4  C   UNL     1      -1.049   3.258  -0.580  0.00  0.00    +0.030 A 
ATOM      5  C   UNL     1      -1.573   4.250  -1.389  0.00  0.00    +0.022 A 
ATOM      6  C   UNL     1      -2.318   3.914  -2.503  0.00  0.00    +0.053 A 
ATOM      7 CL   UNL     1      -2.981   5.160  -3.514  0.00  0.00    -0.083 Cl
ENDROOT
BRANCH   1   9
ATOM      8  N   UNL     1      -3.539   0.905  -4.301  0.00  0.00    -0.313 N 
ATOM      9  C   UNL     1      -3.332   2.203  -4.004  0.00  0.00    +0.245 C 
ATOM     10  O   UNL     1      -3.798   3.072  -4.715  0.00  0.00    -0.270 OA
ATOM     11  H   UNL     1      -3.117   0.119  -3.658  0.00  0.00    +0.149 HD
BRANCH   8  12
ATOM     12  C   UNL     1      -4.328   0.541  -5.481  0.00  0.00    +0.094 C 
BRANCH  12  13
ATOM     13  C   UNL     1      -4.411  -0.983  -5.589  0.00  0.00    -0.021 C 
BRANCH  13  14
ATOM     14  C   UNL     1      -5.117  -1.358  -6.867  0.00  0.00    -0.059 A 
ATOM     15  C   UNL     1      -6.138  -2.289  -6.844  0.00  0.00    +0.002 A 
ATOM     16  C   UNL     1      -6.788  -2.630  -8.016  0.00  0.00    +0.000 A 
ATOM     17  C   UNL     1      -6.410  -2.048  -9.211  0.00  0.00    +0.000 A 
ATOM     18  C   UNL     1      -5.384  -1.121  -9.234  0.00  0.00    +0.000 A 
ATOM     19  C   UNL     1      -4.738  -0.776  -8.062  0.00  0.00    +0.002 A 
ENDBRANCH  13  14
BRANCH  13  21
ATOM     20  C   UNL     1      -3.096  -3.014  -5.511  0.00  0.00    -0.096 C 
ATOM     21  N   UNL     1      -3.055  -1.548  -5.593  0.00  0.00    +0.382 N 
ATOM     22  C   UNL     1      -2.306  -1.108  -6.777  0.00  0.00    -0.096 C 
ATOM     23  H   UNL     1      -2.530  -1.174  -4.702  0.00  0.00    -0.082 HD
ENDBRANCH  13  21
ENDBRANCH  12  13
ENDBRANCH   8  12
ENDBRANCH   1   9
BRANCH   3  24
ATOM     24  S   UNL     1      -0.578   0.669   0.147  0.00  0.00    +0.058 S 
ATOM     25  O   UNL     1      -1.376  -0.491  -0.044  0.00  0.00    -0.153 OA
ATOM     26  O   UNL     1      -0.383   1.258   1.426  0.00  0.00    -0.153 OA
BRANCH  24  27
ATOM     27  N   UNL     1       0.927   0.310  -0.443  0.00  0.00    -0.190 NA
ATOM     28  H   UNL     1       1.077  -0.629  -0.996  0.00  0.00    +0.148 HD
BRANCH  27  29
ATOM     29  C   UNL     1       1.984   1.324  -0.419  0.00  0.00    +0.107 C 
BRANCH  29  30
ATOM     30  C   UNL     1       3.338   0.655  -0.665  0.00  0.00    +0.036 C 
BRANCH  30  31
ATOM     31  C   UNL     1       4.442   1.714  -0.640  0.00  0.00    +0.109 C 
BRANCH  31  32
ATOM     32  N   UNL     1       5.739   1.073  -0.876  0.00  0.00    -0.301 N 
ATOM     33  C   UNL     1       6.608   0.549   0.184  0.00  0.00    +0.108 C 
ATOM     34  C   UNL     1       7.603  -0.396  -0.531  0.00  0.00    +0.028 C 
ATOM     35  C   UNL     1       7.621   0.194  -1.961  0.00  0.00    +0.097 C 
ATOM     36  C   UNL     1       6.287   0.895  -2.090  0.00  0.00    +0.216 C 
ATOM     37  O   UNL     1       5.786   1.247  -3.137  0.00  0.00    -0.276 OA
ENDBRANCH  31  32
ENDBRANCH  30  31
ENDBRANCH  29  30
ENDBRANCH  27  29
ENDBRANCH  24  27
ENDBRANCH   3  24
TORSDOF 11
