REMARK  Name = ZINC55088242
REMARK  8 active torsions:
REMARK  status: ('A' for Active; 'I' for Inactive)
REMARK    1  A    between atoms: C_1  and  C_2
REMARK    2  A    between atoms: C_3  and  C_4
REMARK    3  A    between atoms: C_3  and  C_5
REMARK    4  A    between atoms: C_5  and  N_6
REMARK    5  A    between atoms: C_8  and  S_31
REMARK    6  A    between atoms: C_11  and  C_13
REMARK    7  A    between atoms: N_18  and  C_21
REMARK    8  A    between atoms: S_31  and  C_32
REMARK                            x       y       z     vdW  Elec       q    Type
REMARK                         _______ _______ _______ _____ _____    ______ ____
ROOT
ATOM      1  N   UNL     1      -1.219  -2.754   0.900  0.00  0.00    +0.390 N 
ATOM      2  C   UNL     1      -0.096  -2.097   1.595  0.00  0.00    -0.063 C 
ATOM      3  C   UNL     1       0.522  -3.139   2.551  0.00  0.00    +0.037 C 
ATOM      4  C   UNL     1      -0.636  -4.150   2.762  0.00  0.00    +0.006 C 
ATOM      5  C   UNL     1      -1.306  -4.155   1.365  0.00  0.00    +0.021 C 
ATOM      6  H   UNL     1      -2.078  -2.271   1.116  0.00  0.00    -0.080 HD
ENDROOT
BRANCH   5   7
ATOM      7  C   UNL     1      -2.746  -4.582   1.476  0.00  0.00    +0.202 C 
ATOM      8  O   UNL     1      -3.614  -3.753   1.649  0.00  0.00    -0.277 OA
ATOM      9  N   UNL     1      -3.071  -5.887   1.383  0.00  0.00    -0.300 N 
ATOM     10  C   UNL     1      -2.028  -6.920   1.292  0.00  0.00    +0.123 C 
ATOM     11  C   UNL     1      -2.309  -7.991   2.351  0.00  0.00    +0.103 C 
ATOM     12  N   UNL     1      -3.685  -8.482   2.192  0.00  0.00    -0.296 NA
ATOM     13  C   UNL     1      -4.663  -7.411   2.425  0.00  0.00    +0.103 C 
ATOM     14  C   UNL     1      -4.478  -6.316   1.375  0.00  0.00    +0.123 C 
BRANCH  12  15
ATOM     15  C   UNL     1      -3.940  -9.628   3.075  0.00  0.00    +0.063 C 
ATOM     16  C   UNL     1      -2.972 -10.762   2.730  0.00  0.00    +0.007 C 
ATOM     17  C   UNL     1      -3.177 -11.184   1.274  0.00  0.00    +0.008 C 
ATOM     18  C   UNL     1      -4.617 -11.666   1.081  0.00  0.00    -0.010 C 
ATOM     19  C   UNL     1      -4.882 -12.860   2.000  0.00  0.00    +0.007 C 
ATOM     20  C   UNL     1      -4.676 -12.438   3.456  0.00  0.00    -0.010 C 
ATOM     21  C   UNL     1      -3.237 -11.956   3.649  0.00  0.00    +0.008 C 
ATOM     22  C   UNL     1      -5.644 -11.305   3.801  0.00  0.00    +0.008 C 
ATOM     23  C   UNL     1      -5.379 -10.111   2.882  0.00  0.00    +0.007 C 
ATOM     24  C   UNL     1      -5.585 -10.532   1.425  0.00  0.00    +0.008 C 
ENDBRANCH  12  15
ENDBRANCH   5   7
BRANCH   1  25
ATOM     25  C   UNL     1      -0.986  -2.728  -0.550  0.00  0.00    -0.047 C 
BRANCH  25  28
ATOM     26  C   UNL     1       0.059   0.800  -1.652  0.00  0.00    +0.035 C 
ATOM     27  C   UNL     1       0.094  -0.625  -1.163  0.00  0.00    -0.033 C 
ATOM     28  C   UNL     1      -1.021  -1.302  -1.039  0.00  0.00    -0.093 C 
ATOM     29  C   UNL     1      -2.338  -0.656  -1.384  0.00  0.00    +0.037 C 
ENDBRANCH  25  28
ENDBRANCH   1  25
BRANCH   3  30
ATOM     30  S   UNL     1       0.998  -2.366   4.121  0.00  0.00    -0.085 S 
BRANCH  30  31
ATOM     31  C   UNL     1       1.806  -3.659   5.005  0.00  0.00    +0.188 A 
ATOM     32  N   UNL     1       1.926  -4.852   4.440  0.00  0.00    -0.230 NA
ATOM     33  C   UNL     1       2.527  -5.843   5.077  0.00  0.00    +0.115 A 
ATOM     34  C   UNL     1       3.033  -5.622   6.348  0.00  0.00    +0.039 A 
ATOM     35  C   UNL     1       2.890  -4.363   6.909  0.00  0.00    +0.115 A 
ATOM     36  N   UNL     1       2.283  -3.413   6.217  0.00  0.00    -0.230 NA
ENDBRANCH  30  31
ENDBRANCH   3  30
TORSDOF 6
