REMARK  Name = ZINC47133658
REMARK  8 active torsions:
REMARK  status: ('A' for Active; 'I' for Inactive)
REMARK    1  A    between atoms: C_1  and  C_2
REMARK    2  A    between atoms: C_5  and  C_34
REMARK    3  A    between atoms: C_6  and  C_8
REMARK    4  A    between atoms: C_14  and  C_16
REMARK    5  A    between atoms: C_16  and  C_17
REMARK    6  A    between atoms: C_17  and  C_18
REMARK    7  A    between atoms: C_18  and  N_19
REMARK    8  A    between atoms: C_23  and  C_24
REMARK                            x       y       z     vdW  Elec       q    Type
REMARK                         _______ _______ _______ _____ _____    ______ ____
ROOT
ATOM      1  C   UNL     1       0.518   2.183   5.377  0.00  0.00    +0.098 C 
ENDROOT
BRANCH   1   8
ATOM      2  C   UNL     1       0.421  -1.218   1.685  0.00  0.00    +0.156 A 
ATOM      3  C   UNL     1       0.688  -0.772   3.058  0.00  0.00    +0.197 A 
ATOM      4  N   UNL     1       1.113  -1.795   3.745  0.00  0.00    -0.033 NA
ATOM      5  O   UNL     1       1.141  -2.919   2.884  0.00  0.00    -0.240 OA
ATOM      6  N   UNL     1       0.692  -2.494   1.609  0.00  0.00    -0.047 NA
ATOM      7  N   UNL     1       0.518   0.523   3.543  0.00  0.00    -0.266 N 
ATOM      8  C   UNL     1       0.703   0.782   4.852  0.00  0.00    +0.218 C 
ATOM      9  O   UNL     1       1.017  -0.112   5.609  0.00  0.00    -0.275 OA
ATOM     10  H   UNL     1       0.267   1.238   2.938  0.00  0.00    +0.156 HD
BRANCH   2  16
ATOM     11  C   UNL     1       0.553   3.074  -0.863  0.00  0.00    +0.044 C 
ATOM     12  C   UNL     1      -0.017   1.695  -0.651  0.00  0.00    -0.050 A 
ATOM     13  C   UNL     1      -1.008   1.221  -1.491  0.00  0.00    +0.003 A 
ATOM     14  C   UNL     1      -1.536  -0.043  -1.302  0.00  0.00    +0.004 A 
ATOM     15  C   UNL     1      -1.076  -0.840  -0.273  0.00  0.00    -0.041 A 
ATOM     16  C   UNL     1      -0.077  -0.367   0.577  0.00  0.00    +0.010 A 
ATOM     17  C   UNL     1       0.455   0.906   0.378  0.00  0.00    +0.014 A 
ATOM     18  C   UNL     1      -1.652  -2.217  -0.068  0.00  0.00    +0.044 C 
ENDBRANCH   2  16
ENDBRANCH   1   8
BRANCH   1  19
ATOM     19  C   UNL     1       0.786   2.203   6.883  0.00  0.00    +0.029 C 
BRANCH  19  20
ATOM     20  C   UNL     1       0.599   3.625   7.416  0.00  0.00    +0.115 C 
BRANCH  20  21
ATOM     21  N   UNL     1       0.855   3.644   8.858  0.00  0.00    -0.255 N 
ATOM     22  C   UNL     1      -0.145   3.425   9.695  0.00  0.00    +0.258 C 
ATOM     23  O   UNL     1      -1.275   3.209   9.298  0.00  0.00    -0.269 OA
ATOM     24  C   UNL     1       0.179   3.458  11.136  0.00  0.00    +0.077 C 
ATOM     25  C   UNL     1      -0.630   3.272  12.209  0.00  0.00    +0.028 C 
ATOM     26  S   UNL     1       1.931   3.808  11.077  0.00  0.00    -0.061 S 
ATOM     27  C   UNL     1       2.107   3.878   9.302  0.00  0.00    +0.121 C 
ATOM     28  S   UNL     1       3.522   4.173   8.384  0.00  0.00    -0.027 S 
BRANCH  25  29
ATOM     29  C   UNL     1      -0.128   3.545  13.563  0.00  0.00    -0.024 A 
ATOM     30  C   UNL     1       1.114   4.164  13.742  0.00  0.00    +0.009 A 
ATOM     31  C   UNL     1       1.578   4.417  15.015  0.00  0.00    +0.020 A 
ATOM     32  C   UNL     1       0.817   4.060  16.117  0.00  0.00    +0.041 A 
ATOM     33  C   UNL     1      -0.414   3.446  15.948  0.00  0.00    +0.020 A 
ATOM     34  C   UNL     1      -0.893   3.192  14.681  0.00  0.00    +0.009 A 
ATOM     35 CL   UNL     1       1.409   4.382  17.716  0.00  0.00    -0.084 Cl
ENDBRANCH  25  29
ENDBRANCH  20  21
ENDBRANCH  19  20
ENDBRANCH   1  19
TORSDOF 6
