REMARK  Name = ZINC00856740
REMARK  5 active torsions:
REMARK  status: ('A' for Active; 'I' for Inactive)
REMARK    1  A    between atoms: C_1  and  C_2
REMARK    2  A    between atoms: C_2  and  C_26
REMARK    3  A    between atoms: N_6  and  C_7
REMARK    4  A    between atoms: C_10  and  S_13
REMARK    5  A    between atoms: S_13  and  N_16
REMARK                            x       y       z     vdW  Elec       q    Type
REMARK                         _______ _______ _______ _____ _____    ______ ____
ROOT
ATOM      1  C   UNL     1       4.805   0.791   0.697  0.00  0.00    +0.037 C 
ATOM      2  C   UNL     1       3.889  -0.163  -0.072  0.00  0.00    +0.059 C 
ATOM      3  C   UNL     1       2.469   0.356  -0.031  0.00  0.00    +0.030 A 
ATOM      4  C   UNL     1       1.356  -0.444   0.001  0.00  0.00    +0.029 A 
ATOM      5  C   UNL     1       0.002  -0.004  -0.004  0.00  0.00    +0.117 A 
ATOM      6  N   UNL     1      -1.068  -0.792  -0.004  0.00  0.00    -0.240 NA
ATOM      7  S   UNL     1      -0.023   1.783  -0.010  0.00  0.00    -0.032 S 
ATOM      8  S   UNL     1       2.053   2.039  -0.029  0.00  0.00    -0.052 S 
ATOM      9  C   UNL     1       1.608  -1.936   0.032  0.00  0.00    +0.006 A 
ATOM     10  C   UNL     1       0.566  -2.821  -0.200  0.00  0.00    +0.010 A 
ATOM     11  C   UNL     1       0.820  -4.182  -0.179  0.00  0.00    +0.001 A 
ATOM     12  C   UNL     1       2.099  -4.647   0.069  0.00  0.00    +0.002 A 
ATOM     13  C   UNL     1       3.139  -3.765   0.305  0.00  0.00    +0.023 A 
ATOM     14  C   UNL     1       2.897  -2.400   0.294  0.00  0.00    +0.036 A 
ATOM     15  N   UNL     1       3.928  -1.491   0.553  0.00  0.00    -0.334 N 
ATOM     16  C   UNL     1       4.358  -0.266  -1.524  0.00  0.00    +0.037 C 
ATOM     17  H   UNL     1       4.660  -1.736   1.139  0.00  0.00    +0.147 HD
ENDROOT
BRANCH   6  18
ATOM     18  C   UNL     1      -2.315  -0.250   0.100  0.00  0.00    +0.065 A 
ATOM     19  C   UNL     1      -2.857   0.029   1.359  0.00  0.00    +0.029 A 
ATOM     20  C   UNL     1      -4.116   0.583   1.456  0.00  0.00    +0.030 A 
ATOM     21  C   UNL     1      -4.848   0.852   0.313  0.00  0.00    +0.105 A 
ATOM     22  C   UNL     1      -4.321   0.573  -0.937  0.00  0.00    +0.030 A 
ATOM     23  C   UNL     1      -3.061   0.025  -1.051  0.00  0.00    +0.029 A 
BRANCH  21  24
ATOM     24  S   UNL     1      -6.459   1.552   0.448  0.00  0.00    +0.056 S 
ATOM     25  O   UNL     1      -6.506   2.224   1.699  0.00  0.00    -0.153 OA
ATOM     26  O   UNL     1      -6.719   2.214  -0.783  0.00  0.00    -0.153 OA
BRANCH  24  27
ATOM     27  N   UNL     1      -7.533   0.295   0.545  0.00  0.00    -0.204 NA
ATOM     28  H   UNL     1      -7.212  -0.620   0.521  0.00  0.00    +0.144 HD
ATOM     29  H   UNL     1      -8.483   0.473   0.625  0.00  0.00    +0.144 HD
ENDBRANCH  24  27
ENDBRANCH  21  24
ENDBRANCH   6  18
TORSDOF 3
