REMARK  Name = ZINC04618937
REMARK  4 active torsions:
REMARK  status: ('A' for Active; 'I' for Inactive)
REMARK    1  A    between atoms: N_9  and  N_18
REMARK    2  A    between atoms: C_10  and  C_13
REMARK    3  A    between atoms: C_19  and  C_21
REMARK    4  A    between atoms: C_24  and  N_27
REMARK                            x       y       z     vdW  Elec       q    Type
REMARK                         _______ _______ _______ _____ _____    ______ ____
ROOT
ATOM      1  C   UNL     1       1.921   5.589  -1.012  0.00  0.00    +0.001 A 
ATOM      2  C   UNL     1       2.817   4.967  -0.156  0.00  0.00    +0.002 A 
ATOM      3  C   UNL     1       2.651   3.639   0.191  0.00  0.00    +0.024 A 
ATOM      4  C   UNL     1       1.581   2.926  -0.322  0.00  0.00    +0.041 A 
ATOM      5  C   UNL     1       0.673   3.553  -1.194  0.00  0.00    +0.059 A 
ATOM      6  C   UNL     1       0.851   4.892  -1.532  0.00  0.00    +0.015 A 
ATOM      7  C   UNL     1      -0.448   2.759  -1.728  0.00  0.00    +0.266 C 
ATOM      8  O   UNL     1      -1.105   3.175  -2.664  0.00  0.00    -0.268 OA
ATOM      9  N   UNL     1      -0.738   1.567  -1.168  0.00  0.00    -0.190 N 
ATOM     10  C   UNL     1      -0.013   1.086   0.008  0.00  0.00    +0.218 C 
ATOM     11  N   UNL     1       1.366   1.591  -0.002  0.00  0.00    -0.320 N 
ATOM     12  H   UNL     1       2.110   1.005   0.209  0.00  0.00    +0.148 HD
ENDROOT
BRANCH  10  13
ATOM     13  C   UNL     1      -0.711   1.569   1.253  0.00  0.00    +0.029 A 
ATOM     14  C   UNL     1      -0.188   1.846   2.472  0.00  0.00    +0.015 A 
ATOM     15  C   UNL     1      -1.029   2.285   3.478  0.00  0.00    +0.008 A 
ATOM     16  C   UNL     1      -2.353   2.414   3.219  0.00  0.00    +0.045 A 
ATOM     17  S   UNL     1      -2.444   1.915   1.507  0.00  0.00    -0.098 S 
ENDBRANCH  10  13
BRANCH   9  18
ATOM     18  N   UNL     1      -1.752   0.774  -1.722  0.00  0.00    -0.226 N 
ATOM     19  C   UNL     1      -3.045   1.103  -1.529  0.00  0.00    +0.260 C 
ATOM     20  O   UNL     1      -3.331   2.086  -0.875  0.00  0.00    -0.269 OA
ATOM     21  H   UNL     1      -1.523  -0.010  -2.245  0.00  0.00    +0.173 HD
BRANCH  19  22
ATOM     22  C   UNL     1      -4.115   0.267  -2.114  0.00  0.00    +0.038 A 
ATOM     23  C   UNL     1      -3.789  -0.860  -2.872  0.00  0.00    +0.015 A 
ATOM     24  C   UNL     1      -4.792  -1.638  -3.411  0.00  0.00    +0.033 A 
ATOM     25  C   UNL     1      -6.119  -1.299  -3.211  0.00  0.00    +0.126 A 
ATOM     26  C   UNL     1      -6.448  -0.181  -2.466  0.00  0.00    +0.033 A 
ATOM     27  C   UNL     1      -5.455   0.603  -1.917  0.00  0.00    +0.015 A 
BRANCH  25  28
ATOM     28  N   UNL     1      -7.190  -2.135  -3.798  0.00  0.00    +0.056 N 
ATOM     29  O   UNL     1      -8.358  -1.839  -3.623  0.00  0.00    -0.126 OA
ATOM     30  O   UNL     1      -6.902  -3.120  -4.455  0.00  0.00    -0.126 OA
ENDBRANCH  25  28
ENDBRANCH  19  22
ENDBRANCH   9  18
TORSDOF 4
