REMARK  Name = ZINC32624494
REMARK  4 active torsions:
REMARK  status: ('A' for Active; 'I' for Inactive)
REMARK    1  A    between atoms: C_1  and  O_2
REMARK    2  A    between atoms: O_2  and  C_3
REMARK    3  A    between atoms: C_6  and  C_9
REMARK    4  A    between atoms: C_11  and  C_14
REMARK                            x       y       z     vdW  Elec       q    Type
REMARK                         _______ _______ _______ _____ _____    ______ ____
ROOT
ATOM      1  C   UNL     1       1.235  -0.445  -0.000  0.00  0.00    +0.202 A 
ATOM      2  N   UNL     1       2.048   0.632  -0.008  0.00  0.00    -0.187 NA
ATOM      3  C   UNL     1       1.243   1.683   0.005  0.00  0.00    +0.261 A 
ATOM      4  O   UNL     1      -0.014   1.208   0.020  0.00  0.00    -0.332 OA
ATOM      5  N   UNL     1       0.002  -0.004   0.017  0.00  0.00    -0.056 NA
ENDROOT
BRANCH   3   6
ATOM      6  C   UNL     1       1.646   3.095   0.002  0.00  0.00    +0.071 C 
ATOM      7  C   UNL     1       0.655   4.158   0.012  0.00  0.00    -0.041 C 
ATOM      8  C   UNL     1       1.135   5.422   0.001  0.00  0.00    +0.079 C 
ATOM      9  S   UNL     1       2.897   5.239  -0.035  0.00  0.00    -0.098 S 
ATOM     10  C   UNL     1       2.986   3.458  -0.010  0.00  0.00    +0.101 C 
ATOM     11  N   UNL     1       4.107   2.644  -0.024  0.00  0.00    -0.292 NA
ATOM     12  C   UNL     1       0.342   6.692   0.010  0.00  0.00    +0.019 C 
ATOM     13  C   UNL     1      -1.117   6.357  -0.333  0.00  0.00    +0.002 C 
ATOM     14  C   UNL     1      -1.560   5.165   0.521  0.00  0.00    +0.004 C 
ATOM     15  C   UNL     1      -0.848   3.896   0.034  0.00  0.00    +0.033 C 
ATOM     16  H   UNL     1       3.992   1.550  -0.028  0.00  0.00    +0.187 HD
ENDBRANCH   3   6
BRANCH   1  20
ATOM     17  C   UNL     1       2.452  -4.520  -0.024  0.00  0.00    +0.120 A 
ATOM     18  C   UNL     1       1.101  -4.201  -0.006  0.00  0.00    +0.046 A 
ATOM     19  C   UNL     1       0.703  -2.880   0.001  0.00  0.00    +0.015 A 
ATOM     20  C   UNL     1       1.659  -1.866  -0.008  0.00  0.00    +0.023 A 
ATOM     21  C   UNL     1       3.015  -2.190  -0.032  0.00  0.00    +0.015 A 
ATOM     22  C   UNL     1       3.407  -3.512  -0.034  0.00  0.00    +0.046 A 
BRANCH  17  24
ATOM     23  C   UNL     1       4.246  -6.079  -0.050  0.00  0.00    +0.277 C 
ATOM     24  O   UNL     1       2.841  -5.822  -0.031  0.00  0.00    -0.495 OA
ENDBRANCH  17  24
ENDBRANCH   1  20
TORSDOF 3
