REMARK  Name = ZINC45995059
REMARK  11 active torsions:
REMARK  status: ('A' for Active; 'I' for Inactive)
REMARK    1  A    between atoms: C_1  and  C_2
REMARK    2  A    between atoms: C_8  and  S_25
REMARK    3  A    between atoms: N_10  and  C_13
REMARK    4  A    between atoms: C_13  and  C_14
REMARK    5  A    between atoms: N_16  and  C_17
REMARK    6  A    between atoms: C_19  and  C_24
REMARK    7  A    between atoms: C_21  and  C_23
REMARK    8  A    between atoms: S_25  and  C_28
REMARK    9  A    between atoms: C_31  and  C_34
REMARK   10  A    between atoms: C_34  and  C_35
REMARK   11  A    between atoms: C_34  and  C_36
REMARK                            x       y       z     vdW  Elec       q    Type
REMARK                         _______ _______ _______ _____ _____    ______ ____
ROOT
ATOM      1  C   UNL     1       0.015   1.500  -0.002  0.00  0.00    +0.065 C 
ATOM      2  C   UNL     1       0.026  -0.007  -0.006  0.00  0.00    +0.041 A 
ATOM      3  C   UNL     1       0.030  -0.680  -1.219  0.00  0.00    +0.024 A 
ATOM      4  C   UNL     1       0.040  -2.063  -1.228  0.00  0.00    +0.017 A 
ATOM      5  C   UNL     1       0.047  -2.725   0.002  0.00  0.00    +0.066 A 
ATOM      6  C   UNL     1       0.059  -4.195   0.087  0.00  0.00    +0.216 A 
ATOM      7  O   UNL     1       0.063  -4.886  -0.918  0.00  0.00    -0.285 OA
ATOM      8  C   UNL     1       0.065  -4.778   1.377  0.00  0.00    +0.157 A 
ATOM      9  C   UNL     1       0.060  -3.991   2.472  0.00  0.00    +0.119 A 
ATOM     10  N   UNL     1       0.049  -2.638   2.399  0.00  0.00    -0.321 N 
ATOM     11  C   UNL     1       0.043  -1.978   1.193  0.00  0.00    +0.145 A 
ATOM     12  N   UNL     1       0.038  -0.653   1.141  0.00  0.00    -0.234 NA
ENDROOT
BRANCH   8  13
ATOM     13  S   UNL     1       0.079  -6.532   1.552  0.00  0.00    +0.030 S 
ATOM     14  O   UNL     1       1.107  -7.017   0.699  0.00  0.00    -0.164 OA
ATOM     15  O   UNL     1       0.056  -6.801   2.947  0.00  0.00    -0.164 OA
BRANCH  13  16
ATOM     16  C   UNL     1      -1.443  -7.132   0.898  0.00  0.00    +0.094 A 
ATOM     17  C   UNL     1      -2.547  -7.259   1.720  0.00  0.00    +0.027 A 
ATOM     18  C   UNL     1      -3.741  -7.730   1.207  0.00  0.00    +0.006 A 
ATOM     19  C   UNL     1      -3.832  -8.074  -0.129  0.00  0.00    -0.045 A 
ATOM     20  C   UNL     1      -2.728  -7.946  -0.952  0.00  0.00    +0.006 A 
ATOM     21  C   UNL     1      -1.535  -7.471  -0.439  0.00  0.00    +0.027 A 
BRANCH  19  22
ATOM     22  C   UNL     1      -5.133  -8.588  -0.688  0.00  0.00    +0.013 C 
ATOM     23  C   UNL     1      -5.611  -7.659  -1.805  0.00  0.00    +0.012 C 
ATOM     24  C   UNL     1      -4.926  -9.996  -1.249  0.00  0.00    +0.012 C 
ENDBRANCH  19  22
ENDBRANCH  13  16
ENDBRANCH   8  13
BRANCH  10  25
ATOM     25  C   UNL     1       0.045  -1.857   3.639  0.00  0.00    +0.219 C 
BRANCH  25  26
ATOM     26  C   UNL     1       1.464  -1.578   4.062  0.00  0.00    +0.237 C 
ATOM     27  O   UNL     1       2.388  -1.991   3.394  0.00  0.00    -0.274 OA
ATOM     28  N   UNL     1       1.706  -0.870   5.183  0.00  0.00    -0.284 N 
ATOM     29  H   UNL     1       0.969  -0.483   5.681  0.00  0.00    +0.155 HD
BRANCH  28  30
ATOM     30  C   UNL     1       3.021  -0.693   5.628  0.00  0.00    +0.034 A 
ATOM     31  C   UNL     1       3.296  -0.663   6.989  0.00  0.00    +0.026 A 
ATOM     32  C   UNL     1       4.595  -0.489   7.426  0.00  0.00    -0.048 A 
ATOM     33  C   UNL     1       5.620  -0.343   6.509  0.00  0.00    +0.006 A 
ATOM     34  C   UNL     1       5.349  -0.372   5.154  0.00  0.00    -0.048 A 
ATOM     35  C   UNL     1       4.054  -0.552   4.710  0.00  0.00    +0.026 A 
ATOM     36  C   UNL     1       6.470  -0.212   4.158  0.00  0.00    +0.044 C 
ATOM     37  C   UNL     1       4.895  -0.456   8.902  0.00  0.00    +0.044 C 
ENDBRANCH  28  30
ENDBRANCH  25  26
ENDBRANCH  10  25
TORSDOF 6
