REMARK  Name = ZINC15142496
REMARK  4 active torsions:
REMARK  status: ('A' for Active; 'I' for Inactive)
REMARK    1  A    between atoms: C_6  and  S_10
REMARK    2  A    between atoms: S_10  and  C_11
REMARK    3  A    between atoms: N_15  and  C_16
REMARK    4  A    between atoms: C_16  and  C_17
REMARK                            x       y       z     vdW  Elec       q    Type
REMARK                         _______ _______ _______ _____ _____    ______ ____
ROOT
ATOM      1  C   UNL     1       1.210   1.757  -0.000  0.00  0.00    +0.215 A 
ATOM      2  N   UNL     1      -0.015   1.280   0.009  0.00  0.00    -0.101 NA
ATOM      3  N   UNL     1       0.002  -0.004   0.002  0.00  0.00    -0.022 NA
ATOM      4  N   UNL     1       1.217  -0.435  -0.012  0.00  0.00    -0.043 NA
ATOM      5  N   UNL     1       2.050   0.697  -0.014  0.00  0.00    -0.217 N 
ENDROOT
BRANCH   1   6
ATOM      6  S   UNL     1       1.671   3.458   0.005  0.00  0.00    -0.028 S 
BRANCH   6  12
ATOM      7  C   UNL     1       0.972   6.651   0.029  0.00  0.00    +0.020 A 
ATOM      8  C   UNL     1       0.607   7.941   0.040  0.00  0.00    +0.048 A 
ATOM      9  S   UNL     1      -1.175   7.870   0.059  0.00  0.00    -0.077 S 
ATOM     10  C   UNL     1      -1.381   6.109   0.051  0.00  0.00    +0.112 A 
ATOM     11  C   UNL     1      -0.054   5.623   0.040  0.00  0.00    +0.040 A 
ATOM     12  C   UNL     1       0.076   4.207   0.025  0.00  0.00    +0.116 A 
ATOM     13  N   UNL     1      -1.016   3.459   0.031  0.00  0.00    -0.228 NA
ATOM     14  C   UNL     1      -2.228   3.983   0.047  0.00  0.00    +0.223 A 
ATOM     15  N   UNL     1      -2.413   5.289   0.057  0.00  0.00    -0.228 NA
ENDBRANCH   6  12
ENDBRANCH   1   6
BRANCH   5  16
ATOM     16  C   UNL     1       3.515   0.722  -0.028  0.00  0.00    +0.179 C 
BRANCH  16  17
ATOM     17  C   UNL     1       4.011   0.739  -1.475  0.00  0.00    +0.140 C 
ATOM     18  C   UNL     1       5.552   0.644  -1.501  0.00  0.00    +0.035 C 
ATOM     19  C   UNL     1       5.921   1.621  -2.653  0.00  0.00    +0.031 C 
ATOM     20  C   UNL     1       4.818   2.697  -2.493  0.00  0.00    +0.160 C 
ATOM     21  O   UNL     1       3.641   1.972  -2.102  0.00  0.00    -0.375 OA
ENDBRANCH  16  17
ENDBRANCH   5  16
TORSDOF 4
