REMARK  Name = ZINC29408107
REMARK  6 active torsions:
REMARK  status: ('A' for Active; 'I' for Inactive)
REMARK    1  A    between atoms: C_3  and  C_31
REMARK    2  A    between atoms: C_5  and  C_7
REMARK    3  A    between atoms: N_9  and  C_10
REMARK    4  A    between atoms: C_13  and  N_16
REMARK    5  A    between atoms: N_16  and  S_17
REMARK    6  A    between atoms: S_17  and  C_20
REMARK                            x       y       z     vdW  Elec       q    Type
REMARK                         _______ _______ _______ _____ _____    ______ ____
ROOT
ATOM      1  C   UNL     1       0.441  -4.245   0.397  0.00  0.00    +0.034 A 
ATOM      2  C   UNL     1       1.629  -4.961   0.471  0.00  0.00    +0.025 A 
ATOM      3  C   UNL     1       1.605  -6.341   0.443  0.00  0.00    +0.026 A 
ATOM      4  C   UNL     1       0.394  -7.013   0.340  0.00  0.00    +0.048 A 
ATOM      5  C   UNL     1      -0.794  -6.297   0.267  0.00  0.00    +0.026 A 
ATOM      6  C   UNL     1      -0.770  -4.917   0.300  0.00  0.00    +0.025 A 
ENDROOT
BRANCH   1   9
ATOM      7  C   UNL     1      -0.519  -2.167   1.050  0.00  0.00    +0.248 C 
ATOM      8  O   UNL     1      -1.470  -2.765   1.514  0.00  0.00    -0.270 OA
ATOM      9  N   UNL     1       0.465  -2.845   0.426  0.00  0.00    -0.282 N 
ATOM     10  H   UNL     1       1.189  -2.363  -0.003  0.00  0.00    +0.155 HD
BRANCH   7  15
ATOM     11  C   UNL     1       0.727   1.368   0.752  0.00  0.00    +0.002 A 
ATOM     12  C   UNL     1      -0.276   2.071   1.390  0.00  0.00    +0.019 A 
ATOM     13  C   UNL     1      -1.375   1.394   1.926  0.00  0.00    +0.052 A 
ATOM     14  C   UNL     1      -1.456   0.007   1.816  0.00  0.00    +0.032 A 
ATOM     15  C   UNL     1      -0.441  -0.695   1.171  0.00  0.00    +0.038 A 
ATOM     16  C   UNL     1       0.652  -0.006   0.639  0.00  0.00    +0.013 A 
BRANCH  13  17
ATOM     17  C   UNL     1      -2.414   2.124   2.588  0.00  0.00    +0.099 C 
ATOM     18  N   UNL     1      -3.239   2.703   3.113  0.00  0.00    -0.191 NA
ENDBRANCH  13  17
ENDBRANCH   7  15
ENDBRANCH   1   9
BRANCH   4  19
ATOM     19  N   UNL     1       0.370  -8.412   0.311  0.00  0.00    -0.216 N 
ATOM     20  H   UNL     1       0.994  -8.896  -0.252  0.00  0.00    +0.174 HD
BRANCH  19  21
ATOM     21  S   UNL     1      -0.724  -9.241   1.238  0.00  0.00    +0.072 S 
ATOM     22  O   UNL     1      -1.997  -8.669   0.972  0.00  0.00    -0.150 OA
ATOM     23  O   UNL     1      -0.453 -10.623   1.047  0.00  0.00    -0.150 OA
BRANCH  21  24
ATOM     24  C   UNL     1      -0.354  -8.884   2.924  0.00  0.00    +0.112 A 
ATOM     25  C   UNL     1       0.616  -9.613   3.586  0.00  0.00    +0.032 A 
ATOM     26  C   UNL     1       0.912  -9.339   4.909  0.00  0.00    +0.051 A 
ATOM     27  C   UNL     1       0.232  -8.329   5.569  0.00  0.00    +0.162 A 
ATOM     28  C   UNL     1      -0.742  -7.597   4.905  0.00  0.00    +0.164 A 
ATOM     29  C   UNL     1      -1.032  -7.871   3.579  0.00  0.00    +0.078 A 
ATOM     30  O   UNL     1      -1.405  -6.603   5.564  0.00  0.00    -0.488 OA
ATOM     31  C   UNL     1      -2.286  -7.025   6.607  0.00  0.00    +0.232 C 
ATOM     32  C   UNL     1      -1.523  -7.226   7.908  0.00  0.00    +0.082 C 
ATOM     33  C   UNL     1      -0.513  -8.359   7.817  0.00  0.00    +0.232 C 
ATOM     34  O   UNL     1       0.515  -8.047   6.874  0.00  0.00    -0.488 OA
ENDBRANCH  21  24
ENDBRANCH  19  21
ENDBRANCH   4  19
TORSDOF 6
