REMARK  Name = ZINC12532018
REMARK  13 active torsions:
REMARK  status: ('A' for Active; 'I' for Inactive)
REMARK    1  A    between atoms: C_1  and  C_2
REMARK    2  A    between atoms: C_4  and  C_15
REMARK    3  A    between atoms: C_5  and  C_14
REMARK    4  A    between atoms: N_6  and  C_7
REMARK    5  A    between atoms: C_15  and  C_17
REMARK    6  A    between atoms: C_17  and  O_18
REMARK    7  A    between atoms: O_18  and  C_19
REMARK    8  A    between atoms: C_19  and  C_21
REMARK    9  A    between atoms: C_23  and  N_31
REMARK   10  A    between atoms: C_26  and  N_27
REMARK   11  A    between atoms: N_27  and  C_28
REMARK   12  A    between atoms: C_28  and  C_29
REMARK   13  A    between atoms: C_29  and  O_30
REMARK                            x       y       z     vdW  Elec       q    Type
REMARK                         _______ _______ _______ _____ _____    ______ ____
ROOT
ATOM      1  O   UNL     1       1.345   2.004  -0.045  0.00  0.00    -0.453 OA
ENDROOT
BRANCH   1   2
ATOM      2  C   UNL     1       1.503   3.342  -0.016  0.00  0.00    +0.341 C 
ATOM      3  O   UNL     1       0.529   4.068   0.008  0.00  0.00    -0.245 OA
BRANCH   2   4
ATOM      4  C   UNL     1       2.856   3.924  -0.015  0.00  0.00    +0.082 A 
ATOM      5  C   UNL     1       3.978   3.096   0.081  0.00  0.00    +0.049 A 
ATOM      6  C   UNL     1       5.240   3.647   0.077  0.00  0.00    +0.127 A 
ATOM      7  C   UNL     1       5.406   5.020  -0.012  0.00  0.00    +0.034 A 
ATOM      8  C   UNL     1       4.309   5.852  -0.102  0.00  0.00    +0.026 A 
ATOM      9  C   UNL     1       3.027   5.315  -0.104  0.00  0.00    +0.041 A 
BRANCH   6  10
ATOM     10  N   UNL     1       6.427   2.767   0.173  0.00  0.00    +0.056 N 
ATOM     11  O   UNL     1       7.545   3.251   0.175  0.00  0.00    -0.126 OA
ATOM     12  O   UNL     1       6.286   1.560   0.251  0.00  0.00    -0.126 OA
ENDBRANCH   6  10
BRANCH   9  13
ATOM     13  N   UNL     1       1.921   6.150  -0.195  0.00  0.00    -0.341 N 
ATOM     14  H   UNL     1       1.027   5.781  -0.116  0.00  0.00    +0.146 HD
BRANCH  13  15
ATOM     15  C   UNL     1       2.104   7.587  -0.409  0.00  0.00    +0.129 C 
BRANCH  15  16
ATOM     16  C   UNL     1       0.737   8.272  -0.471  0.00  0.00    +0.174 C 
BRANCH  16  17
ATOM     17  O   UNL     1       0.090   8.158   0.798  0.00  0.00    -0.393 OA
ATOM     18  H   UNL     1      -0.784   8.571   0.833  0.00  0.00    +0.209 HD
ENDBRANCH  16  17
ENDBRANCH  15  16
ENDBRANCH  13  15
ENDBRANCH   9  13
ENDBRANCH   2   4
ENDBRANCH   1   2
BRANCH   1  19
ATOM     19  C   UNL     1      -0.017   1.501  -0.044  0.00  0.00    +0.311 C 
BRANCH  19  20
ATOM     20  C   UNL     1       0.005  -0.006  -0.078  0.00  0.00    +0.202 C 
ATOM     21  O   UNL     1       1.064  -0.597  -0.100  0.00  0.00    -0.288 OA
BRANCH  20  25
ATOM     22  C   UNL     1      -4.956  -1.171  -0.063  0.00  0.00    +0.064 C 
ATOM     23  C   UNL     1      -3.451  -1.253  -0.077  0.00  0.00    +0.022 A 
ATOM     24  C   UNL     1      -2.614  -0.202  -0.061  0.00  0.00    +0.034 A 
ATOM     25  C   UNL     1      -1.253  -0.756  -0.084  0.00  0.00    +0.042 A 
ATOM     26  C   UNL     1      -1.403  -2.130  -0.118  0.00  0.00    +0.032 A 
ATOM     27  N   UNL     1      -2.721  -2.408  -0.109  0.00  0.00    -0.317 N 
ATOM     28  C   UNL     1      -0.286  -3.141  -0.157  0.00  0.00    +0.064 C 
BRANCH  27  29
ATOM     29  C   UNL     1      -3.267  -3.699  -0.133  0.00  0.00    +0.047 A 
ATOM     30  C   UNL     1      -3.056  -4.563   0.933  0.00  0.00    +0.027 A 
ATOM     31  C   UNL     1      -3.599  -5.833   0.909  0.00  0.00    +0.017 A 
ATOM     32  C   UNL     1      -4.343  -6.248  -0.180  0.00  0.00    +0.018 A 
ATOM     33  C   UNL     1      -4.550  -5.391  -1.247  0.00  0.00    +0.017 A 
ATOM     34  C   UNL     1      -4.013  -4.118  -1.226  0.00  0.00    +0.027 A 
ATOM     35 BR   UNL     1      -5.079  -7.989  -0.213  0.00  0.00    -0.050 Br
ENDBRANCH  27  29
ENDBRANCH  20  25
ENDBRANCH  19  20
ENDBRANCH   1  19
TORSDOF 11
