REMARK  Name = ZINC37063621
REMARK  7 active torsions:
REMARK  status: ('A' for Active; 'I' for Inactive)
REMARK    1  A    between atoms: C_1  and  C_2
REMARK    2  A    between atoms: C_5  and  N_9
REMARK    3  A    between atoms: N_9  and  S_10
REMARK    4  A    between atoms: S_10  and  C_13
REMARK    5  A    between atoms: C_14  and  C_21
REMARK    6  A    between atoms: C_17  and  N_20
REMARK    7  A    between atoms: C_18  and  C_19
REMARK                            x       y       z     vdW  Elec       q    Type
REMARK                         _______ _______ _______ _____ _____    ______ ____
ROOT
ATOM      1  S   UNL     1       0.744  -4.723  -0.883  0.00  0.00    +0.073 S 
ATOM      2  O   UNL     1       0.462  -6.100  -1.090  0.00  0.00    -0.150 OA
ATOM      3  O   UNL     1       0.177  -3.699  -1.689  0.00  0.00    -0.150 OA
ENDROOT
BRANCH   1   4
ATOM      4  C   UNL     1       2.493  -4.545  -0.999  0.00  0.00    +0.116 A 
ATOM      5  C   UNL     1       3.034  -3.499  -1.725  0.00  0.00    -0.023 A 
ATOM      6  C   UNL     1       4.406  -3.356  -1.819  0.00  0.00    +0.007 A 
ATOM      7  C   UNL     1       5.241  -4.256  -1.187  0.00  0.00    +0.023 A 
ATOM      8  C   UNL     1       4.701  -5.307  -0.457  0.00  0.00    +0.029 A 
ATOM      9  C   UNL     1       3.322  -5.446  -0.360  0.00  0.00    -0.003 A 
ATOM     10  C   UNL     1       2.732  -6.581   0.435  0.00  0.00    +0.048 C 
ATOM     11  C   UNL     1       2.126  -2.514  -2.415  0.00  0.00    +0.046 C 
BRANCH   8  12
ATOM     12  N   UNL     1       5.543  -6.220   0.183  0.00  0.00    -0.358 N 
ATOM     13  H   UNL     1       6.505  -6.120   0.118  0.00  0.00    +0.142 HD
ATOM     14  H   UNL     1       5.164  -6.954   0.693  0.00  0.00    +0.142 HD
ENDBRANCH   8  12
ENDBRANCH   1   4
BRANCH   1  15
ATOM     15  N   UNL     1       0.320  -4.383   0.682  0.00  0.00    -0.215 N 
ATOM     16  H   UNL     1      -0.116  -5.059   1.224  0.00  0.00    +0.174 HD
BRANCH  15  21
ATOM     17  C   UNL     1       1.411   0.735   2.868  0.00  0.00    +0.044 C 
ATOM     18  C   UNL     1       1.121  -0.625   2.287  0.00  0.00    -0.049 A 
ATOM     19  C   UNL     1       0.761  -0.745   0.958  0.00  0.00    +0.005 A 
ATOM     20  C   UNL     1       0.495  -1.990   0.422  0.00  0.00    +0.026 A 
ATOM     21  C   UNL     1       0.589  -3.122   1.220  0.00  0.00    +0.062 A 
ATOM     22  C   UNL     1       0.951  -2.999   2.556  0.00  0.00    +0.040 A 
ATOM     23  C   UNL     1       1.222  -1.751   3.084  0.00  0.00    +0.020 A 
ATOM     24 BR   UNL     1       1.081  -4.537   3.648  0.00  0.00    -0.048 Br
ENDBRANCH  15  21
ENDBRANCH   1  15
TORSDOF 4
