REMARK  Name = ZINC64057389
REMARK  6 active torsions:
REMARK  status: ('A' for Active; 'I' for Inactive)
REMARK    1  A    between atoms: C_1  and  C_2
REMARK    2  A    between atoms: C_14  and  C_27
REMARK    3  A    between atoms: N_17  and  C_18
REMARK    4  A    between atoms: C_18  and  C_19
REMARK    5  A    between atoms: C_19  and  C_20
REMARK    6  A    between atoms: N_25  and  C_26
REMARK                            x       y       z     vdW  Elec       q    Type
REMARK                         _______ _______ _______ _____ _____    ______ ____
ROOT
ATOM      1  C   UNL     1      -0.034   1.519   0.010  0.00  0.00    +0.026 C 
ATOM      2  C   UNL     1      -0.004  -0.011   0.004  0.00  0.00    +0.080 C 
ATOM      3  C   UNL     1       0.610  -0.510  -1.306  0.00  0.00    +0.124 C 
ATOM      4  C   UNL     1       0.759  -2.020  -1.159  0.00  0.00    -0.028 C 
ATOM      5  C   UNL     1       0.145  -2.561  -2.202  0.00  0.00    -0.000 A 
ATOM      6  C   UNL     1       0.023  -3.956  -2.654  0.00  0.00    +0.010 A 
ATOM      7  C   UNL     1      -0.707  -4.159  -3.783  0.00  0.00    +0.001 A 
ATOM      8  C   UNL     1      -1.321  -3.126  -4.498  0.00  0.00    +0.002 A 
ATOM      9  C   UNL     1      -1.256  -1.814  -4.158  0.00  0.00    +0.026 A 
ATOM     10  C   UNL     1      -0.511  -1.474  -2.992  0.00  0.00    +0.043 A 
ATOM     11  N   UNL     1      -0.265  -0.293  -2.457  0.00  0.00    -0.376 N 
ATOM     12  C   UNL     1       1.417  -2.636   0.052  0.00  0.00    +0.063 C 
ATOM     13  C   UNL     1       0.787  -1.951   1.278  0.00  0.00    +0.097 C 
ATOM     14  N   UNL     1       0.825  -0.495   1.119  0.00  0.00    -0.296 NA
ATOM     15  H   UNL     1      -0.602   0.564  -2.760  0.00  0.00    +0.160 HD
ENDROOT
BRANCH  12  16
ATOM     16  C   UNL     1       1.149  -4.119   0.088  0.00  0.00    -0.021 A 
ATOM     17  C   UNL     1      -0.151  -4.585   0.147  0.00  0.00    +0.006 A 
ATOM     18  C   UNL     1      -0.398  -5.944   0.181  0.00  0.00    +0.000 A 
ATOM     19  C   UNL     1       0.656  -6.839   0.155  0.00  0.00    +0.001 A 
ATOM     20  C   UNL     1       1.956  -6.375   0.097  0.00  0.00    +0.020 A 
ATOM     21  C   UNL     1       2.203  -5.014   0.057  0.00  0.00    +0.045 A 
ATOM     22 CL   UNL     1       3.836  -4.430  -0.023  0.00  0.00    -0.083 Cl
ENDBRANCH  12  16
BRANCH  14  23
ATOM     23  C   UNL     1       0.468   0.182   2.373  0.00  0.00    +0.094 C 
BRANCH  23  24
ATOM     24  C   UNL     1       1.563  -0.063   3.414  0.00  0.00    +0.111 C 
BRANCH  24  25
ATOM     25  C   UNL     1       1.197   0.632   4.700  0.00  0.00    +0.222 C 
ATOM     26  O   UNL     1       0.163   1.260   4.777  0.00  0.00    -0.275 OA
ATOM     27  N   UNL     1       2.019   0.554   5.765  0.00  0.00    -0.240 N 
ATOM     28  C   UNL     1       1.692   1.175   6.916  0.00  0.00    +0.306 C 
ATOM     29  O   UNL     1       0.655   1.805   6.993  0.00  0.00    -0.252 OA
ATOM     30  N   UNL     1       2.514   1.097   7.981  0.00  0.00    -0.302 N 
ATOM     31  C   UNL     1       2.158   1.773   9.232  0.00  0.00    +0.129 C 
ATOM     32  H   UNL     1       2.846   0.051   5.704  0.00  0.00    +0.159 HD
ATOM     33  H   UNL     1       3.341   0.595   7.920  0.00  0.00    +0.150 HD
ENDBRANCH  24  25
ENDBRANCH  23  24
ENDBRANCH  14  23
TORSDOF 4
