REMARK  Name = ZINC41585542
REMARK  9 active torsions:
REMARK  status: ('A' for Active; 'I' for Inactive)
REMARK    1  A    between atoms: C_1  and  C_2
REMARK    2  A    between atoms: C_2  and  O_3
REMARK    3  A    between atoms: O_3  and  C_4
REMARK    4  A    between atoms: C_7  and  C_10
REMARK    5  A    between atoms: C_15  and  C_36
REMARK    6  A    between atoms: C_17  and  O_35
REMARK    7  A    between atoms: C_18  and  C_21
REMARK    8  A    between atoms: C_21  and  N_22
REMARK    9  A    between atoms: N_25  and  C_28
REMARK                            x       y       z     vdW  Elec       q    Type
REMARK                         _______ _______ _______ _____ _____    ______ ____
ROOT
ATOM      1  C   UNL     1      -1.996  -6.072   0.001  0.00  0.00    +0.058 C 
ATOM      2  C   UNL     1      -3.243  -6.601   0.095  0.00  0.00    +0.176 C 
ATOM      3  C   UNL     1      -3.576  -8.029   0.196  0.00  0.00    +0.232 C 
ATOM      4  O   UNL     1      -2.807  -8.974   0.214  0.00  0.00    -0.283 OA
ATOM      5  C   UNL     1      -5.048  -8.061   0.272  0.00  0.00    +0.071 A 
ATOM      6  C   UNL     1      -5.975  -9.098   0.380  0.00  0.00    -0.033 A 
ATOM      7  C   UNL     1      -7.311  -8.814   0.429  0.00  0.00    +0.050 A 
ATOM      8  C   UNL     1      -7.748  -7.494   0.372  0.00  0.00    +0.122 A 
ATOM      9  C   UNL     1      -6.838  -6.454   0.265  0.00  0.00    +0.020 A 
ATOM     10  C   UNL     1      -5.476  -6.725   0.214  0.00  0.00    +0.145 A 
ATOM     11  O   UNL     1      -4.406  -5.907   0.118  0.00  0.00    -0.451 OA
ATOM     12  C   UNL     1      -5.505 -10.528   0.441  0.00  0.00    +0.045 C 
ENDROOT
BRANCH   1  16
ATOM     13  C   UNL     1      -1.464  -1.866   0.077  0.00  0.00    +0.121 A 
ATOM     14  C   UNL     1      -2.747  -2.402   0.045  0.00  0.00    +0.046 A 
ATOM     15  C   UNL     1      -2.926  -3.767   0.020  0.00  0.00    +0.011 A 
ATOM     16  C   UNL     1      -1.812  -4.616   0.027  0.00  0.00    -0.021 A 
ATOM     17  C   UNL     1      -0.522  -4.071   0.058  0.00  0.00    +0.011 A 
ATOM     18  C   UNL     1      -0.355  -2.705   0.078  0.00  0.00    +0.046 A 
BRANCH  13  19
ATOM     19  O   UNL     1      -1.294  -0.520   0.101  0.00  0.00    -0.492 OA
BRANCH  19  21
ATOM     20  C   UNL     1      -2.087   1.763   0.128  0.00  0.00    +0.048 C 
ATOM     21  C   UNL     1      -2.476   0.283   0.099  0.00  0.00    +0.225 C 
ENDBRANCH  19  21
ENDBRANCH  13  19
ENDBRANCH   1  16
BRANCH   8  22
ATOM     22  O   UNL     1      -9.077  -7.222   0.422  0.00  0.00    -0.506 OA
ATOM     23  H   UNL     1      -9.418  -7.091   1.317  0.00  0.00    +0.292 HD
ENDBRANCH   8  22
BRANCH   9  24
ATOM     24  C   UNL     1      -7.326  -5.030   0.203  0.00  0.00    -0.035 C 
BRANCH  24  25
ATOM     25  N   UNL     1      -7.416  -4.484   1.564  0.00  0.00    +0.385 N 
ATOM     26  C   UNL     1      -8.436  -5.222   2.319  0.00  0.00    -0.059 C 
ATOM     27  C   UNL     1      -8.451  -4.731   3.771  0.00  0.00    +0.086 C 
ATOM     28  N   UNL     1      -8.636  -3.272   3.767  0.00  0.00    -0.333 N 
ATOM     29  C   UNL     1      -7.757  -2.464   2.907  0.00  0.00    +0.086 C 
ATOM     30  C   UNL     1      -7.775  -3.062   1.496  0.00  0.00    -0.059 C 
ATOM     31  H   UNL     1      -6.523  -4.582   2.025  0.00  0.00    -0.081 HD
BRANCH  28  32
ATOM     32  C   UNL     1      -9.618  -2.669   4.560  0.00  0.00    +0.030 A 
ATOM     33  C   UNL     1     -10.351  -3.433   5.458  0.00  0.00    +0.026 A 
ATOM     34  C   UNL     1     -11.321  -2.836   6.240  0.00  0.00    +0.040 A 
ATOM     35  C   UNL     1     -11.561  -1.477   6.129  0.00  0.00    +0.124 A 
ATOM     36  C   UNL     1     -10.831  -0.714   5.234  0.00  0.00    +0.040 A 
ATOM     37  C   UNL     1      -9.857  -1.306   4.454  0.00  0.00    +0.026 A 
ATOM     38  F   UNL     1     -12.510  -0.895   6.894  0.00  0.00    -0.205 F 
ENDBRANCH  28  32
ENDBRANCH  24  25
ENDBRANCH   9  24
TORSDOF 7
