REMARK  Name = ZINC40177888
REMARK  12 active torsions:
REMARK  status: ('A' for Active; 'I' for Inactive)
REMARK    1  A    between atoms: C_1  and  C_2
REMARK    2  A    between atoms: C_2  and  N_3
REMARK    3  A    between atoms: N_3  and  C_4
REMARK    4  A    between atoms: N_3  and  C_6
REMARK    5  A    between atoms: C_4  and  C_5
REMARK    6  A    between atoms: C_6  and  C_7
REMARK    7  A    between atoms: C_7  and  C_8
REMARK    8  A    between atoms: C_8  and  N_9
REMARK    9  A    between atoms: N_9  and  C_10
REMARK   10  A    between atoms: C_11  and  S_22
REMARK   11  A    between atoms: C_13  and  C_15
REMARK   12  A    between atoms: S_22  and  C_25
REMARK                            x       y       z     vdW  Elec       q    Type
REMARK                         _______ _______ _______ _____ _____    ______ ____
ROOT
ATOM      1  C   UNL     1      -0.092  -5.183   3.955  0.00  0.00    +0.233 A 
ATOM      2  C   UNL     1       0.460  -5.547   5.138  0.00  0.00    +0.243 A 
ATOM      3  N   UNL     1       0.329  -6.877   5.258  0.00  0.00    -0.188 NA
ATOM      4  C   UNL     1      -0.282  -7.338   4.193  0.00  0.00    +0.231 A 
ATOM      5  O   UNL     1      -0.558  -6.306   3.372  0.00  0.00    -0.420 OA
ENDROOT
BRANCH   4   6
ATOM      6  C   UNL     1      -0.616  -8.754   3.938  0.00  0.00    +0.037 A 
ATOM      7  C   UNL     1      -0.284  -9.732   4.877  0.00  0.00    +0.016 A 
ATOM      8  C   UNL     1      -0.599 -11.053   4.634  0.00  0.00    +0.039 A 
ATOM      9  C   UNL     1      -1.244 -11.409   3.460  0.00  0.00    +0.123 A 
ATOM     10  C   UNL     1      -1.576 -10.442   2.524  0.00  0.00    +0.039 A 
ATOM     11  C   UNL     1      -1.271  -9.118   2.760  0.00  0.00    +0.016 A 
ATOM     12  F   UNL     1      -1.549 -12.704   3.226  0.00  0.00    -0.205 F 
ENDBRANCH   4   6
BRANCH   2  13
ATOM     13  S   UNL     1       1.214  -4.467   6.309  0.00  0.00    +0.047 S 
ATOM     14  O   UNL     1       2.113  -5.260   7.072  0.00  0.00    -0.163 OA
ATOM     15  O   UNL     1       1.636  -3.317   5.588  0.00  0.00    -0.163 OA
BRANCH  13  16
ATOM     16  C   UNL     1      -0.050  -3.932   7.414  0.00  0.00    +0.099 A 
ATOM     17  C   UNL     1      -0.778  -2.792   7.130  0.00  0.00    +0.031 A 
ATOM     18  C   UNL     1      -1.769  -2.368   7.995  0.00  0.00    +0.051 A 
ATOM     19  C   UNL     1      -2.036  -3.087   9.150  0.00  0.00    +0.162 A 
ATOM     20  C   UNL     1      -1.306  -4.235   9.435  0.00  0.00    +0.164 A 
ATOM     21  C   UNL     1      -0.315  -4.657   8.560  0.00  0.00    +0.076 A 
ATOM     22  O   UNL     1      -1.558  -4.960  10.559  0.00  0.00    -0.485 OA
ATOM     23  C   UNL     1      -2.304  -4.308  11.592  0.00  0.00    +0.270 C 
ATOM     24  C   UNL     1      -3.506  -3.606  10.946  0.00  0.00    +0.270 C 
ATOM     25  O   UNL     1      -3.013  -2.656   9.995  0.00  0.00    -0.485 OA
ENDBRANCH  13  16
ENDBRANCH   2  13
BRANCH   1  26
ATOM     26  N   UNL     1      -0.169  -3.893   3.441  0.00  0.00    -0.312 N 
ATOM     27  H   UNL     1       0.199  -3.148   3.943  0.00  0.00    +0.149 HD
BRANCH  26  28
ATOM     28  C   UNL     1      -0.805  -3.658   2.143  0.00  0.00    +0.102 C 
BRANCH  28  29
ATOM     29  C   UNL     1      -0.756  -2.164   1.814  0.00  0.00    +0.000 C 
BRANCH  29  30
ATOM     30  C   UNL     1      -1.421  -1.919   0.458  0.00  0.00    -0.077 C 
BRANCH  30  31
ATOM     31  N   UNL     1      -1.374  -0.485   0.142  0.00  0.00    +0.379 N 
ATOM     32  H   UNL     1      -1.792   0.039   0.895  0.00  0.00    -0.082 HD
BRANCH  31  34
ATOM     33  C   UNL     1       0.082   1.451  -0.216  0.00  0.00    -0.017 C 
ATOM     34  C   UNL     1       0.024  -0.066  -0.029  0.00  0.00    -0.082 C 
ENDBRANCH  31  34
BRANCH  31  35
ATOM     35  C   UNL     1      -2.116  -0.233  -1.101  0.00  0.00    -0.082 C 
ATOM     36  C   UNL     1      -3.600  -0.533  -0.879  0.00  0.00    -0.017 C 
ENDBRANCH  31  35
ENDBRANCH  30  31
ENDBRANCH  29  30
ENDBRANCH  28  29
ENDBRANCH  26  28
ENDBRANCH   1  26
TORSDOF 10
