REMARK  Name = ZINC32971192
REMARK  6 active torsions:
REMARK  status: ('A' for Active; 'I' for Inactive)
REMARK    1  A    between atoms: C_4  and  S_7
REMARK    2  A    between atoms: S_7  and  N_10
REMARK    3  A    between atoms: N_10  and  C_11
REMARK    4  A    between atoms: C_13  and  C_29
REMARK    5  A    between atoms: C_16  and  N_17
REMARK    6  A    between atoms: C_20  and  N_23
REMARK                            x       y       z     vdW  Elec       q    Type
REMARK                         _______ _______ _______ _____ _____    ______ ____
ROOT
ATOM      1  C   UNL     1       4.525   0.041  -2.473  0.00  0.00    +0.070 A 
ATOM      2  C   UNL     1       5.163   1.173  -2.005  0.00  0.00    +0.041 A 
ATOM      3  C   UNL     1       5.340   2.273  -2.851  0.00  0.00    +0.065 A 
ATOM      4  C   UNL     1       4.871   2.222  -4.167  0.00  0.00    +0.017 A 
ATOM      5  C   UNL     1       4.235   1.091  -4.629  0.00  0.00    +0.026 A 
ATOM      6  C   UNL     1       4.063  -0.005  -3.792  0.00  0.00    +0.052 A 
ENDROOT
BRANCH   6   7
ATOM      7  N   UNL     1       3.425  -1.149  -4.266  0.00  0.00    -0.329 N 
ATOM      8  C   UNL     1       4.202  -1.778  -5.342  0.00  0.00    +0.103 C 
ATOM      9  C   UNL     1       3.548  -3.104  -5.736  0.00  0.00    +0.004 C 
ATOM     10  C   UNL     1       2.114  -2.842  -6.203  0.00  0.00    -0.066 C 
ATOM     11  C   UNL     1       1.340  -2.143  -5.082  0.00  0.00    +0.004 C 
ATOM     12  C   UNL     1       2.058  -0.845  -4.706  0.00  0.00    +0.103 C 
BRANCH  10  13
ATOM     13  N   UNL     1       1.462  -4.118  -6.528  0.00  0.00    +0.382 N 
ATOM     14  C   UNL     1       1.444  -5.011  -5.363  0.00  0.00    -0.078 C 
ATOM     15  C   UNL     1       0.633  -6.266  -5.693  0.00  0.00    -0.019 C 
ATOM     16  C   UNL     1       1.266  -6.975  -6.894  0.00  0.00    -0.004 C 
ATOM     17  C   UNL     1       1.317  -6.008  -8.080  0.00  0.00    -0.019 C 
ATOM     18  C   UNL     1       2.108  -4.760  -7.680  0.00  0.00    -0.078 C 
ATOM     19  H   UNL     1       0.418  -3.906  -6.804  0.00  0.00    -0.081 HD
ENDBRANCH  10  13
ENDBRANCH   6   7
BRANCH   3  20
ATOM     20  C   UNL     1       6.020   3.483  -2.356  0.00  0.00    +0.387 C 
ATOM     21  O   UNL     1       6.427   3.526  -1.212  0.00  0.00    -0.241 OA
ATOM     22  O   UNL     1       6.190   4.542  -3.173  0.00  0.00    -0.241 OA
ENDBRANCH   3  20
BRANCH   1  23
ATOM     23  N   UNL     1       4.345  -1.062  -1.629  0.00  0.00    -0.214 N 
ATOM     24  H   UNL     1       4.405  -2.082  -2.037  0.00  0.00    +0.174 HD
BRANCH  23  25
ATOM     25  S   UNL     1       4.043  -0.831  -0.017  0.00  0.00    +0.072 S 
ATOM     26  O   UNL     1       5.076   0.012   0.473  0.00  0.00    -0.150 OA
ATOM     27  O   UNL     1       3.779  -2.114   0.535  0.00  0.00    -0.150 OA
BRANCH  25  31
ATOM     28  C   UNL     1       0.191   1.527   0.296  0.00  0.00    +0.000 A 
ATOM     29  C   UNL     1       1.403   2.189   0.219  0.00  0.00    +0.002 A 
ATOM     30  C   UNL     1       2.579   1.469   0.123  0.00  0.00    +0.029 A 
ATOM     31  C   UNL     1       2.543   0.087   0.104  0.00  0.00    +0.108 A 
ATOM     32  C   UNL     1       1.332  -0.575   0.182  0.00  0.00    +0.029 A 
ATOM     33  C   UNL     1       0.156   0.146   0.278  0.00  0.00    +0.002 A 
ENDBRANCH  25  31
ENDBRANCH  23  25
ENDBRANCH   1  23
TORSDOF 6
