REMARK  Name = ZINC00799116
REMARK  6 active torsions:
REMARK  status: ('A' for Active; 'I' for Inactive)
REMARK    1  A    between atoms: C_1  and  C_2
REMARK    2  A    between atoms: C_7  and  N_8
REMARK    3  A    between atoms: N_8  and  N_9
REMARK    4  A    between atoms: C_11  and  C_19
REMARK    5  A    between atoms: N_13  and  C_16
REMARK    6  A    between atoms: C_16  and  N_18
REMARK                            x       y       z     vdW  Elec       q    Type
REMARK                         _______ _______ _______ _____ _____    ______ ____
ROOT
ATOM      1  N   UNL     1       0.045  -0.671   3.527  0.00  0.00    -0.175 NA
ATOM      2  C   UNL     1       0.048  -0.020   4.674  0.00  0.00    +0.173 C 
ATOM      3  C   UNL     1       0.074  -0.594   6.036  0.00  0.00    +0.122 C 
ATOM      4  N   UNL     1       0.068   0.404   6.879  0.00  0.00    -0.168 NA
ATOM      5  N   UNL     1       0.038   1.629   6.213  0.00  0.00    -0.134 N 
ATOM      6  C   UNL     1       0.031   1.437   4.879  0.00  0.00    +0.294 C 
ATOM      7  O   UNL     1       0.011   2.297   4.016  0.00  0.00    -0.266 OA
ENDROOT
BRANCH   3   8
ATOM      8  C   UNL     1       0.103  -2.034   6.382  0.00  0.00    +0.004 A 
ATOM      9  C   UNL     1       0.113  -2.996   5.372  0.00  0.00    +0.010 A 
ATOM     10  C   UNL     1       0.140  -4.336   5.700  0.00  0.00    +0.001 A 
ATOM     11  C   UNL     1       0.157  -4.726   7.027  0.00  0.00    +0.000 A 
ATOM     12  C   UNL     1       0.147  -3.776   8.033  0.00  0.00    +0.001 A 
ATOM     13  C   UNL     1       0.127  -2.433   7.718  0.00  0.00    +0.010 A 
ENDBRANCH   3   8
BRANCH   1  14
ATOM     14  N   UNL     1       0.026  -0.018   2.415  0.00  0.00    -0.237 N 
ATOM     15  H   UNL     1       0.013   0.952   2.422  0.00  0.00    +0.174 HD
BRANCH  14  22
ATOM     16  C   UNL     1      -0.018   1.503   0.010  0.00  0.00    +0.046 C 
ATOM     17  C   UNL     1       0.002  -0.004   0.002  0.00  0.00    -0.027 A 
ATOM     18  C   UNL     1       0.006  -0.689  -1.197  0.00  0.00    +0.019 A 
ATOM     19  C   UNL     1       0.024  -2.072  -1.206  0.00  0.00    +0.014 A 
ATOM     20  C   UNL     1       0.039  -2.774  -0.013  0.00  0.00    +0.016 A 
ATOM     21  C   UNL     1       0.035  -2.096   1.189  0.00  0.00    +0.026 A 
ATOM     22  C   UNL     1       0.023  -0.706   1.201  0.00  0.00    +0.051 A 
ATOM     23  I   UNL     1       0.028  -3.106  -3.028  0.00  0.00    -0.044 I 
ENDBRANCH  14  22
ENDBRANCH   1  14
BRANCH   5  24
ATOM     24  C   UNL     1       0.025   2.833   6.818  0.00  0.00    +0.158 C 
ATOM     25  S   UNL     1      -0.011   4.263   5.877  0.00  0.00    -0.017 S 
BRANCH  24  26
ATOM     26  N   UNL     1       0.041   2.912   8.163  0.00  0.00    -0.339 N 
ATOM     27  H   UNL     1       0.062   2.102   8.696  0.00  0.00    +0.144 HD
ATOM     28  H   UNL     1       0.032   3.779   8.599  0.00  0.00    +0.144 HD
ENDBRANCH  24  26
ENDBRANCH   5  24
TORSDOF 5
