REMARK  Name = ZINC40777842
REMARK  7 active torsions:
REMARK  status: ('A' for Active; 'I' for Inactive)
REMARK    1  A    between atoms: C_4  and  N_7
REMARK    2  A    between atoms: N_7  and  C_8
REMARK    3  A    between atoms: N_7  and  N_14
REMARK    4  A    between atoms: C_16  and  N_32
REMARK    5  A    between atoms: C_17  and  N_21
REMARK    6  A    between atoms: N_21  and  N_22
REMARK    7  A    between atoms: C_23  and  C_25
REMARK                            x       y       z     vdW  Elec       q    Type
REMARK                         _______ _______ _______ _____ _____    ______ ____
ROOT
ATOM      1  N   UNL     1       4.755   0.042  -0.480  0.00  0.00    -0.242 N 
ATOM      2  C   UNL     1       5.848   0.198   0.364  0.00  0.00    +0.161 A 
ATOM      3  C   UNL     1       6.982   0.889  -0.066  0.00  0.00    +0.108 A 
ATOM      4  C   UNL     1       8.052   1.017   0.822  0.00  0.00    +0.161 A 
ATOM      5  N   UNL     1       7.950   0.479   2.035  0.00  0.00    -0.217 NA
ATOM      6  C   UNL     1       6.861  -0.166   2.401  0.00  0.00    +0.225 A 
ATOM      7  N   UNL     1       5.827  -0.305   1.596  0.00  0.00    -0.217 NA
ATOM      8  H   UNL     1       4.778   0.411  -1.377  0.00  0.00    +0.172 HD
ENDROOT
BRANCH   3   9
ATOM      9  N   UNL     1       7.046   1.440  -1.356  0.00  0.00    -0.353 N 
ATOM     10  H   UNL     1       6.295   1.343  -1.962  0.00  0.00    +0.143 HD
ATOM     11  H   UNL     1       7.841   1.918  -1.641  0.00  0.00    +0.143 HD
ENDBRANCH   3   9
BRANCH   4  12
ATOM     12  N   UNL     1       9.205   1.695   0.445  0.00  0.00    -0.247 N 
ATOM     13  H   UNL     1       9.271   2.084  -0.441  0.00  0.00    +0.172 HD
BRANCH  12  14
ATOM     14  N   UNL     1      10.271   1.817   1.345  0.00  0.00    -0.231 N 
ATOM     15  C   UNL     1      11.390   2.475   0.979  0.00  0.00    +0.260 C 
ATOM     16  O   UNL     1      11.473   2.962  -0.131  0.00  0.00    -0.269 OA
ATOM     17  H   UNL     1      10.205   1.429   2.231  0.00  0.00    +0.173 HD
BRANCH  15  18
ATOM     18  C   UNL     1      12.515   2.604   1.929  0.00  0.00    +0.038 A 
ATOM     19  C   UNL     1      12.425   2.040   3.203  0.00  0.00    +0.014 A 
ATOM     20  C   UNL     1      13.479   2.163   4.084  0.00  0.00    +0.016 A 
ATOM     21  C   UNL     1      14.624   2.845   3.708  0.00  0.00    +0.018 A 
ATOM     22  C   UNL     1      14.719   3.406   2.445  0.00  0.00    +0.016 A 
ATOM     23  C   UNL     1      13.675   3.284   1.553  0.00  0.00    +0.014 A 
ATOM     24 BR   UNL     1      16.064   3.009   4.922  0.00  0.00    -0.050 Br
ENDBRANCH  15  18
ENDBRANCH  12  14
ENDBRANCH   4  12
BRANCH   1  25
ATOM     25  N   UNL     1       3.620  -0.649  -0.036  0.00  0.00    -0.221 N 
BRANCH  25  29
ATOM     26  C   UNL     1       0.175   1.452   0.991  0.00  0.00    +0.000 A 
ATOM     27  C   UNL     1       1.381   1.773   1.585  0.00  0.00    +0.002 A 
ATOM     28  C   UNL     1       2.526   1.078   1.247  0.00  0.00    +0.025 A 
ATOM     29  C   UNL     1       2.464   0.055   0.309  0.00  0.00    +0.053 A 
ATOM     30  C   UNL     1       1.250  -0.265  -0.286  0.00  0.00    +0.025 A 
ATOM     31  C   UNL     1       0.109   0.434   0.057  0.00  0.00    +0.002 A 
ENDBRANCH  25  29
BRANCH  25  32
ATOM     32  C   UNL     1       3.644  -2.043   0.061  0.00  0.00    +0.053 A 
ATOM     33  C   UNL     1       4.720  -2.758  -0.449  0.00  0.00    +0.025 A 
ATOM     34  C   UNL     1       4.741  -4.135  -0.351  0.00  0.00    +0.002 A 
ATOM     35  C   UNL     1       3.692  -4.803   0.255  0.00  0.00    +0.000 A 
ATOM     36  C   UNL     1       2.619  -4.094   0.763  0.00  0.00    +0.002 A 
ATOM     37  C   UNL     1       2.595  -2.716   0.674  0.00  0.00    +0.025 A 
ENDBRANCH  25  32
ENDBRANCH   1  25
TORSDOF 7
