REMARK  Name = ZINC09805885
REMARK  5 active torsions:
REMARK  status: ('A' for Active; 'I' for Inactive)
REMARK    1  A    between atoms: C_1  and  C_2
REMARK    2  A    between atoms: C_7  and  N_8
REMARK    3  A    between atoms: C_12  and  C_13
REMARK    4  A    between atoms: N_17  and  C_18
REMARK    5  A    between atoms: C_21  and  O_24
REMARK                            x       y       z     vdW  Elec       q    Type
REMARK                         _______ _______ _______ _____ _____    ______ ____
ROOT
ATOM      1  N   UNL     1       2.946   3.830   1.151  0.00  0.00    -0.217 N 
ATOM      2  C   UNL     1       1.717   3.357   0.859  0.00  0.00    +0.262 C 
ATOM      3  O   UNL     1       0.756   4.102   0.816  0.00  0.00    -0.269 OA
ATOM      4  C   UNL     1       1.570   1.916   0.592  0.00  0.00    +0.101 C 
ATOM      5  C   UNL     1       0.335   1.358   0.284  0.00  0.00    +0.044 C 
ATOM      6  C   UNL     1       2.788   1.091   0.672  0.00  0.00    +0.255 C 
ATOM      7  O   UNL     1       2.745  -0.108   0.469  0.00  0.00    -0.270 OA
ATOM      8  N   UNL     1       3.954   1.702   0.970  0.00  0.00    -0.263 N 
ATOM      9  C   UNL     1       4.014   3.021   1.201  0.00  0.00    +0.150 C 
ATOM     10  S   UNL     1       5.535   3.708   1.580  0.00  0.00    -0.018 S 
ATOM     11  H   UNL     1       4.765   1.173   1.023  0.00  0.00    +0.157 HD
ENDROOT
BRANCH   1  18
ATOM     12  C   UNL     1       3.529   5.549  -1.040  0.00  0.00    +0.046 C 
ATOM     13  C   UNL     1       3.396   6.071   0.367  0.00  0.00    -0.028 A 
ATOM     14  C   UNL     1       3.557   7.419   0.623  0.00  0.00    +0.020 A 
ATOM     15  C   UNL     1       3.436   7.898   1.915  0.00  0.00    +0.018 A 
ATOM     16  C   UNL     1       3.152   7.029   2.954  0.00  0.00    +0.017 A 
ATOM     17  C   UNL     1       2.984   5.682   2.703  0.00  0.00    +0.025 A 
ATOM     18  C   UNL     1       3.111   5.197   1.408  0.00  0.00    +0.046 A 
ATOM     19 BR   UNL     1       3.658   9.744   2.262  0.00  0.00    -0.050 Br
ENDBRANCH   1  18
BRANCH   5  20
ATOM     20  C   UNL     1       0.250   0.011  -0.102  0.00  0.00    +0.047 A 
ATOM     21  C   UNL     1      -0.448  -0.994   0.561  0.00  0.00    +0.027 A 
ATOM     22  C   UNL     1      -0.264  -2.167  -0.167  0.00  0.00    +0.020 A 
ATOM     23  C   UNL     1       0.529  -1.882  -1.233  0.00  0.00    +0.092 A 
ATOM     24  N   UNL     1       0.849  -0.565  -1.206  0.00  0.00    -0.316 N 
BRANCH  24  25
ATOM     25  C   UNL     1       1.652   0.102  -2.142  0.00  0.00    +0.047 A 
ATOM     26  C   UNL     1       1.163   1.218  -2.808  0.00  0.00    +0.030 A 
ATOM     27  C   UNL     1       1.956   1.877  -3.725  0.00  0.00    +0.047 A 
ATOM     28  C   UNL     1       3.239   1.418  -3.990  0.00  0.00    +0.117 A 
ATOM     29  C   UNL     1       3.727   0.300  -3.328  0.00  0.00    +0.047 A 
ATOM     30  C   UNL     1       2.936  -0.357  -2.407  0.00  0.00    +0.030 A 
BRANCH  28  31
ATOM     31  O   UNL     1       4.018   2.064  -4.897  0.00  0.00    -0.507 OA
ATOM     32  H   UNL     1       3.926   1.734  -5.801  0.00  0.00    +0.292 HD
ENDBRANCH  28  31
ENDBRANCH  24  25
ENDBRANCH   5  20
TORSDOF 4
