REMARK  Name = ZINC09235336
REMARK  8 active torsions:
REMARK  status: ('A' for Active; 'I' for Inactive)
REMARK    1  A    between atoms: C_1  and  N_2
REMARK    2  A    between atoms: C_3  and  C_23
REMARK    3  A    between atoms: C_6  and  S_7
REMARK    4  A    between atoms: S_7  and  C_8
REMARK    5  A    between atoms: C_8  and  C_9
REMARK    6  A    between atoms: N_11  and  C_12
REMARK    7  A    between atoms: C_13  and  C_21
REMARK    8  A    between atoms: C_28  and  O_29
REMARK                            x       y       z     vdW  Elec       q    Type
REMARK                         _______ _______ _______ _____ _____    ______ ____
ROOT
ATOM      1  S   UNL     1       0.359  -0.344   2.757  0.00  0.00    -0.077 S 
ENDROOT
BRANCH   1   7
ATOM      2  C   UNL     1       0.115   1.459  -0.003  0.00  0.00    +0.153 C 
ATOM      3  N   UNL     1       0.061  -0.005  -0.004  0.00  0.00    -0.305 N 
ATOM      4  C   UNL     1      -0.087  -0.831  -1.094  0.00  0.00    +0.168 A 
ATOM      5  N   UNL     1      -0.085  -2.065  -0.646  0.00  0.00    -0.128 NA
ATOM      6  N   UNL     1       0.053  -2.067   0.632  0.00  0.00    -0.122 NA
ATOM      7  C   UNL     1       0.152  -0.835   1.078  0.00  0.00    +0.192 A 
BRANCH   4   8
ATOM      8  C   UNL     1      -0.223  -0.409  -2.504  0.00  0.00    +0.062 A 
ATOM      9  C   UNL     1       0.645   0.544  -3.038  0.00  0.00    +0.030 A 
ATOM     10  C   UNL     1       0.513   0.934  -4.355  0.00  0.00    +0.019 A 
ATOM     11  C   UNL     1      -0.479   0.383  -5.149  0.00  0.00    +0.019 A 
ATOM     12  C   UNL     1      -1.345  -0.561  -4.630  0.00  0.00    +0.047 A 
ATOM     13  C   UNL     1      -1.221  -0.967  -3.312  0.00  0.00    +0.128 A 
ATOM     14 BR   UNL     1       1.690   2.225  -5.078  0.00  0.00    -0.050 Br
BRANCH  13  15
ATOM     15  O   UNL     1      -2.068  -1.899  -2.803  0.00  0.00    -0.506 OA
ATOM     16  H   UNL     1      -2.871  -1.529  -2.410  0.00  0.00    +0.292 HD
ENDBRANCH  13  15
ENDBRANCH   4   8
ENDBRANCH   1   7
BRANCH   1  17
ATOM     17  C   UNL     1       0.404  -1.911   3.670  0.00  0.00    +0.173 C 
BRANCH  17  18
ATOM     18  C   UNL     1       0.580  -1.632   5.140  0.00  0.00    +0.228 C 
ATOM     19  O   UNL     1       0.666  -0.488   5.534  0.00  0.00    -0.275 OA
ATOM     20  N   UNL     1       0.641  -2.653   6.018  0.00  0.00    -0.278 N 
ATOM     21  H   UNL     1       0.572  -3.567   5.703  0.00  0.00    +0.155 HD
BRANCH  20  22
ATOM     22  C   UNL     1       0.803  -2.395   7.372  0.00  0.00    +0.090 A 
ATOM     23  C   UNL     1       0.892  -3.310   8.408  0.00  0.00    +0.084 A 
ATOM     24  C   UNL     1       1.062  -2.780   9.749  0.00  0.00    -0.018 A 
ATOM     25  C   UNL     1       1.111  -1.431   9.809  0.00  0.00    -0.004 A 
ATOM     26  S   UNL     1       0.944  -0.903   8.129  0.00  0.00    -0.077 S 
ATOM     27  C   UNL     1       1.276  -0.591  11.037  0.00  0.00    +0.043 C 
ATOM     28  C   UNL     1       1.004  -1.472  12.265  0.00  0.00    +0.005 C 
ATOM     29  C   UNL     1       1.787  -2.780  12.121  0.00  0.00    +0.005 C 
ATOM     30  C   UNL     1       1.178  -3.632  11.005  0.00  0.00    +0.037 C 
BRANCH  23  31
ATOM     31  C   UNL     1       0.818  -4.719   8.166  0.00  0.00    +0.102 C 
ATOM     32  N   UNL     1       0.760  -5.838   7.975  0.00  0.00    -0.191 NA
ENDBRANCH  23  31
ENDBRANCH  20  22
ENDBRANCH  17  18
ENDBRANCH   1  17
TORSDOF 7
