REMARK  Name = ZINC05385435
REMARK  8 active torsions:
REMARK  status: ('A' for Active; 'I' for Inactive)
REMARK    1  A    between atoms: C_1  and  C_2
REMARK    2  A    between atoms: C_3  and  C_26
REMARK    3  A    between atoms: C_4  and  C_17
REMARK    4  A    between atoms: C_21  and  N_23
REMARK    5  A    between atoms: C_26  and  O_28
REMARK    6  A    between atoms: O_28  and  C_29
REMARK    7  A    between atoms: C_29  and  C_30
REMARK    8  A    between atoms: C_30  and  C_31
REMARK                            x       y       z     vdW  Elec       q    Type
REMARK                         _______ _______ _______ _____ _____    ______ ____
ROOT
ATOM      1  C   UNL     1       5.847   4.891   0.549  0.00  0.00    +0.061 C 
ATOM      2  C   UNL     1       4.384   5.113   0.263  0.00  0.00    +0.031 C 
ATOM      3  C   UNL     1       3.910   6.366   0.284  0.00  0.00    +0.154 C 
ATOM      4  C   UNL     1       2.471   6.707   0.005  0.00  0.00    +0.074 C 
ATOM      5  C   UNL     1       1.656   5.438   0.012  0.00  0.00    +0.034 C 
ATOM      6  C   UNL     1       2.230   4.196   0.004  0.00  0.00    +0.079 C 
ATOM      7  N   UNL     1       3.597   4.024  -0.007  0.00  0.00    -0.255 NA
ATOM      8  C   UNL     1       1.169   3.168   0.007  0.00  0.00    +0.012 A 
ATOM      9  C   UNL     1       1.184   1.784   0.002  0.00  0.00    +0.011 A 
ATOM     10  C   UNL     1      -0.013   1.076   0.011  0.00  0.00    +0.001 A 
ATOM     11  C   UNL     1      -1.217   1.745   0.020  0.00  0.00    +0.001 A 
ATOM     12  C   UNL     1      -1.246   3.136   0.034  0.00  0.00    +0.012 A 
ATOM     13  C   UNL     1      -0.064   3.848   0.024  0.00  0.00    +0.031 A 
ATOM     14  C   UNL     1       0.253   5.306   0.026  0.00  0.00    +0.192 C 
ATOM     15  O   UNL     1      -0.553   6.216   0.039  0.00  0.00    -0.287 OA
ENDROOT
BRANCH   4  16
ATOM     16  C   UNL     1       2.368   7.369  -1.345  0.00  0.00    -0.036 A 
ATOM     17  C   UNL     1       2.786   6.697  -2.478  0.00  0.00    +0.004 A 
ATOM     18  C   UNL     1       2.688   7.303  -3.716  0.00  0.00    +0.003 A 
ATOM     19  C   UNL     1       2.179   8.584  -3.821  0.00  0.00    +0.033 A 
ATOM     20  C   UNL     1       1.765   9.258  -2.687  0.00  0.00    +0.126 A 
ATOM     21  C   UNL     1       1.860   8.651  -1.449  0.00  0.00    +0.037 A 
BRANCH  20  22
ATOM     22  N   UNL     1       1.221  10.630  -2.799  0.00  0.00    +0.056 N 
ATOM     23  O   UNL     1       0.856  11.224  -1.800  0.00  0.00    -0.126 OA
ATOM     24  O   UNL     1       1.137  11.165  -3.890  0.00  0.00    -0.126 OA
ENDBRANCH  20  22
ENDBRANCH   4  16
BRANCH   3  25
ATOM     25  C   UNL     1       4.805   7.420   0.585  0.00  0.00    +0.317 C 
ATOM     26  O   UNL     1       5.975   7.176   0.817  0.00  0.00    -0.250 OA
BRANCH  25  27
ATOM     27  O   UNL     1       4.362   8.694   0.614  0.00  0.00    -0.463 OA
BRANCH  27  28
ATOM     28  C   UNL     1       5.321   9.707   0.925  0.00  0.00    +0.247 C 
BRANCH  28  29
ATOM     29  C   UNL     1       4.638  11.076   0.911  0.00  0.00    +0.159 C 
BRANCH  29  30
ATOM     30  C   UNL     1       5.625  12.120   1.232  0.00  0.00    +0.066 C 
ATOM     31  N   UNL     1       6.387  12.925   1.479  0.00  0.00    -0.196 NA
ENDBRANCH  29  30
ENDBRANCH  28  29
ENDBRANCH  27  28
ENDBRANCH  25  27
ENDBRANCH   3  25
TORSDOF 7
