REMARK  Name = ZINC36558659
REMARK  11 active torsions:
REMARK  status: ('A' for Active; 'I' for Inactive)
REMARK    1  A    between atoms: C_1  and  C_2
REMARK    2  A    between atoms: C_2  and  C_3
REMARK    3  A    between atoms: C_3  and  C_5
REMARK    4  A    between atoms: C_3  and  C_11
REMARK    5  A    between atoms: N_13  and  C_14
REMARK    6  A    between atoms: N_13  and  C_21
REMARK    7  A    between atoms: C_14  and  C_15
REMARK    8  A    between atoms: C_18  and  C_20
REMARK    9  A    between atoms: C_21  and  C_23
REMARK   10  A    between atoms: C_21  and  C_30
REMARK   11  A    between atoms: N_32  and  C_33
REMARK                            x       y       z     vdW  Elec       q    Type
REMARK                         _______ _______ _______ _____ _____    ______ ____
ROOT
ATOM      1  C   UNL     1      -0.910  -0.066   0.920  0.00  0.00    +0.224 C 
ATOM      2  O   UNL     1      -0.393  -1.136   0.681  0.00  0.00    -0.275 OA
ATOM      3  N   UNL     1      -1.451   0.660  -0.079  0.00  0.00    -0.278 N 
ENDROOT
BRANCH   1   4
ATOM      4  C   UNL     1      -0.949   0.454   2.334  0.00  0.00    +0.105 C 
BRANCH   4   5
ATOM      5  C   UNL     1      -2.139  -0.130   3.052  0.00  0.00    -0.036 A 
ATOM      6  C   UNL     1      -2.253  -1.500   3.200  0.00  0.00    +0.004 A 
ATOM      7  C   UNL     1      -3.345  -2.035   3.858  0.00  0.00    +0.000 A 
ATOM      8  C   UNL     1      -4.322  -1.200   4.368  0.00  0.00    +0.000 A 
ATOM      9  C   UNL     1      -4.207   0.169   4.220  0.00  0.00    +0.000 A 
ATOM     10  C   UNL     1      -3.113   0.705   3.566  0.00  0.00    +0.004 A 
ENDBRANCH   4   5
BRANCH   4  12
ATOM     11  C   UNL     1       1.536   0.715   2.388  0.00  0.00    +0.005 C 
ATOM     12  C   UNL     1       0.335   0.047   3.062  0.00  0.00    +0.014 C 
ENDBRANCH   4  12
ENDBRANCH   1   4
BRANCH   3  13
ATOM     13  C   UNL     1      -2.089   1.946   0.212  0.00  0.00    +0.183 C 
BRANCH  13  14
ATOM     14  C   UNL     1      -1.029   2.997   0.418  0.00  0.00    +0.122 A 
ATOM     15  C   UNL     1      -1.211   4.327   0.328  0.00  0.00    +0.046 A 
ATOM     16  C   UNL     1       0.039   4.931   0.593  0.00  0.00    +0.045 A 
ATOM     17  C   UNL     1       0.911   3.934   0.830  0.00  0.00    +0.102 A 
ATOM     18  O   UNL     1       0.257   2.766   0.728  0.00  0.00    -0.463 OA
ATOM     19  C   UNL     1       2.372   4.101   1.159  0.00  0.00    +0.086 C 
ENDBRANCH  13  14
ENDBRANCH   3  13
BRANCH   3  20
ATOM     20  C   UNL     1      -1.401   0.162  -1.456  0.00  0.00    +0.193 C 
BRANCH  20  21
ATOM     21  C   UNL     1      -2.739  -0.423  -1.827  0.00  0.00    -0.018 A 
ATOM     22  C   UNL     1      -3.900   0.277  -1.555  0.00  0.00    +0.007 A 
ATOM     23  C   UNL     1      -5.127  -0.259  -1.895  0.00  0.00    +0.020 A 
ATOM     24  C   UNL     1      -5.194  -1.498  -2.508  0.00  0.00    +0.041 A 
ATOM     25  C   UNL     1      -4.033  -2.199  -2.780  0.00  0.00    +0.020 A 
ATOM     26  C   UNL     1      -2.806  -1.659  -2.444  0.00  0.00    +0.007 A 
ATOM     27 CL   UNL     1      -6.736  -2.172  -2.936  0.00  0.00    -0.084 Cl
ENDBRANCH  20  21
BRANCH  20  28
ATOM     28  C   UNL     1      -1.074   1.299  -2.389  0.00  0.00    +0.238 C 
ATOM     29  O   UNL     1      -0.741   2.375  -1.941  0.00  0.00    -0.273 OA
ATOM     30  N   UNL     1      -1.151   1.119  -3.723  0.00  0.00    -0.311 N 
ATOM     31  H   UNL     1      -1.417   0.258  -4.082  0.00  0.00    +0.149 HD
BRANCH  30  32
ATOM     32  C   UNL     1      -0.832   2.224  -4.630  0.00  0.00    +0.073 C 
ATOM     33  C   UNL     1      -2.073   3.098  -4.824  0.00  0.00    +0.022 C 
ATOM     34  C   UNL     1      -1.740   4.252  -5.772  0.00  0.00    +0.002 C 
ATOM     35  C   UNL     1      -1.296   3.690  -7.124  0.00  0.00    +0.000 C 
ATOM     36  C   UNL     1      -0.056   2.816  -6.930  0.00  0.00    +0.002 C 
ATOM     37  C   UNL     1      -0.388   1.662  -5.982  0.00  0.00    +0.022 C 
ENDBRANCH  30  32
ENDBRANCH  20  28
ENDBRANCH   3  20
TORSDOF 9
