REMARK  Name = ZINC25455637
REMARK  9 active torsions:
REMARK  status: ('A' for Active; 'I' for Inactive)
REMARK    1  A    between atoms: C_1  and  C_2
REMARK    2  A    between atoms: C_5  and  N_9
REMARK    3  A    between atoms: C_6  and  C_8
REMARK    4  A    between atoms: C_13  and  C_15
REMARK    5  A    between atoms: C_15  and  C_17
REMARK    6  A    between atoms: C_15  and  S_18
REMARK    7  A    between atoms: S_18  and  C_19
REMARK    8  A    between atoms: C_22  and  S_25
REMARK    9  A    between atoms: S_25  and  N_28
REMARK                            x       y       z     vdW  Elec       q    Type
REMARK                         _______ _______ _______ _____ _____    ______ ____
ROOT
ATOM      1  C   UNL     1      -4.335   3.489   5.057  0.00  0.00    +0.136 C 
ATOM      2  C   UNL     1      -4.860   2.087   4.737  0.00  0.00    +0.029 C 
ENDROOT
BRANCH   1   7
ATOM      3  N   UNL     1      -8.194   5.603   6.994  0.00  0.00    -0.269 N 
ATOM      4  C   UNL     1      -6.966   5.070   7.152  0.00  0.00    +0.310 C 
ATOM      5  O   UNL     1      -6.456   5.037   8.255  0.00  0.00    -0.252 OA
ATOM      6  N   UNL     1      -6.304   4.575   6.088  0.00  0.00    -0.239 N 
ATOM      7  C   UNL     1      -5.076   4.043   6.247  0.00  0.00    +0.233 C 
ATOM      8  O   UNL     1      -4.567   4.009   7.347  0.00  0.00    -0.274 OA
ATOM      9  H   UNL     1      -8.618   5.718   5.985  0.00  0.00    +0.156 HD
ATOM     10  H   UNL     1      -6.766   4.605   5.090  0.00  0.00    +0.159 HD
BRANCH   3  15
ATOM     11  C   UNL     1     -11.178   7.253  11.528  0.00  0.00    +0.044 C 
ATOM     12  C   UNL     1     -10.386   6.814  10.323  0.00  0.00    -0.050 A 
ATOM     13  C   UNL     1      -9.412   5.841  10.455  0.00  0.00    +0.005 A 
ATOM     14  C   UNL     1      -8.684   5.437   9.353  0.00  0.00    +0.024 A 
ATOM     15  C   UNL     1      -8.930   6.010   8.112  0.00  0.00    +0.038 A 
ATOM     16  C   UNL     1      -9.905   6.990   7.984  0.00  0.00    -0.029 A 
ATOM     17  C   UNL     1     -10.633   7.386   9.089  0.00  0.00    +0.008 A 
ATOM     18  C   UNL     1     -10.171   7.619   6.641  0.00  0.00    +0.045 C 
ENDBRANCH   3  15
ENDBRANCH   1   7
BRANCH   1  19
ATOM     19  S   UNL     1      -2.563   3.399   5.436  0.00  0.00    -0.093 S 
BRANCH  19  20
ATOM     20  C   UNL     1      -1.829   2.882   3.920  0.00  0.00    +0.098 A 
ATOM     21  C   UNL     1      -0.450   2.707   3.846  0.00  0.00    +0.037 A 
ATOM     22  C   UNL     1       0.112   2.300   2.650  0.00  0.00    +0.032 A 
ATOM     23  C   UNL     1      -0.725   2.082   1.563  0.00  0.00    +0.124 A 
ATOM     24  C   UNL     1      -2.083   2.280   1.706  0.00  0.00    +0.140 A 
ATOM     25  N   UNL     1      -2.594   2.664   2.861  0.00  0.00    -0.247 NA
BRANCH  23  26
ATOM     26  S   UNL     1      -0.059   1.563   0.017  0.00  0.00    +0.062 S 
ATOM     27  O   UNL     1       1.298   1.982  -0.002  0.00  0.00    -0.153 OA
ATOM     28  O   UNL     1      -0.992   1.958  -0.980  0.00  0.00    -0.153 OA
BRANCH  26  29
ATOM     29  N   UNL     1      -0.043  -0.093   0.021  0.00  0.00    -0.177 NA
ATOM     30  C   UNL     1       1.133  -0.773   0.516  0.00  0.00    +0.109 C 
ATOM     31  C   UNL     1       2.133  -0.999  -0.637  0.00  0.00    +0.017 C 
ATOM     32  C   UNL     1       1.626  -2.028  -1.558  0.00  0.00    +0.001 C 
ATOM     33  C   UNL     1       0.320  -1.659  -2.256  0.00  0.00    +0.001 C 
ATOM     34  C   UNL     1      -0.842  -2.018  -1.363  0.00  0.00    +0.017 C 
ATOM     35  C   UNL     1      -1.227  -0.813  -0.486  0.00  0.00    +0.109 C 
ENDBRANCH  26  29
ENDBRANCH  23  26
ENDBRANCH  19  20
ENDBRANCH   1  19
TORSDOF 6
