REMARK  Name = ZINC20793873
REMARK  8 active torsions:
REMARK  status: ('A' for Active; 'I' for Inactive)
REMARK    1  A    between atoms: C_1  and  C_2
REMARK    2  A    between atoms: N_4  and  C_5
REMARK    3  A    between atoms: C_6  and  C_14
REMARK    4  A    between atoms: C_14  and  O_16
REMARK    5  A    between atoms: O_16  and  C_17
REMARK    6  A    between atoms: C_17  and  C_18
REMARK    7  A    between atoms: N_20  and  C_21
REMARK    8  A    between atoms: C_22  and  C_31
REMARK                            x       y       z     vdW  Elec       q    Type
REMARK                         _______ _______ _______ _____ _____    ______ ____
ROOT
ATOM      1  O   UNL     1       2.483   4.083   0.000  0.00  0.00    -0.452 OA
ENDROOT
BRANCH   1   2
ATOM      2  C   UNL     1       2.642   5.422   0.006  0.00  0.00    +0.342 C 
ATOM      3  O   UNL     1       1.667   6.150   0.019  0.00  0.00    -0.245 OA
BRANCH   2   5
ATOM      4  C   UNL     1       4.660   6.278   1.179  0.00  0.00    +0.086 A 
ATOM      5  C   UNL     1       3.987   6.000  -0.004  0.00  0.00    +0.091 A 
ATOM      6  C   UNL     1       4.670   6.300  -1.251  0.00  0.00    -0.021 A 
ATOM      7  C   UNL     1       5.903   6.833  -1.118  0.00  0.00    -0.004 A 
ATOM      8  S   UNL     1       6.169   6.930   0.630  0.00  0.00    -0.077 S 
ATOM      9  C   UNL     1       6.834   7.242  -2.218  0.00  0.00    +0.043 C 
ATOM     10  C   UNL     1       6.330   6.628  -3.532  0.00  0.00    +0.005 C 
ATOM     11  C   UNL     1       4.827   6.896  -3.657  0.00  0.00    +0.005 C 
ATOM     12  C   UNL     1       4.063   6.060  -2.628  0.00  0.00    +0.037 C 
BRANCH   4  16
ATOM     13  C   UNL     1       4.564   6.199   4.930  0.00  0.00    +0.109 C 
ATOM     14  C   UNL     1       5.031   6.414   3.513  0.00  0.00    +0.214 C 
ATOM     15  O   UNL     1       6.128   6.887   3.301  0.00  0.00    -0.276 OA
ATOM     16  N   UNL     1       4.231   6.080   2.481  0.00  0.00    -0.280 N 
ATOM     17  H   UNL     1       3.236   5.651   2.673  0.00  0.00    +0.155 HD
ENDBRANCH   4  16
ENDBRANCH   2   5
ENDBRANCH   1   2
BRANCH   1  18
ATOM     18  C   UNL     1       1.121   3.580   0.011  0.00  0.00    +0.328 C 
BRANCH  18  19
ATOM     19  C   UNL     1       1.141   2.074   0.002  0.00  0.00    +0.255 C 
ATOM     20  O   UNL     1       2.200   1.481  -0.011  0.00  0.00    -0.272 OA
ATOM     21  N   UNL     1      -0.017   1.384   0.010  0.00  0.00    -0.276 N 
ATOM     22  H   UNL     1      -0.977   1.921   0.022  0.00  0.00    +0.155 HD
BRANCH  21  23
ATOM     23  C   UNL     1       0.002  -0.004   0.002  0.00  0.00    +0.090 A 
ATOM     24  C   UNL     1      -1.071  -0.880   0.013  0.00  0.00    +0.084 A 
ATOM     25  C   UNL     1      -0.782  -2.307  -0.005  0.00  0.00    -0.018 A 
ATOM     26  C   UNL     1       0.531  -2.622  -0.015  0.00  0.00    -0.004 A 
ATOM     27  S   UNL     1       1.373  -1.062  -0.016  0.00  0.00    -0.077 S 
ATOM     28  C   UNL     1       1.145  -3.986  -0.010  0.00  0.00    +0.043 C 
ATOM     29  C   UNL     1       0.472  -4.849  -1.086  0.00  0.00    +0.005 C 
ATOM     30  C   UNL     1      -0.731  -5.548  -0.461  0.00  0.00    +0.001 C 
ATOM     31  C   UNL     1      -1.360  -4.657   0.608  0.00  0.00    +0.005 C 
ATOM     32  C   UNL     1      -1.879  -3.365  -0.014  0.00  0.00    +0.037 C 
BRANCH  24  33
ATOM     33  C   UNL     1      -2.419  -0.398   0.038  0.00  0.00    +0.102 C 
ATOM     34  N   UNL     1      -3.489  -0.015   0.059  0.00  0.00    -0.191 NA
ENDBRANCH  24  33
ENDBRANCH  21  23
ENDBRANCH  18  19
ENDBRANCH   1  18
TORSDOF 7
