REMARK  Name = ZINC39552535
REMARK  5 active torsions:
REMARK  status: ('A' for Active; 'I' for Inactive)
REMARK    1  A    between atoms: C_6  and  C_11
REMARK    2  A    between atoms: N_13  and  C_14
REMARK    3  A    between atoms: C_14  and  C_15
REMARK    4  A    between atoms: N_20  and  C_22
REMARK    5  A    between atoms: C_22  and  C_23
REMARK                            x       y       z     vdW  Elec       q    Type
REMARK                         _______ _______ _______ _____ _____    ______ ____
ROOT
ATOM      1  C   UNL     1      -8.706  -1.883  -0.152  0.00  0.00    -0.011 C 
ATOM      2  C   UNL     1      -8.259  -2.670  -1.387  0.00  0.00    +0.001 C 
ATOM      3  C   UNL     1      -8.696  -4.130  -1.235  0.00  0.00    -0.018 C 
ATOM      4  C   UNL     1     -10.211  -4.185  -1.030  0.00  0.00    -0.079 C 
ATOM      5  N   UNL     1     -10.572  -3.436   0.179  0.00  0.00    +0.382 N 
ATOM      6  C   UNL     1     -10.221  -2.020   0.014  0.00  0.00    -0.074 C 
ATOM      7  H   UNL     1     -10.072  -3.814   0.970  0.00  0.00    -0.082 HD
ENDROOT
BRANCH   1   8
ATOM      8  C   UNL     1      -8.344  -0.407  -0.329  0.00  0.00    +0.106 C 
BRANCH   8  11
ATOM      9  C   UNL     1      -6.333   0.956  -0.520  0.00  0.00    +0.260 C 
ATOM     10  O   UNL     1      -7.044   1.938  -0.621  0.00  0.00    -0.269 OA
ATOM     11  N   UNL     1      -6.886  -0.264  -0.370  0.00  0.00    -0.310 N 
ATOM     12  H   UNL     1      -6.319  -1.047  -0.290  0.00  0.00    +0.149 HD
BRANCH   9  18
ATOM     13  C   UNL     1      -0.429   2.181  -0.764  0.00  0.00    +0.001 A 
ATOM     14  C   UNL     1      -0.305   0.806  -0.607  0.00  0.00    +0.002 A 
ATOM     15  C   UNL     1      -1.422   0.009  -0.496  0.00  0.00    +0.026 A 
ATOM     16  C   UNL     1      -2.689   0.583  -0.540  0.00  0.00    +0.047 A 
ATOM     17  N   UNL     1      -3.960   0.065  -0.458  0.00  0.00    -0.351 N 
ATOM     18  C   UNL     1      -4.870   1.100  -0.562  0.00  0.00    +0.103 A 
ATOM     19  H   UNL     1      -4.182  -0.873  -0.346  0.00  0.00    +0.166 HD
ATOM     20  C   UNL     1      -4.198   2.271  -0.709  0.00  0.00    +0.040 A 
ATOM     21  C   UNL     1      -2.812   1.977  -0.699  0.00  0.00    +0.000 A 
ATOM     22  C   UNL     1      -1.661   2.768  -0.805  0.00  0.00    +0.010 A 
ENDBRANCH   9  18
ENDBRANCH   8  11
ENDBRANCH   1   8
BRANCH   5  23
ATOM     23  C   UNL     1     -12.017  -3.556   0.415  0.00  0.00    -0.045 C 
BRANCH  23  24
ATOM     24  C   UNL     1     -12.336  -3.137   1.852  0.00  0.00    +0.117 C 
ATOM     25  N   UNL     1     -11.891  -1.761   2.112  0.00  0.00    -0.333 N 
ATOM     26  C   UNL     1     -10.921  -1.573   3.096  0.00  0.00    +0.042 A 
ATOM     27  C   UNL     1     -10.375  -0.336   3.481  0.00  0.00    +0.024 A 
ATOM     28  C   UNL     1      -9.419  -0.255   4.466  0.00  0.00    +0.002 A 
ATOM     29  C   UNL     1      -8.960  -1.388   5.111  0.00  0.00    +0.001 A 
ATOM     30  C   UNL     1      -9.480  -2.621   4.753  0.00  0.00    +0.016 A 
ATOM     31  C   UNL     1     -10.438  -2.701   3.767  0.00  0.00    +0.030 A 
ATOM     32  S   UNL     1     -11.315  -4.076   3.057  0.00  0.00    -0.103 S 
ATOM     33  H   UNL     1     -12.258  -1.012   1.618  0.00  0.00    +0.147 HD
ENDBRANCH  23  24
ENDBRANCH   5  23
TORSDOF 5
