REMARK  Name = ZINC44844274
REMARK  9 active torsions:
REMARK  status: ('A' for Active; 'I' for Inactive)
REMARK    1  A    between atoms: C_4  and  C_7
REMARK    2  A    between atoms: C_7  and  C_8
REMARK    3  A    between atoms: C_8  and  N_9
REMARK    4  A    between atoms: C_10  and  C_12
REMARK    5  A    between atoms: C_17  and  N_18
REMARK    6  A    between atoms: C_19  and  C_21
REMARK    7  A    between atoms: C_24  and  C_27
REMARK    8  A    between atoms: C_27  and  S_28
REMARK    9  A    between atoms: S_28  and  N_31
REMARK                            x       y       z     vdW  Elec       q    Type
REMARK                         _______ _______ _______ _____ _____    ______ ____
ROOT
ATOM      1  N   UNL     1       7.385  -2.552   4.886  0.00  0.00    -0.281 N 
ATOM      2  C   UNL     1       8.045  -2.695   6.052  0.00  0.00    +0.248 C 
ATOM      3  O   UNL     1       9.185  -3.115   6.058  0.00  0.00    -0.270 OA
ATOM      4  H   UNL     1       6.498  -2.159   4.875  0.00  0.00    +0.155 HD
ENDROOT
BRANCH   1  10
ATOM      5  C   UNL     1       7.222  -3.664   2.740  0.00  0.00    +0.058 A 
ATOM      6  C   UNL     1       7.826  -4.071   1.548  0.00  0.00    +0.015 A 
ATOM      7  C   UNL     1       9.156  -3.792   1.321  0.00  0.00    +0.001 A 
ATOM      8  C   UNL     1       9.900  -3.109   2.270  0.00  0.00    +0.002 A 
ATOM      9  C   UNL     1       9.317  -2.701   3.453  0.00  0.00    +0.024 A 
ATOM     10  C   UNL     1       7.976  -2.967   3.696  0.00  0.00    +0.046 A 
BRANCH   5  12
ATOM     11  N   UNL     1       5.048  -4.523   2.022  0.00  0.00    -0.311 N 
ATOM     12  C   UNL     1       5.799  -3.959   2.989  0.00  0.00    +0.246 C 
ATOM     13  O   UNL     1       5.303  -3.695   4.067  0.00  0.00    -0.270 OA
ATOM     14  H   UNL     1       5.444  -4.734   1.162  0.00  0.00    +0.149 HD
BRANCH  11  15
ATOM     15  C   UNL     1       3.634  -4.816   2.269  0.00  0.00    +0.109 C 
BRANCH  15  16
ATOM     16  C   UNL     1       3.018  -5.448   1.019  0.00  0.00    +0.054 C 
BRANCH  16  20
ATOM     17  C   UNL     1      -1.104  -6.305   1.739  0.00  0.00    +0.000 A 
ATOM     18  C   UNL     1      -0.734  -5.078   1.220  0.00  0.00    +0.000 A 
ATOM     19  C   UNL     1       0.600  -4.801   0.987  0.00  0.00    +0.004 A 
ATOM     20  C   UNL     1       1.564  -5.750   1.274  0.00  0.00    -0.046 A 
ATOM     21  C   UNL     1       1.193  -6.976   1.794  0.00  0.00    +0.004 A 
ATOM     22  C   UNL     1      -0.141  -7.254   2.025  0.00  0.00    +0.000 A 
ENDBRANCH  16  20
ENDBRANCH  15  16
ENDBRANCH  11  15
ENDBRANCH   5  12
ENDBRANCH   1  10
BRANCH   2  23
ATOM     23  C   UNL     1       7.382  -2.340   7.324  0.00  0.00    +0.037 A 
ATOM     24  C   UNL     1       6.070  -1.861   7.322  0.00  0.00    +0.013 A 
ATOM     25  C   UNL     1       5.457  -1.532   8.513  0.00  0.00    +0.006 A 
ATOM     26  C   UNL     1       6.140  -1.674   9.708  0.00  0.00    -0.025 A 
ATOM     27  C   UNL     1       7.440  -2.147   9.718  0.00  0.00    +0.006 A 
ATOM     28  C   UNL     1       8.062  -2.486   8.534  0.00  0.00    +0.013 A 
BRANCH  26  29
ATOM     29  C   UNL     1       5.464  -1.311  11.005  0.00  0.00    +0.220 C 
BRANCH  29  30
ATOM     30  S   UNL     1       4.609  -2.767  11.669  0.00  0.00    +0.036 S 
ATOM     31  O   UNL     1       3.514  -3.115  10.832  0.00  0.00    -0.158 OA
ATOM     32  O   UNL     1       5.554  -3.749  12.072  0.00  0.00    -0.158 OA
BRANCH  30  33
ATOM     33  N   UNL     1       3.913  -2.246  13.079  0.00  0.00    -0.181 NA
ATOM     34  C   UNL     1       4.646  -2.329  14.350  0.00  0.00    +0.109 C 
ATOM     35  C   UNL     1       4.652  -0.945  15.007  0.00  0.00    +0.017 C 
ATOM     36  C   UNL     1       3.213  -0.443  15.142  0.00  0.00    +0.003 C 
ATOM     37  C   UNL     1       2.583  -0.315  13.754  0.00  0.00    +0.017 C 
ATOM     38  C   UNL     1       2.555  -1.687  13.082  0.00  0.00    +0.109 C 
ENDBRANCH  30  33
ENDBRANCH  29  30
ENDBRANCH  26  29
ENDBRANCH   2  23
TORSDOF 9
