REMARK  Name = ZINC22673257
REMARK  13 active torsions:
REMARK  status: ('A' for Active; 'I' for Inactive)
REMARK    1  A    between atoms: C_1  and  C_2
REMARK    2  A    between atoms: C_2  and  C_3
REMARK    3  A    between atoms: C_3  and  C_5
REMARK    4  A    between atoms: C_3  and  C_6
REMARK    5  A    between atoms: C_11  and  N_12
REMARK    6  A    between atoms: C_13  and  C_15
REMARK    7  A    between atoms: C_15  and  C_17
REMARK    8  A    between atoms: C_15  and  S_18
REMARK    9  A    between atoms: S_18  and  C_19
REMARK   10  A    between atoms: C_22  and  C_31
REMARK   11  A    between atoms: N_23  and  C_24
REMARK   12  A    between atoms: C_24  and  C_25
REMARK   13  A    between atoms: C_31  and  N_32
REMARK                            x       y       z     vdW  Elec       q    Type
REMARK                         _______ _______ _______ _____ _____    ______ ____
ROOT
ATOM      1  C   UNL     1      -2.476   9.777   0.807  0.00  0.00    +0.193 A 
ATOM      2  N   UNL     1      -1.461  10.346   0.198  0.00  0.00    -0.123 NA
ATOM      3  N   UNL     1      -1.559  11.624   0.288  0.00  0.00    -0.135 NA
ATOM      4  C   UNL     1      -2.628  11.944   0.960  0.00  0.00    +0.118 A 
ATOM      5  N   UNL     1      -3.251  10.779   1.315  0.00  0.00    -0.303 N 
ENDROOT
BRANCH   1   6
ATOM      6  S   UNL     1      -2.776   8.046   0.947  0.00  0.00    -0.074 S 
BRANCH   6   7
ATOM      7  C   UNL     1      -1.347   7.404   0.042  0.00  0.00    +0.137 C 
ATOM      8  C   UNL     1      -1.443   7.822  -1.426  0.00  0.00    +0.029 C 
BRANCH   7  10
ATOM      9  N   UNL     1      -0.164   5.232   0.004  0.00  0.00    -0.284 N 
ATOM     10  C   UNL     1      -1.327   5.900   0.136  0.00  0.00    +0.230 C 
ATOM     11  O   UNL     1      -2.358   5.291   0.330  0.00  0.00    -0.274 OA
ATOM     12  H   UNL     1       0.782   5.786  -0.079  0.00  0.00    +0.155 HD
BRANCH   9  18
ATOM     13  C   UNL     1       0.898   3.127   0.526  0.00  0.00    -0.023 A 
ATOM     14  C   UNL     1       0.899   1.746   0.492  0.00  0.00    +0.006 A 
ATOM     15  C   UNL     1      -0.153   1.067  -0.093  0.00  0.00    +0.000 A 
ATOM     16  C   UNL     1      -1.207   1.768  -0.652  0.00  0.00    +0.002 A 
ATOM     17  C   UNL     1      -1.216   3.148  -0.616  0.00  0.00    +0.023 A 
ATOM     18  C   UNL     1      -0.161   3.833  -0.029  0.00  0.00    +0.037 A 
BRANCH  13  19
ATOM     19  C   UNL     1       2.046   3.866   1.164  0.00  0.00    +0.017 C 
ATOM     20  C   UNL     1       2.084   3.555   2.662  0.00  0.00    +0.012 C 
BRANCH  19  22
ATOM     21  C   UNL     1       4.512   4.262   1.077  0.00  0.00    +0.004 C 
ATOM     22  C   UNL     1       3.360   3.423   0.518  0.00  0.00    +0.004 C 
ENDBRANCH  19  22
ENDBRANCH  13  19
ENDBRANCH   9  18
ENDBRANCH   7  10
ENDBRANCH   6   7
ENDBRANCH   1   6
BRANCH   5  23
ATOM     23  C   UNL     1      -4.492  10.637   2.080  0.00  0.00    +0.160 C 
BRANCH  23  24
ATOM     24  C   UNL     1      -4.162  10.437   3.538  0.00  0.00    -0.028 A 
ATOM     25  C   UNL     1      -3.887   9.170   4.016  0.00  0.00    +0.005 A 
ATOM     26  C   UNL     1      -3.580   8.987   5.352  0.00  0.00    +0.000 A 
ATOM     27  C   UNL     1      -3.559  10.070   6.211  0.00  0.00    +0.000 A 
ATOM     28  C   UNL     1      -3.840  11.336   5.733  0.00  0.00    +0.000 A 
ATOM     29  C   UNL     1      -4.142  11.520   4.396  0.00  0.00    +0.005 A 
ENDBRANCH  23  24
ENDBRANCH   5  23
BRANCH   4  30
ATOM     30  C   UNL     1      -3.093  13.340   1.286  0.00  0.00    -0.001 C 
BRANCH  30  31
ATOM     31  N   UNL     1      -4.069  13.779   0.280  0.00  0.00    +0.384 N 
ATOM     32  C   UNL     1      -3.466  13.815  -1.058  0.00  0.00    -0.078 C 
ATOM     33  C   UNL     1      -4.543  14.133  -2.097  0.00  0.00    -0.019 C 
ATOM     34  C   UNL     1      -5.178  15.487  -1.768  0.00  0.00    -0.004 C 
ATOM     35  C   UNL     1      -5.757  15.439  -0.351  0.00  0.00    -0.019 C 
ATOM     36  C   UNL     1      -4.644  15.082   0.638  0.00  0.00    -0.078 C 
ATOM     37  H   UNL     1      -4.889  13.046   0.259  0.00  0.00    -0.081 HD
ENDBRANCH  30  31
ENDBRANCH   4  30
TORSDOF 10
