REMARK  Name = ZINC08446393
REMARK  17 active torsions:
REMARK  status: ('A' for Active; 'I' for Inactive)
REMARK    1  A    between atoms: C_1  and  C_2
REMARK    2  A    between atoms: C_2  and  O_3
REMARK    3  A    between atoms: O_3  and  C_4
REMARK    4  A    between atoms: C_4  and  O_6
REMARK    5  A    between atoms: O_6  and  C_7
REMARK    6  A    between atoms: C_11  and  C_42
REMARK    7  A    between atoms: C_16  and  C_41
REMARK    8  A    between atoms: C_22  and  O_27
REMARK    9  A    between atoms: C_24  and  O_26
REMARK   10  A    between atoms: C_30  and  C_32
REMARK   11  A    between atoms: C_32  and  C_34
REMARK   12  A    between atoms: C_32  and  C_35
REMARK   13  A    between atoms: C_35  and  C_36
REMARK   14  A    between atoms: C_36  and  C_37
REMARK   15  A    between atoms: C_37  and  C_38
REMARK   16  A    between atoms: C_38  and  C_39
REMARK   17  A    between atoms: C_38  and  C_40
REMARK                            x       y       z     vdW  Elec       q    Type
REMARK                         _______ _______ _______ _____ _____    ______ ____
ROOT
ATOM      1  C   UNL     1      -3.436   1.769   5.264  0.00  0.00    +0.183 C 
ATOM      2  C   UNL     1      -3.095   0.404   4.669  0.00  0.00    +0.045 C 
ATOM      3  C   UNL     1      -2.260   0.566   3.400  0.00  0.00    +0.013 C 
ATOM      4  C   UNL     1      -3.007   1.426   2.374  0.00  0.00    +0.002 C 
ATOM      5  C   UNL     1      -2.230   1.518   1.083  0.00  0.00    +0.001 C 
ATOM      6  C   UNL     1      -0.721   1.583   1.282  0.00  0.00    +0.005 C 
ATOM      7  C   UNL     1      -0.013   1.088   0.008  0.00  0.00    +0.007 C 
ATOM      8  C   UNL     1      -0.753   1.602  -1.206  0.00  0.00    -0.026 C 
ATOM      9  C   UNL     1      -1.542   2.878  -0.850  0.00  0.00    -0.001 C 
ATOM     10  C   UNL     1      -2.694   2.574   0.101  0.00  0.00    -0.001 C 
ATOM     11  C   UNL     1      -3.111   3.885   0.749  0.00  0.00    +0.038 C 
ATOM     12  C   UNL     1      -3.969   3.722   1.989  0.00  0.00    +0.147 C 
ATOM     13  C   UNL     1      -3.303   2.783   2.985  0.00  0.00    +0.101 C 
ATOM     14  C   UNL     1      -4.169   2.634   4.237  0.00  0.00    +0.082 C 
ATOM     15  C   UNL     1      -1.985   3.369  -2.240  0.00  0.00    +0.004 C 
ATOM     16  C   UNL     1      -0.746   3.089  -3.131  0.00  0.00    +0.004 C 
ATOM     17  C   UNL     1       0.161   2.121  -2.333  0.00  0.00    -0.002 C 
ATOM     18  C   UNL     1      -1.654   0.517  -1.798  0.00  0.00    +0.012 C 
ATOM     19  C   UNL     1      -4.314   0.696   2.043  0.00  0.00    +0.014 C 
ENDROOT
BRANCH  13  20
ATOM     20  O   UNL     1      -2.053   3.379   3.388  0.00  0.00    -0.385 OA
ATOM     21  H   UNL     1      -2.146   4.253   3.791  0.00  0.00    +0.210 HD
ENDBRANCH  13  20
BRANCH  12  22
ATOM     22  O   UNL     1      -5.285   3.305   1.643  0.00  0.00    -0.389 OA
ATOM     23  H   UNL     1      -5.728   3.887   1.011  0.00  0.00    +0.210 HD
ENDBRANCH  12  22
BRANCH  17  24
ATOM     24  C   UNL     1       0.611   0.960  -3.217  0.00  0.00    -0.010 C 
ATOM     25  C   UNL     1       1.382  -0.056  -2.372  0.00  0.00    +0.008 C 
BRANCH  24  26
ATOM     26  C   UNL     1       1.517   1.488  -4.331  0.00  0.00    +0.003 C 
BRANCH  26  27
ATOM     27  C   UNL     1       1.867   0.348  -5.289  0.00  0.00    +0.001 C 
BRANCH  27  28
ATOM     28  C   UNL     1       2.773   0.876  -6.403  0.00  0.00    +0.003 C 
BRANCH  28  29
ATOM     29  C   UNL     1       3.123  -0.265  -7.360  0.00  0.00    -0.017 C 
ATOM     30  C   UNL     1       3.925   0.288  -8.540  0.00  0.00    +0.007 C 
ATOM     31  C   UNL     1       3.959  -1.312  -6.622  0.00  0.00    +0.007 C 
ENDBRANCH  28  29
ENDBRANCH  27  28
ENDBRANCH  26  27
ENDBRANCH  24  26
ENDBRANCH  17  24
BRANCH   1  32
ATOM     32  O   UNL     1      -4.287   1.586   6.430  0.00  0.00    -0.430 OA
BRANCH  32  33
ATOM     33  C   UNL     1      -3.671   1.426   7.616  0.00  0.00    +0.510 C 
ATOM     34  O   UNL     1      -2.459   1.439   7.677  0.00  0.00    -0.203 OA
BRANCH  33  35
ATOM     35  O   UNL     1      -4.400   1.252   8.733  0.00  0.00    -0.434 OA
BRANCH  35  37
ATOM     36  C   UNL     1      -4.659   0.903  11.129  0.00  0.00    +0.048 C 
ATOM     37  C   UNL     1      -3.669   1.086   9.977  0.00  0.00    +0.232 C 
ENDBRANCH  35  37
ENDBRANCH  33  35
ENDBRANCH  32  33
ENDBRANCH   1  32
TORSDOF 11
