REMARK  Name = ZINC51748144
REMARK  6 active torsions:
REMARK  status: ('A' for Active; 'I' for Inactive)
REMARK    1  A    between atoms: C_1  and  C_2
REMARK    2  A    between atoms: N_6  and  S_11
REMARK    3  A    between atoms: C_7  and  C_10
REMARK    4  A    between atoms: S_11  and  C_14
REMARK    5  A    between atoms: C_17  and  N_23
REMARK    6  A    between atoms: C_18  and  N_20
REMARK                            x       y       z     vdW  Elec       q    Type
REMARK                         _______ _______ _______ _____ _____    ______ ____
ROOT
ATOM      1  C   UNL     1      -0.292  -5.624   0.889  0.00  0.00    +0.108 A 
ATOM      2  C   UNL     1      -1.122  -6.068  -0.124  0.00  0.00    +0.030 A 
ATOM      3  C   UNL     1      -0.740  -7.133  -0.915  0.00  0.00    +0.027 A 
ATOM      4  C   UNL     1       0.480  -7.759  -0.692  0.00  0.00    +0.055 A 
ATOM      5  C   UNL     1       1.311  -7.311   0.327  0.00  0.00    +0.149 A 
ATOM      6  C   UNL     1       0.925  -6.241   1.111  0.00  0.00    +0.063 A 
ENDROOT
BRANCH   1   7
ATOM      7  S   UNL     1      -0.784  -4.263   1.895  0.00  0.00    +0.061 S 
ATOM      8  O   UNL     1      -0.073  -4.386   3.120  0.00  0.00    -0.153 OA
ATOM      9  O   UNL     1      -2.203  -4.210   1.840  0.00  0.00    -0.153 OA
BRANCH   7  14
ATOM     10  C   UNL     1       0.318   1.332   1.296  0.00  0.00    +0.007 C 
ATOM     11  C   UNL     1       0.324  -0.130   0.845  0.00  0.00    -0.011 C 
ATOM     12  C   UNL     1      -1.115  -0.646   0.770  0.00  0.00    +0.020 C 
ATOM     13  C   UNL     1      -1.107  -2.100   0.285  0.00  0.00    +0.110 C 
ATOM     14  N   UNL     1      -0.229  -2.886   1.162  0.00  0.00    -0.174 NA
ATOM     15  C   UNL     1       1.150  -2.427   1.377  0.00  0.00    +0.077 C 
ATOM     16  C   UNL     1       1.117  -0.970   1.849  0.00  0.00    +0.023 C 
ATOM     17  C   UNL     1       1.821  -3.299   2.439  0.00  0.00    +0.026 C 
ENDBRANCH   7  14
ENDBRANCH   1   7
BRANCH   5  18
ATOM     18  N   UNL     1       2.612  -7.975   0.569  0.00  0.00    +0.058 N 
ATOM     19  O   UNL     1       2.709  -9.174   0.451  0.00  0.00    -0.126 OA
ATOM     20  O   UNL     1       3.577  -7.318   0.883  0.00  0.00    -0.126 OA
ENDBRANCH   5  18
BRANCH   4  21
ATOM     21  N   UNL     1       0.870  -8.837  -1.490  0.00  0.00    -0.356 N 
ATOM     22  H   UNL     1       0.314  -9.116  -2.234  0.00  0.00    +0.142 HD
ATOM     23  H   UNL     1       1.697  -9.307  -1.299  0.00  0.00    +0.142 HD
ENDBRANCH   4  21
TORSDOF 4
