REMARK  Name = ZINC12887972
REMARK  11 active torsions:
REMARK  status: ('A' for Active; 'I' for Inactive)
REMARK    1  A    between atoms: C_1  and  C_2
REMARK    2  A    between atoms: C_2  and  C_3
REMARK    3  A    between atoms: C_3  and  C_4
REMARK    4  A    between atoms: C_4  and  N_5
REMARK    5  A    between atoms: C_6  and  C_8
REMARK    6  A    between atoms: C_8  and  C_10
REMARK    7  A    between atoms: C_8  and  N_15
REMARK    8  A    between atoms: C_10  and  C_12
REMARK    9  A    between atoms: C_10  and  C_13
REMARK   10  A    between atoms: C_13  and  C_14
REMARK   11  A    between atoms: C_16  and  C_18
REMARK                            x       y       z     vdW  Elec       q    Type
REMARK                         _______ _______ _______ _____ _____    ______ ____
ROOT
ATOM      1  C   UNL     1       3.121   1.440   0.285  0.00  0.00    +0.167 C 
ATOM      2  C   UNL     1       2.446   1.353   1.661  0.00  0.00    +0.069 C 
ATOM      3  C   UNL     1       1.657   0.074   1.776  0.00  0.00    -0.015 A 
ATOM      4  C   UNL     1       0.653  -0.252   2.772  0.00  0.00    +0.003 A 
ATOM      5  C   UNL     1       0.120   0.469   3.845  0.00  0.00    +0.010 A 
ATOM      6  C   UNL     1      -0.838  -0.162   4.600  0.00  0.00    +0.001 A 
ATOM      7  C   UNL     1      -1.264  -1.451   4.322  0.00  0.00    +0.002 A 
ATOM      8  C   UNL     1      -0.753  -2.186   3.267  0.00  0.00    +0.026 A 
ATOM      9  C   UNL     1       0.221  -1.571   2.482  0.00  0.00    +0.047 A 
ATOM     10  N   UNL     1       0.919  -1.996   1.390  0.00  0.00    -0.356 N 
ATOM     11  H   UNL     1       0.829  -2.867   0.974  0.00  0.00    +0.166 HD
ATOM     12  C   UNL     1       1.767  -1.007   0.971  0.00  0.00    +0.046 A 
ATOM     13  C   UNL     1       2.707  -1.060  -0.210  0.00  0.00    +0.155 C 
ATOM     14  N   UNL     1       3.613   0.101  -0.059  0.00  0.00    -0.273 N 
ATOM     15  C   UNL     1       4.876  -0.318  -0.211  0.00  0.00    +0.248 C 
ATOM     16  O   UNL     1       5.844   0.407  -0.335  0.00  0.00    -0.270 OA
ATOM     17  C   UNL     1       4.913  -1.784  -0.204  0.00  0.00    +0.042 A 
ATOM     18  C   UNL     1       3.587  -2.262  -0.189  0.00  0.00    -0.009 A 
ATOM     19  C   UNL     1       3.308  -3.611  -0.162  0.00  0.00    +0.006 A 
ATOM     20  C   UNL     1       4.394  -4.482  -0.165  0.00  0.00    +0.000 A 
ATOM     21  C   UNL     1       5.695  -4.023  -0.197  0.00  0.00    +0.001 A 
ATOM     22  C   UNL     1       5.993  -2.668  -0.219  0.00  0.00    +0.013 A 
ENDROOT
BRANCH   1  24
ATOM     23  N   UNL     1       5.355   2.126   1.095  0.00  0.00    -0.302 N 
ATOM     24  C   UNL     1       4.274   2.409   0.342  0.00  0.00    +0.235 C 
ATOM     25  O   UNL     1       4.228   3.444  -0.289  0.00  0.00    -0.274 OA
ATOM     26  H   UNL     1       5.428   1.265   1.534  0.00  0.00    +0.150 HD
BRANCH  23  27
ATOM     27  C   UNL     1       6.421   3.120   1.249  0.00  0.00    +0.162 C 
BRANCH  27  29
ATOM     28  N   UNL     1       8.889   3.134   1.404  0.00  0.00    -0.314 N 
ATOM     29  C   UNL     1       7.748   2.418   1.379  0.00  0.00    +0.234 C 
ATOM     30  O   UNL     1       7.788   1.208   1.460  0.00  0.00    -0.274 OA
ATOM     31  H   UNL     1       8.854   4.103   1.416  0.00  0.00    +0.149 HD
BRANCH  28  32
ATOM     32  C   UNL     1      10.184   2.448   1.414  0.00  0.00    +0.104 C 
BRANCH  32  33
ATOM     33  C   UNL     1      11.310   3.484   1.443  0.00  0.00    +0.018 C 
BRANCH  33  35
ATOM     34  C   UNL     1      13.787   3.803   1.483  0.00  0.00    +0.004 C 
ATOM     35  C   UNL     1      12.662   2.767   1.454  0.00  0.00    -0.002 C 
ENDBRANCH  33  35
ENDBRANCH  32  33
ENDBRANCH  28  32
ENDBRANCH  27  29
BRANCH  27  36
ATOM     36  C   UNL     1       6.161   3.955   2.505  0.00  0.00    +0.015 C 
ATOM     37  C   UNL     1       4.906   4.806   2.301  0.00  0.00    +0.010 C 
BRANCH  36  38
ATOM     38  C   UNL     1       5.958   3.025   3.703  0.00  0.00    +0.002 C 
ATOM     39  C   UNL     1       7.298   2.403   4.099  0.00  0.00    +0.004 C 
ENDBRANCH  36  38
ENDBRANCH  27  36
ENDBRANCH  23  27
ENDBRANCH   1  24
TORSDOF 8
