REMARK  Name = ZINC39666435
REMARK  7 active torsions:
REMARK  status: ('A' for Active; 'I' for Inactive)
REMARK    1  A    between atoms: C_1  and  C_2
REMARK    2  A    between atoms: C_2  and  C_4
REMARK    3  A    between atoms: C_2  and  O_28
REMARK    4  A    between atoms: C_4  and  N_5
REMARK    5  A    between atoms: C_6  and  C_8
REMARK    6  A    between atoms: C_19  and  C_21
REMARK    7  A    between atoms: O_28  and  C_29
REMARK                            x       y       z     vdW  Elec       q    Type
REMARK                         _______ _______ _______ _____ _____    ______ ____
ROOT
ATOM      1  C   UNL     1       0.993  -4.173  -2.548  0.00  0.00    +0.100 C 
ATOM      2  C   UNL     1      -0.451  -4.622  -2.864  0.00  0.00    +0.121 C 
ATOM      3  N   UNL     1      -0.474  -4.799  -4.335  0.00  0.00    -0.296 N 
ATOM      4  C   UNL     1       0.837  -5.412  -4.654  0.00  0.00    +0.115 C 
ATOM      5  C   UNL     1       1.836  -4.696  -3.723  0.00  0.00    -0.004 C 
ATOM      6  C   UNL     1       2.889  -5.680  -3.221  0.00  0.00    -0.010 C 
ATOM      7  C   UNL     1       3.752  -6.142  -4.399  0.00  0.00    -0.082 C 
ATOM      8  N   UNL     1       4.397  -4.980  -5.021  0.00  0.00    +0.379 N 
ATOM      9  C   UNL     1       3.379  -4.084  -5.584  0.00  0.00    -0.082 C 
ATOM     10  C   UNL     1       2.500  -3.535  -4.457  0.00  0.00    -0.010 C 
ATOM     11  C   UNL     1      -1.465  -4.476  -5.191  0.00  0.00    +0.247 C 
ATOM     12  O   UNL     1      -2.443  -3.877  -4.789  0.00  0.00    -0.270 OA
ATOM     13  H   UNL     1       4.933  -4.482  -4.327  0.00  0.00    -0.086 HD
ATOM     14  H   UNL     1       5.012  -5.292  -5.758  0.00  0.00    -0.086 HD
ENDROOT
BRANCH  11  15
ATOM     15  C   UNL     1      -1.361  -4.850  -6.616  0.00  0.00    +0.037 A 
ATOM     16  C   UNL     1      -0.567  -5.932  -7.001  0.00  0.00    +0.014 A 
ATOM     17  C   UNL     1      -0.474  -6.276  -8.333  0.00  0.00    +0.021 A 
ATOM     18  C   UNL     1      -1.167  -5.551  -9.289  0.00  0.00    +0.041 A 
ATOM     19  C   UNL     1      -1.957  -4.477  -8.913  0.00  0.00    +0.021 A 
ATOM     20  C   UNL     1      -2.062  -4.127  -7.583  0.00  0.00    +0.014 A 
ATOM     21 CL   UNL     1      -1.045  -5.990 -10.964  0.00  0.00    -0.084 Cl
ENDBRANCH  11  15
BRANCH   1  23
ATOM     22  N   UNL     1       2.091  -2.078  -1.823  0.00  0.00    -0.312 N 
ATOM     23  C   UNL     1       1.071  -2.669  -2.476  0.00  0.00    +0.218 C 
ATOM     24  O   UNL     1       0.216  -1.992  -3.006  0.00  0.00    -0.275 OA
ATOM     25  H   UNL     1       2.775  -2.620  -1.399  0.00  0.00    +0.149 HD
BRANCH  22  26
ATOM     26  C   UNL     1       2.166  -0.616  -1.753  0.00  0.00    +0.148 C 
BRANCH  26  28
ATOM     27  C   UNL     1       3.423   1.312  -0.780  0.00  0.00    +0.053 C 
ATOM     28  C   UNL     1       3.410  -0.207  -0.961  0.00  0.00    +0.187 C 
BRANCH  28  29
ATOM     29  O   UNL     1       4.582  -0.613  -1.671  0.00  0.00    -0.486 OA
BRANCH  29  30
ATOM     30  C   UNL     1       5.710  -0.810  -0.939  0.00  0.00    +0.139 A 
ATOM     31  C   UNL     1       5.666  -0.716   0.444  0.00  0.00    +0.047 A 
ATOM     32  C   UNL     1       6.814  -0.917   1.186  0.00  0.00    +0.004 A 
ATOM     33  C   UNL     1       8.006  -1.213   0.551  0.00  0.00    +0.002 A 
ATOM     34  C   UNL     1       8.054  -1.307  -0.827  0.00  0.00    +0.023 A 
ATOM     35  C   UNL     1       6.907  -1.113  -1.574  0.00  0.00    +0.083 A 
ATOM     36 CL   UNL     1       6.965  -1.239  -3.304  0.00  0.00    -0.080 Cl
ENDBRANCH  29  30
ENDBRANCH  28  29
ENDBRANCH  26  28
ENDBRANCH  22  26
ENDBRANCH   1  23
TORSDOF 6
