REMARK  Name = ZINC18123138
REMARK  3 active torsions:
REMARK  status: ('A' for Active; 'I' for Inactive)
REMARK    1  A    between atoms: C_1  and  C_2
REMARK    2  A    between atoms: C_2  and  C_19
REMARK    3  A    between atoms: N_15  and  N_16
REMARK                            x       y       z     vdW  Elec       q    Type
REMARK                         _______ _______ _______ _____ _____    ______ ____
ROOT
ATOM      1  C   UNL     1       0.002  -0.004   0.002  0.00  0.00    +0.041 C 
ATOM      2  C   UNL     1      -0.019   1.526   0.010  0.00  0.00    +0.068 C 
ATOM      3  C   UNL     1      -0.754   2.030  -1.234  0.00  0.00    +0.071 C 
ATOM      4  C   UNL     1      -0.963   3.536  -1.086  0.00  0.00    -0.018 A 
ATOM      5  C   UNL     1      -0.851   4.104   0.139  0.00  0.00    +0.021 A 
ATOM      6  S   UNL     1      -1.160   5.830  -0.120  0.00  0.00    -0.071 S 
ATOM      7  C   UNL     1      -1.440   5.788  -1.862  0.00  0.00    +0.118 A 
ATOM      8  C   UNL     1      -1.282   4.421  -2.190  0.00  0.00    +0.076 A 
ATOM      9  C   UNL     1      -1.452   4.055  -3.565  0.00  0.00    +0.261 A 
ATOM     10  O   UNL     1      -1.336   2.903  -3.947  0.00  0.00    -0.267 OA
ATOM     11  N   UNL     1      -1.748   5.067  -4.414  0.00  0.00    -0.294 N 
ATOM     12  H   UNL     1      -1.871   4.861  -5.354  0.00  0.00    +0.172 HD
ATOM     13  C   UNL     1      -1.881   6.359  -4.010  0.00  0.00    +0.210 A 
ATOM     14  N   UNL     1      -1.732   6.733  -2.747  0.00  0.00    -0.208 NA
ATOM     15  N   UNL     1      -2.183   7.314  -4.948  0.00  0.00    -0.253 N 
ATOM     16  C   UNL     1      -0.533   3.395   1.418  0.00  0.00    +0.203 C 
ATOM     17  O   UNL     1      -0.683   1.984   1.191  0.00  0.00    -0.368 OA
ATOM     18  C   UNL     1       1.418   2.053  -0.001  0.00  0.00    +0.041 C 
ATOM     19  H   UNL     1      -2.297   7.062  -5.878  0.00  0.00    +0.169 HD
ENDROOT
BRANCH  15  20
ATOM     20  N   UNL     1      -2.324   8.620  -4.572  0.00  0.00    -0.254 NA
ATOM     21  H   UNL     1      -2.545   9.203  -5.366  0.00  0.00    +0.140 HD
ATOM     22  H   UNL     1      -3.021   8.716  -3.849  0.00  0.00    +0.140 HD
ENDBRANCH  15  20
TORSDOF 1
