REMARK  Name = ZINC36019773
REMARK  12 active torsions:
REMARK  status: ('A' for Active; 'I' for Inactive)
REMARK    1  A    between atoms: C_1  and  C_2
REMARK    2  A    between atoms: C_6  and  C_18
REMARK    3  A    between atoms: N_9  and  C_11
REMARK    4  A    between atoms: C_18  and  O_19
REMARK    5  A    between atoms: O_19  and  C_20
REMARK    6  A    between atoms: N_21  and  C_22
REMARK    7  A    between atoms: C_22  and  C_23
REMARK    8  A    between atoms: C_23  and  N_24
REMARK    9  A    between atoms: N_24  and  S_25
REMARK   10  A    between atoms: S_25  and  C_28
REMARK   11  A    between atoms: C_31  and  O_34
REMARK   12  A    between atoms: O_34  and  C_35
REMARK                            x       y       z     vdW  Elec       q    Type
REMARK                         _______ _______ _______ _____ _____    ______ ____
ROOT
ATOM      1  C   UNL     1      -0.035   1.502   0.012  0.00  0.00    +0.068 C 
ATOM      2  C   UNL     1      -0.012  -0.004   0.003  0.00  0.00    +0.073 A 
ATOM      3  C   UNL     1      -0.099  -0.824  -1.143  0.00  0.00    +0.082 A 
ATOM      4  C   UNL     1      -0.223  -0.584  -2.525  0.00  0.00    +0.133 A 
ATOM      5  N   UNL     1      -0.277  -1.628  -3.345  0.00  0.00    -0.214 NA
ATOM      6  C   UNL     1      -0.217  -2.865  -2.883  0.00  0.00    +0.159 A 
ATOM      7  N   UNL     1      -0.102  -3.138  -1.602  0.00  0.00    -0.210 NA
ATOM      8  C   UNL     1      -0.039  -2.160  -0.701  0.00  0.00    +0.169 A 
ATOM      9  N   UNL     1       0.079  -2.114   0.659  0.00  0.00    -0.214 N 
ATOM     10  N   UNL     1       0.097  -0.770   1.052  0.00  0.00    -0.169 NA
ATOM     11  N   UNL     1      -0.286   0.705  -3.017  0.00  0.00    -0.327 N 
ATOM     12  H   UNL     1      -0.168   1.459  -2.417  0.00  0.00    +0.148 HD
ENDROOT
BRANCH   9  13
ATOM     13  C   UNL     1       0.170  -3.220   1.513  0.00  0.00    +0.069 A 
ATOM     14  C   UNL     1      -0.525  -4.386   1.218  0.00  0.00    +0.028 A 
ATOM     15  C   UNL     1      -0.434  -5.476   2.062  0.00  0.00    +0.003 A 
ATOM     16  C   UNL     1       0.349  -5.407   3.200  0.00  0.00    +0.020 A 
ATOM     17  C   UNL     1       1.042  -4.247   3.498  0.00  0.00    +0.043 A 
ATOM     18  C   UNL     1       0.960  -3.156   2.653  0.00  0.00    +0.047 A 
ATOM     19 CL   UNL     1       2.023  -4.165   4.928  0.00  0.00    -0.083 Cl
ENDBRANCH   9  13
BRANCH   6  20
ATOM     20  C   UNL     1      -0.284  -4.007  -3.863  0.00  0.00    +0.235 C 
BRANCH  20  21
ATOM     21  O   UNL     1       1.037  -4.347  -4.290  0.00  0.00    -0.375 OA
ATOM     22  C   UNL     1       1.086  -5.425  -5.227  0.00  0.00    +0.194 C 
ENDBRANCH  20  21
ENDBRANCH   6  20
BRANCH  11  23
ATOM     23  C   UNL     1      -0.532   0.934  -4.443  0.00  0.00    +0.120 C 
BRANCH  23  24
ATOM     24  C   UNL     1      -0.554   2.439  -4.721  0.00  0.00    +0.124 C 
BRANCH  24  25
ATOM     25  N   UNL     1      -0.800   2.668  -6.147  0.00  0.00    -0.188 NA
ATOM     26  H   UNL     1      -0.703   1.939  -6.779  0.00  0.00    +0.148 HD
BRANCH  25  27
ATOM     27  S   UNL     1      -1.244   4.172  -6.679  0.00  0.00    +0.058 S 
ATOM     28  O   UNL     1      -1.380   4.079  -8.091  0.00  0.00    -0.153 OA
ATOM     29  O   UNL     1      -2.306   4.603  -5.839  0.00  0.00    -0.153 OA
BRANCH  27  30
ATOM     30  C   UNL     1       0.112   5.254  -6.374  0.00  0.00    +0.105 A 
ATOM     31  C   UNL     1       0.201   5.926  -5.168  0.00  0.00    +0.032 A 
ATOM     32  C   UNL     1       1.263   6.776  -4.926  0.00  0.00    +0.047 A 
ATOM     33  C   UNL     1       2.241   6.954  -5.894  0.00  0.00    +0.120 A 
ATOM     34  C   UNL     1       2.150   6.279  -7.102  0.00  0.00    +0.047 A 
ATOM     35  C   UNL     1       1.089   5.426  -7.337  0.00  0.00    +0.032 A 
BRANCH  33  36
ATOM     36  O   UNL     1       3.287   7.790  -5.658  0.00  0.00    -0.495 OA
ATOM     37  C   UNL     1       4.256   7.925  -6.699  0.00  0.00    +0.277 C 
ENDBRANCH  33  36
ENDBRANCH  27  30
ENDBRANCH  25  27
ENDBRANCH  24  25
ENDBRANCH  23  24
ENDBRANCH  11  23
TORSDOF 9
