REMARK  Name = ZINC35756885
REMARK  12 active torsions:
REMARK  status: ('A' for Active; 'I' for Inactive)
REMARK    1  A    between atoms: C_1  and  C_2
REMARK    2  A    between atoms: C_7  and  C_8
REMARK    3  A    between atoms: C_8  and  N_9
REMARK    4  A    between atoms: C_10  and  C_31
REMARK    5  A    between atoms: C_12  and  C_17
REMARK    6  A    between atoms: C_20  and  N_23
REMARK    7  A    between atoms: C_24  and  C_26
REMARK    8  A    between atoms: N_33  and  C_34
REMARK    9  A    between atoms: C_34  and  C_35
REMARK   10  A    between atoms: C_35  and  N_36
REMARK   11  A    between atoms: N_36  and  C_37
REMARK   12  A    between atoms: N_36  and  C_38
REMARK                            x       y       z     vdW  Elec       q    Type
REMARK                         _______ _______ _______ _____ _____    ______ ____
ROOT
ATOM      1  N   UNL     1      -1.508   0.555   2.721  0.00  0.00    -0.248 N 
ATOM      2  C   UNL     1      -2.407   1.651   2.308  0.00  0.00    +0.210 C 
ATOM      3  C   UNL     1      -3.646   1.413   3.204  0.00  0.00    +0.238 C 
ATOM      4  O   UNL     1      -3.537   0.008   3.501  0.00  0.00    -0.440 OA
ATOM      5  C   UNL     1      -2.241  -0.338   3.413  0.00  0.00    +0.405 C 
ATOM      6  O   UNL     1      -1.780  -1.347   3.908  0.00  0.00    -0.226 OA
ENDROOT
BRANCH   3   7
ATOM      7  C   UNL     1      -4.918   1.708   2.452  0.00  0.00    -0.005 A 
ATOM      8  C   UNL     1      -5.495   0.731   1.662  0.00  0.00    +0.009 A 
ATOM      9  C   UNL     1      -6.661   0.998   0.971  0.00  0.00    +0.024 A 
ATOM     10  C   UNL     1      -7.255   2.249   1.071  0.00  0.00    +0.034 A 
ATOM     11  C   UNL     1      -6.673   3.229   1.867  0.00  0.00    +0.024 A 
ATOM     12  C   UNL     1      -5.510   2.954   2.558  0.00  0.00    +0.009 A 
BRANCH  10  13
ATOM     13  N   UNL     1      -8.435   2.523   0.373  0.00  0.00    -0.279 N 
ATOM     14  C   UNL     1      -9.340   1.545   0.171  0.00  0.00    +0.284 C 
ATOM     15  O   UNL     1      -9.174   0.449   0.672  0.00  0.00    -0.266 OA
ATOM     16  H   UNL     1      -8.602   3.416   0.035  0.00  0.00    +0.155 HD
BRANCH  14  17
ATOM     17  C   UNL     1     -10.525   1.803  -0.652  0.00  0.00    +0.189 A 
ATOM     18  C   UNL     1     -11.518   0.908  -0.932  0.00  0.00    +0.054 A 
ATOM     19  C   UNL     1     -12.445   1.575  -1.747  0.00  0.00    +0.042 A 
ATOM     20  C   UNL     1     -11.984   2.832  -1.928  0.00  0.00    +0.196 A 
ATOM     21  O   UNL     1     -10.829   2.967  -1.262  0.00  0.00    -0.458 OA
ENDBRANCH  14  17
ENDBRANCH  10  13
ENDBRANCH   3   7
BRANCH   2  22
ATOM     22  C   UNL     1      -2.764   1.532   0.849  0.00  0.00    +0.238 C 
ATOM     23  O   UNL     1      -2.613   0.475   0.273  0.00  0.00    -0.274 OA
ATOM     24  N   UNL     1      -3.250   2.599   0.185  0.00  0.00    -0.315 N 
ATOM     25  H   UNL     1      -3.370   3.443   0.646  0.00  0.00    +0.149 HD
BRANCH  24  26
ATOM     26  C   UNL     1      -3.597   2.482  -1.234  0.00  0.00    +0.085 C 
BRANCH  26  27
ATOM     27  C   UNL     1      -4.121   3.826  -1.743  0.00  0.00    -0.061 C 
BRANCH  27  28
ATOM     28  N   UNL     1      -4.469   3.710  -3.165  0.00  0.00    +0.377 N 
ATOM     29  C   UNL     1      -5.589   2.772  -3.320  0.00  0.00    -0.097 C 
ATOM     30  C   UNL     1      -4.858   5.028  -3.684  0.00  0.00    -0.097 C 
ATOM     31  H   UNL     1      -3.671   3.369  -3.680  0.00  0.00    -0.083 HD
ENDBRANCH  27  28
ENDBRANCH  26  27
ENDBRANCH  24  26
ENDBRANCH   2  22
BRANCH   1  32
ATOM     32  C   UNL     1      -0.077   0.454   2.426  0.00  0.00    +0.147 C 
BRANCH  32  39
ATOM     33  C   UNL     1      -0.198  -2.413   2.091  0.00  0.00    +0.044 C 
ATOM     34  C   UNL     1       0.054  -1.525   0.900  0.00  0.00    -0.046 A 
ATOM     35  C   UNL     1       0.223  -2.082  -0.354  0.00  0.00    +0.003 A 
ATOM     36  C   UNL     1       0.454  -1.268  -1.447  0.00  0.00    +0.000 A 
ATOM     37  C   UNL     1       0.517   0.104  -1.285  0.00  0.00    +0.000 A 
ATOM     38  C   UNL     1       0.348   0.661  -0.032  0.00  0.00    +0.005 A 
ATOM     39  C   UNL     1       0.112  -0.153   1.060  0.00  0.00    -0.027 A 
ENDBRANCH  32  39
ENDBRANCH   1  32
TORSDOF 9
