REMARK  Name = ZINC04452538
REMARK  8 active torsions:
REMARK  status: ('A' for Active; 'I' for Inactive)
REMARK    1  A    between atoms: C_1  and  C_2
REMARK    2  A    between atoms: C_2  and  C_3
REMARK    3  A    between atoms: N_5  and  C_6
REMARK    4  A    between atoms: C_6  and  C_7
REMARK    5  A    between atoms: C_6  and  C_11
REMARK    6  A    between atoms: C_6  and  N_15
REMARK    7  A    between atoms: N_15  and  C_16
REMARK    8  A    between atoms: C_17  and  C_26
REMARK                            x       y       z     vdW  Elec       q    Type
REMARK                         _______ _______ _______ _____ _____    ______ ____
ROOT
ATOM      1  C   UNL     1      -0.846   2.019   1.139  0.00  0.00    +0.293 C 
ENDROOT
BRANCH   1   4
ATOM      2  C   UNL     1      -0.621   0.527   3.052  0.00  0.00    +0.215 C 
ATOM      3  O   UNL     1      -1.809   0.654   3.257  0.00  0.00    -0.276 OA
ATOM      4  N   UNL     1      -0.052   1.127   1.988  0.00  0.00    -0.280 N 
ATOM      5  H   UNL     1       0.883   0.969   1.784  0.00  0.00    +0.151 HD
BRANCH   2   7
ATOM      6  C   UNL     1      -0.663  -0.869   5.101  0.00  0.00    +0.013 C 
ATOM      7  C   UNL     1       0.220  -0.304   3.987  0.00  0.00    +0.092 C 
ENDBRANCH   2   7
ENDBRANCH   1   4
BRANCH   1   8
ATOM      8  C   UNL     1      -1.105   3.332   1.881  0.00  0.00    +0.436 C 
ATOM      9  F   UNL     1      -1.765   4.226   1.031  0.00  0.00    -0.166 F 
ATOM     10  F   UNL     1       0.114   3.888   2.285  0.00  0.00    -0.166 F 
ATOM     11  F   UNL     1      -1.900   3.084   3.005  0.00  0.00    -0.166 F 
ENDBRANCH   1   8
BRANCH   1  12
ATOM     12  C   UNL     1      -0.081   2.307  -0.154  0.00  0.00    +0.436 C 
ATOM     13  F   UNL     1       1.177   2.833   0.155  0.00  0.00    -0.166 F 
ATOM     14  F   UNL     1       0.075   1.119  -0.878  0.00  0.00    -0.166 F 
ATOM     15  F   UNL     1      -0.797   3.230  -0.924  0.00  0.00    -0.166 F 
ENDBRANCH   1  12
BRANCH   1  16
ATOM     16  N   UNL     1      -2.124   1.379   0.819  0.00  0.00    -0.303 N 
ATOM     17  H   UNL     1      -2.950   1.884   0.888  0.00  0.00    +0.149 HD
BRANCH  16  18
ATOM     18  C   UNL     1      -2.154   0.055   0.419  0.00  0.00    +0.086 A 
ATOM     19  C   UNL     1      -3.236  -0.685  -0.033  0.00  0.00    +0.083 A 
ATOM     20  C   UNL     1      -2.999  -2.075  -0.404  0.00  0.00    -0.018 A 
ATOM     21  C   UNL     1      -1.726  -2.497  -0.245  0.00  0.00    -0.004 A 
ATOM     22  S   UNL     1      -0.850  -1.084   0.367  0.00  0.00    -0.077 S 
ATOM     23  C   UNL     1      -1.176  -3.863  -0.511  0.00  0.00    +0.043 C 
ATOM     24  C   UNL     1      -1.631  -4.331  -1.899  0.00  0.00    +0.005 C 
ATOM     25  C   UNL     1      -2.964  -5.058  -1.750  0.00  0.00    +0.001 C 
ATOM     26  C   UNL     1      -3.777  -4.437  -0.616  0.00  0.00    +0.005 C 
ATOM     27  C   UNL     1      -4.104  -2.981  -0.931  0.00  0.00    +0.037 C 
BRANCH  19  28
ATOM     28  C   UNL     1      -4.540  -0.103  -0.135  0.00  0.00    +0.102 C 
ATOM     29  N   UNL     1      -5.575   0.358  -0.216  0.00  0.00    -0.191 NA
ENDBRANCH  19  28
ENDBRANCH  16  18
ENDBRANCH   1  16
TORSDOF 7
