REMARK  Name = ZINC12923455
REMARK  10 active torsions:
REMARK  status: ('A' for Active; 'I' for Inactive)
REMARK    1  A    between atoms: C_4  and  C_7
REMARK    2  A    between atoms: C_7  and  N_8
REMARK    3  A    between atoms: C_9  and  N_38
REMARK    4  A    between atoms: C_10  and  N_17
REMARK    5  A    between atoms: N_17  and  C_18
REMARK    6  A    between atoms: C_18  and  C_19
REMARK    7  A    between atoms: C_25  and  C_27
REMARK    8  A    between atoms: C_27  and  O_28
REMARK    9  A    between atoms: O_28  and  C_29
REMARK   10  A    between atoms: C_32  and  N_35
REMARK                            x       y       z     vdW  Elec       q    Type
REMARK                         _______ _______ _______ _____ _____    ______ ____
ROOT
ATOM      1  N   UNL     1       1.171   3.349  -0.026  0.00  0.00    -0.257 N 
ATOM      2  C   UNL     1       2.325   4.047  -0.069  0.00  0.00    +0.258 C 
ATOM      3  O   UNL     1       3.373   3.474  -0.282  0.00  0.00    -0.271 OA
ENDROOT
BRANCH   1   6
ATOM      4  N   UNL     1       0.671  -0.071  -1.273  0.00  0.00    -0.276 N 
ATOM      5  C   UNL     1       0.633   1.302  -1.208  0.00  0.00    +0.128 A 
ATOM      6  C   UNL     1       1.194   1.941  -0.121  0.00  0.00    +0.140 A 
ATOM      7  C   UNL     1       1.789   1.165   0.890  0.00  0.00    +0.277 A 
ATOM      8  O   UNL     1       2.287   1.703   1.864  0.00  0.00    -0.266 OA
ATOM      9  N   UNL     1       1.799  -0.178   0.779  0.00  0.00    -0.273 N 
ATOM     10  H   UNL     1       2.222  -0.731   1.497  0.00  0.00    +0.173 HD
ATOM     11  C   UNL     1       1.248  -0.784  -0.288  0.00  0.00    +0.331 A 
ATOM     12  O   UNL     1       1.271  -1.997  -0.364  0.00  0.00    -0.246 OA
BRANCH   5  13
ATOM     13  N   UNL     1       0.043   2.029  -2.214  0.00  0.00    -0.343 N 
ATOM     14  H   UNL     1      -0.285   1.581  -3.009  0.00  0.00    +0.144 HD
ATOM     15  H   UNL     1      -0.045   2.992  -2.129  0.00  0.00    +0.144 HD
ENDBRANCH   5  13
BRANCH   4  16
ATOM     16  C   UNL     1       0.079  -0.763  -2.421  0.00  0.00    +0.163 C 
BRANCH  16  20
ATOM     17  C   UNL     1      -4.025  -1.623  -1.605  0.00  0.00    +0.000 A 
ATOM     18  C   UNL     1      -3.676  -0.430  -2.209  0.00  0.00    +0.000 A 
ATOM     19  C   UNL     1      -2.348  -0.151  -2.473  0.00  0.00    +0.005 A 
ATOM     20  C   UNL     1      -1.369  -1.066  -2.133  0.00  0.00    -0.028 A 
ATOM     21  C   UNL     1      -1.718  -2.262  -1.533  0.00  0.00    +0.005 A 
ATOM     22  C   UNL     1      -3.046  -2.538  -1.265  0.00  0.00    +0.000 A 
ENDBRANCH  16  20
ENDBRANCH   4  16
ENDBRANCH   1   6
BRANCH   1  23
ATOM     23  C   UNL     1      -0.106   4.052   0.120  0.00  0.00    +0.149 C 
BRANCH  23  24
ATOM     24  C   UNL     1      -0.503   4.075   1.574  0.00  0.00    -0.030 A 
ATOM     25  C   UNL     1      -1.172   2.998   2.124  0.00  0.00    +0.005 A 
ATOM     26  C   UNL     1      -1.532   3.016   3.459  0.00  0.00    +0.000 A 
ATOM     27  C   UNL     1      -1.233   4.117   4.240  0.00  0.00    +0.000 A 
ATOM     28  C   UNL     1      -0.569   5.197   3.688  0.00  0.00    +0.000 A 
ATOM     29  C   UNL     1      -0.204   5.176   2.355  0.00  0.00    +0.005 A 
ENDBRANCH  23  24
ENDBRANCH   1  23
BRANCH   2  30
ATOM     30  C   UNL     1       2.312   5.538   0.147  0.00  0.00    +0.325 C 
BRANCH  30  31
ATOM     31  O   UNL     1       3.624   6.062  -0.066  0.00  0.00    -0.483 OA
BRANCH  31  32
ATOM     32  C   UNL     1       3.786   7.402   0.090  0.00  0.00    +0.121 A 
ATOM     33  C   UNL     1       2.703   8.198   0.436  0.00  0.00    +0.048 A 
ATOM     34  C   UNL     1       2.872   9.559   0.599  0.00  0.00    +0.036 A 
ATOM     35  C   UNL     1       4.116  10.131   0.407  0.00  0.00    +0.126 A 
ATOM     36  C   UNL     1       5.196   9.341   0.057  0.00  0.00    +0.036 A 
ATOM     37  C   UNL     1       5.033   7.978  -0.102  0.00  0.00    +0.048 A 
BRANCH  35  38
ATOM     38  N   UNL     1       4.292  11.590   0.578  0.00  0.00    +0.056 N 
ATOM     39  O   UNL     1       5.388  12.095   0.409  0.00  0.00    -0.126 OA
ATOM     40  O   UNL     1       3.342  12.287   0.886  0.00  0.00    -0.126 OA
ENDBRANCH  35  38
ENDBRANCH  31  32
ENDBRANCH  30  31
ENDBRANCH   2  30
TORSDOF 10
