REMARK  Name = ZINC64002420
REMARK  8 active torsions:
REMARK  status: ('A' for Active; 'I' for Inactive)
REMARK    1  A    between atoms: C_1  and  C_2
REMARK    2  A    between atoms: C_5  and  O_8
REMARK    3  A    between atoms: O_8  and  C_9
REMARK    4  A    between atoms: C_9  and  C_10
REMARK    5  A    between atoms: N_19  and  C_20
REMARK    6  A    between atoms: C_26  and  C_28
REMARK    7  A    between atoms: C_30  and  C_36
REMARK    8  A    between atoms: C_31  and  C_35
REMARK                            x       y       z     vdW  Elec       q    Type
REMARK                         _______ _______ _______ _____ _____    ______ ____
ROOT
ATOM      1  C   UNL     1       0.215  -5.996   1.389  0.00  0.00    +0.197 C 
ATOM      2  N   UNL     1      -1.004  -6.323   0.640  0.00  0.00    -0.322 N 
ATOM      3  C   UNL     1      -0.607  -6.905  -0.572  0.00  0.00    +0.050 A 
ATOM      4  C   UNL     1      -1.365  -7.390  -1.631  0.00  0.00    +0.025 A 
ATOM      5  C   UNL     1      -0.742  -7.929  -2.740  0.00  0.00    +0.002 A 
ATOM      6  C   UNL     1       0.638  -7.988  -2.801  0.00  0.00    +0.002 A 
ATOM      7  C   UNL     1       1.400  -7.508  -1.753  0.00  0.00    +0.025 A 
ATOM      8  C   UNL     1       0.782  -6.965  -0.633  0.00  0.00    +0.053 A 
ATOM      9  N   UNL     1       1.333  -6.423   0.539  0.00  0.00    -0.304 N 
ATOM     10  H   UNL     1      -1.916  -6.167   0.931  0.00  0.00    +0.148 HD
ENDROOT
BRANCH   9  11
ATOM     11  C   UNL     1       2.759  -6.305   0.855  0.00  0.00    +0.078 C 
ATOM     12  C   UNL     1       3.395  -7.697   0.869  0.00  0.00    +0.041 C 
ATOM     13  C   UNL     1       4.878  -7.573   1.234  0.00  0.00    +0.110 C 
ATOM     14  N   UNL     1       5.515  -6.627   0.308  0.00  0.00    -0.297 N 
ATOM     15  C   UNL     1       4.929  -5.289   0.151  0.00  0.00    +0.110 C 
ATOM     16  C   UNL     1       3.446  -5.439  -0.202  0.00  0.00    +0.041 C 
ATOM     17  C   UNL     1       6.617  -6.980  -0.383  0.00  0.00    +0.252 C 
ATOM     18  O   UNL     1       7.146  -8.056  -0.177  0.00  0.00    -0.270 OA
BRANCH  17  19
ATOM     19  C   UNL     1       7.180  -6.064  -1.387  0.00  0.00    +0.101 A 
ATOM     20  C   UNL     1       7.987  -4.996  -0.999  0.00  0.00    +0.023 A 
ATOM     21  C   UNL     1       8.503  -4.149  -1.979  0.00  0.00    -0.031 A 
ATOM     22  C   UNL     1       8.218  -4.368  -3.288  0.00  0.00    +0.019 A 
ATOM     23  N   UNL     1       7.434  -5.403  -3.672  0.00  0.00    -0.326 N 
ATOM     24  C   UNL     1       6.915  -6.255  -2.768  0.00  0.00    +0.261 A 
ATOM     25  O   UNL     1       6.216  -7.184  -3.134  0.00  0.00    -0.267 OA
ATOM     26  C   UNL     1       8.785  -3.441  -4.333  0.00  0.00    +0.063 C 
ATOM     27  C   UNL     1       9.378  -2.987  -1.584  0.00  0.00    +0.045 C 
ATOM     28  H   UNL     1       7.246  -5.535  -4.615  0.00  0.00    +0.169 HD
ENDBRANCH  17  19
ENDBRANCH   9  11
BRANCH   1  29
ATOM     29  C   UNL     1       0.291  -4.489   1.642  0.00  0.00    +0.271 C 
BRANCH  29  30
ATOM     30  O   UNL     1       0.250  -3.793   0.394  0.00  0.00    -0.488 OA
BRANCH  30  35
ATOM     31  C   UNL     1       0.488   1.830   0.593  0.00  0.00    +0.044 C 
ATOM     32  C   UNL     1       0.425   0.326   0.540  0.00  0.00    -0.050 A 
ATOM     33  C   UNL     1       0.332  -0.319  -0.680  0.00  0.00    +0.007 A 
ATOM     34  C   UNL     1       0.273  -1.698  -0.731  0.00  0.00    +0.046 A 
ATOM     35  C   UNL     1       0.308  -2.437   0.442  0.00  0.00    +0.121 A 
ATOM     36  C   UNL     1       0.402  -1.788   1.665  0.00  0.00    +0.046 A 
ATOM     37  C   UNL     1       0.466  -0.409   1.711  0.00  0.00    +0.007 A 
ENDBRANCH  30  35
ENDBRANCH  29  30
ENDBRANCH   1  29
TORSDOF 5
