REMARK  Name = ZINC04869749
REMARK  7 active torsions:
REMARK  status: ('A' for Active; 'I' for Inactive)
REMARK    1  A    between atoms: C_1  and  C_2
REMARK    2  A    between atoms: C_2  and  C_3
REMARK    3  A    between atoms: C_2  and  C_4
REMARK    4  A    between atoms: C_2  and  C_5
REMARK    5  A    between atoms: C_5  and  C_7
REMARK    6  A    between atoms: C_7  and  C_8
REMARK    7  A    between atoms: C_14  and  N_19
REMARK                            x       y       z     vdW  Elec       q    Type
REMARK                         _______ _______ _______ _____ _____    ______ ____
ROOT
ATOM      1  C   UNL     1       1.598  -2.186  -2.783  0.00  0.00    +0.133 A 
ATOM      2  C   UNL     1       1.881  -3.547  -3.272  0.00  0.00    +0.359 A 
ATOM      3  O   UNL     1       1.960  -4.492  -2.510  0.00  0.00    -0.243 OA
ATOM      4  O   UNL     1       2.050  -3.702  -4.608  0.00  0.00    -0.419 OA
ATOM      5  C   UNL     1       2.676  -2.675  -5.236  0.00  0.00    +0.159 A 
ATOM      6  C   UNL     1       3.360  -2.888  -6.425  0.00  0.00    +0.081 A 
ATOM      7  C   UNL     1       3.975  -1.829  -7.061  0.00  0.00    +0.130 A 
ATOM      8  C   UNL     1       3.915  -0.552  -6.520  0.00  0.00    +0.035 A 
ATOM      9  C   UNL     1       3.254  -0.323  -5.348  0.00  0.00    +0.034 A 
ATOM     10  C   UNL     1       2.628  -1.385  -4.678  0.00  0.00    +0.107 A 
ATOM     11  N   UNL     1       1.996  -1.171  -3.506  0.00  0.00    -0.241 NA
ENDROOT
BRANCH   7  12
ATOM     12  N   UNL     1       4.705  -2.057  -8.328  0.00  0.00    +0.057 N 
ATOM     13  O   UNL     1       4.760  -3.167  -8.803  0.00  0.00    -0.126 OA
ATOM     14  O   UNL     1       5.245  -1.132  -8.889  0.00  0.00    -0.126 OA
ENDBRANCH   7  12
BRANCH   1  15
ATOM     15  C   UNL     1       0.863  -1.968  -1.486  0.00  0.00    +0.137 C 
BRANCH  15  16
ATOM     16  C   UNL     1       0.707  -0.490  -1.238  0.00  0.00    +0.145 C 
ATOM     17  O   UNL     1       1.148   0.305  -2.033  0.00  0.00    -0.296 OA
BRANCH  16  19
ATOM     18  C   UNL     1      -0.019   1.526   0.010  0.00  0.00    +0.018 C 
ATOM     19  C   UNL     1       0.002  -0.004   0.002  0.00  0.00    +0.021 C 
ATOM     20  C   UNL     1       0.742  -0.511   1.242  0.00  0.00    +0.018 C 
ATOM     21  C   UNL     1      -1.433  -0.534   0.013  0.00  0.00    +0.018 C 
ENDBRANCH  16  19
ENDBRANCH  15  16
ENDBRANCH   1  15
TORSDOF 4
