REMARK  Name = ZINC20086006
REMARK  14 active torsions:
REMARK  status: ('A' for Active; 'I' for Inactive)
REMARK    1  A    between atoms: C_1  and  O_2
REMARK    2  A    between atoms: O_2  and  C_3
REMARK    3  A    between atoms: C_5  and  C_13
REMARK    4  A    between atoms: C_7  and  O_11
REMARK    5  A    between atoms: C_8  and  O_9
REMARK    6  A    between atoms: O_9  and  C_10
REMARK    7  A    between atoms: O_11  and  C_12
REMARK    8  A    between atoms: C_18  and  C_26
REMARK    9  A    between atoms: C_28  and  O_36
REMARK   10  A    between atoms: C_29  and  O_34
REMARK   11  A    between atoms: C_30  and  O_32
REMARK   12  A    between atoms: O_32  and  C_33
REMARK   13  A    between atoms: O_34  and  C_35
REMARK   14  A    between atoms: O_36  and  C_37
REMARK                            x       y       z     vdW  Elec       q    Type
REMARK                         _______ _______ _______ _____ _____    ______ ____
ROOT
ATOM      1  C   UNL     1      -4.871   0.264   0.038  0.00  0.00    +0.032 C 
ATOM      2  C   UNL     1      -5.708  -0.077  -1.196  0.00  0.00    +0.060 C 
ATOM      3  C   UNL     1      -7.003   0.699  -1.163  0.00  0.00    +0.020 C 
ATOM      4  C   UNL     1      -7.583   1.030   0.010  0.00  0.00    +0.041 C 
ATOM      5  C   UNL     1      -8.879   1.808   0.076  0.00  0.00    +0.176 C 
ATOM      6  N   UNL     1      -9.515   1.829  -1.235  0.00  0.00    -0.221 N 
ATOM      7  C   UNL     1      -8.880   1.471  -2.379  0.00  0.00    +0.218 A 
ATOM      8  N   UNL     1      -9.721   1.609  -3.367  0.00  0.00    -0.201 NA
ATOM      9  C   UNL     1     -10.895   2.043  -2.898  0.00  0.00    +0.247 A 
ATOM     10  N   UNL     1     -10.812   2.190  -1.598  0.00  0.00    -0.156 NA
ATOM     11  N   UNL     1      -7.562   1.044  -2.370  0.00  0.00    -0.287 N 
ATOM     12  C   UNL     1      -6.995   0.664   1.235  0.00  0.00    +0.164 C 
ATOM     13  O   UNL     1      -7.554   0.957   2.274  0.00  0.00    -0.292 OA
ATOM     14  C   UNL     1      -5.691  -0.081   1.287  0.00  0.00    +0.088 C 
ATOM     15  H   UNL     1      -7.050   0.990  -3.192  0.00  0.00    +0.155 HD
ENDROOT
BRANCH   1  18
ATOM     16  C   UNL     1      -1.201  -0.638   0.010  0.00  0.00    +0.165 A 
ATOM     17  C   UNL     1      -2.375   0.101   0.019  0.00  0.00    +0.053 A 
ATOM     18  C   UNL     1      -3.598  -0.543   0.028  0.00  0.00    -0.036 A 
ATOM     19  C   UNL     1      -3.657  -1.924   0.027  0.00  0.00    +0.053 A 
ATOM     20  C   UNL     1      -2.488  -2.670   0.017  0.00  0.00    +0.165 A 
ATOM     21  C   UNL     1      -1.256  -2.027   0.003  0.00  0.00    +0.204 A 
BRANCH  16  23
ATOM     22  C   UNL     1      -0.017   1.425   0.010  0.00  0.00    +0.277 C 
ATOM     23  O   UNL     1       0.002  -0.004   0.002  0.00  0.00    -0.491 OA
ENDBRANCH  16  23
BRANCH  21  24
ATOM     24  O   UNL     1      -0.106  -2.755  -0.012  0.00  0.00    -0.488 OA
ATOM     25  C   UNL     1       0.454  -3.109   1.254  0.00  0.00    +0.277 C 
ENDBRANCH  21  24
BRANCH  20  26
ATOM     26  O   UNL     1      -2.547  -4.028   0.017  0.00  0.00    -0.491 OA
ATOM     27  C   UNL     1      -3.847  -4.621   0.026  0.00  0.00    +0.277 C 
ENDBRANCH  20  26
ENDBRANCH   1  18
BRANCH   5  28
ATOM     28  C   UNL     1      -8.592   3.222   0.512  0.00  0.00    -0.011 A 
ATOM     29  C   UNL     1      -7.763   4.023  -0.250  0.00  0.00    +0.055 A 
ATOM     30  C   UNL     1      -7.496   5.325   0.148  0.00  0.00    +0.166 A 
ATOM     31  C   UNL     1      -8.064   5.823   1.314  0.00  0.00    +0.204 A 
ATOM     32  C   UNL     1      -8.899   5.014   2.077  0.00  0.00    +0.166 A 
ATOM     33  C   UNL     1      -9.165   3.716   1.669  0.00  0.00    +0.055 A 
BRANCH  32  34
ATOM     34  O   UNL     1      -9.458   5.497   3.219  0.00  0.00    -0.491 OA
ATOM     35  C   UNL     1     -10.305   4.610   3.952  0.00  0.00    +0.277 C 
ENDBRANCH  32  34
BRANCH  31  36
ATOM     36  O   UNL     1      -7.805   7.099   1.709  0.00  0.00    -0.488 OA
ATOM     37  C   UNL     1      -8.686   8.118   1.231  0.00  0.00    +0.277 C 
ENDBRANCH  31  36
BRANCH  30  38
ATOM     38  O   UNL     1      -6.678   6.112  -0.601  0.00  0.00    -0.491 OA
ATOM     39  C   UNL     1      -6.129   5.533  -1.787  0.00  0.00    +0.277 C 
ENDBRANCH  30  38
ENDBRANCH   5  28
TORSDOF 8
