REMARK  Name = ZINC31053390
REMARK  9 active torsions:
REMARK  status: ('A' for Active; 'I' for Inactive)
REMARK    1  A    between atoms: C_1  and  C_2
REMARK    2  A    between atoms: C_5  and  C_9
REMARK    3  A    between atoms: C_6  and  C_8
REMARK    4  A    between atoms: C_9  and  C_11
REMARK    5  A    between atoms: C_9  and  N_12
REMARK    6  A    between atoms: C_13  and  C_15
REMARK    7  A    between atoms: N_20  and  C_22
REMARK    8  A    between atoms: C_22  and  C_23
REMARK    9  A    between atoms: C_25  and  C_28
REMARK                            x       y       z     vdW  Elec       q    Type
REMARK                         _______ _______ _______ _____ _____    ______ ____
ROOT
ATOM      1  C   UNL     1       0.795   2.461  -1.504  0.00  0.00    +0.058 C 
ATOM      2  C   UNL     1       1.814   1.909  -0.503  0.00  0.00    +0.009 C 
ATOM      3  C   UNL     1       3.163   2.598  -0.728  0.00  0.00    -0.018 C 
ATOM      4  C   UNL     1       3.612   2.370  -2.173  0.00  0.00    -0.078 C 
ATOM      5  N   UNL     1       2.605   2.916  -3.091  0.00  0.00    +0.386 N 
ATOM      6  C   UNL     1       1.312   2.238  -2.927  0.00  0.00    -0.065 C 
ATOM      7  H   UNL     1       2.461   3.977  -2.839  0.00  0.00    -0.081 HD
ENDROOT
BRANCH   1   9
ATOM      8  N   UNL     1      -1.168   1.806  -0.149  0.00  0.00    -0.309 N 
ATOM      9  C   UNL     1      -0.520   1.746  -1.329  0.00  0.00    +0.215 C 
ATOM     10  O   UNL     1      -0.998   1.121  -2.252  0.00  0.00    -0.276 OA
ATOM     11  H   UNL     1      -0.734   2.373   0.688  0.00  0.00    +0.149 HD
BRANCH   8  12
ATOM     12  C   UNL     1      -2.449   1.117   0.020  0.00  0.00    +0.100 C 
ATOM     13  C   UNL     1      -2.658   0.782   1.498  0.00  0.00    +0.033 C 
BRANCH  12  18
ATOM     14  C   UNL     1      -6.733   4.540  -1.805  0.00  0.00    +0.044 C 
ATOM     15  C   UNL     1      -5.615   3.647  -1.329  0.00  0.00    -0.050 A 
ATOM     16  C   UNL     1      -4.405   4.197  -0.950  0.00  0.00    +0.004 A 
ATOM     17  C   UNL     1      -3.381   3.378  -0.513  0.00  0.00    +0.006 A 
ATOM     18  C   UNL     1      -3.566   2.010  -0.456  0.00  0.00    -0.025 A 
ATOM     19  C   UNL     1      -4.774   1.459  -0.841  0.00  0.00    -0.045 A 
ATOM     20  C   UNL     1      -5.801   2.279  -1.273  0.00  0.00    +0.007 A 
ATOM     21  C   UNL     1      -4.975  -0.033  -0.785  0.00  0.00    +0.044 C 
ENDBRANCH  12  18
ENDBRANCH   8  12
ENDBRANCH   1   9
BRANCH   5  22
ATOM     22  C   UNL     1       3.066   2.839  -4.484  0.00  0.00    +0.022 C 
BRANCH  22  23
ATOM     23  C   UNL     1       3.182   1.394  -4.896  0.00  0.00    +0.211 A 
ATOM     24  N   UNL     1       2.241   0.663  -5.441  0.00  0.00    -0.193 NA
ATOM     25  C   UNL     1       2.796  -0.555  -5.636  0.00  0.00    +0.202 A 
ATOM     26  N   UNL     1       4.027  -0.492  -5.202  0.00  0.00    -0.056 NA
ATOM     27  O   UNL     1       4.265   0.620  -4.780  0.00  0.00    -0.340 OA
BRANCH  25  28
ATOM     28  C   UNL     1       2.130  -1.741  -6.231  0.00  0.00    +0.024 A 
ATOM     29  C   UNL     1       2.829  -2.938  -6.370  0.00  0.00    +0.012 A 
ATOM     30  C   UNL     1       2.206  -4.038  -6.924  0.00  0.00    +0.002 A 
ATOM     31  C   UNL     1       0.890  -3.954  -7.340  0.00  0.00    +0.020 A 
ATOM     32  C   UNL     1       0.190  -2.768  -7.204  0.00  0.00    +0.042 A 
ATOM     33  C   UNL     1       0.803  -1.662  -6.646  0.00  0.00    +0.031 A 
ATOM     34 CL   UNL     1      -1.462  -2.671  -7.729  0.00  0.00    -0.084 Cl
ENDBRANCH  25  28
ENDBRANCH  22  23
ENDBRANCH   5  22
TORSDOF 6
