REMARK  Name = ZINC48669330
REMARK  13 active torsions:
REMARK  status: ('A' for Active; 'I' for Inactive)
REMARK    1  A    between atoms: C_1  and  C_2
REMARK    2  A    between atoms: C_2  and  N_3
REMARK    3  A    between atoms: N_3  and  C_4
REMARK    4  A    between atoms: N_3  and  C_6
REMARK    5  A    between atoms: C_4  and  C_5
REMARK    6  A    between atoms: C_6  and  C_7
REMARK    7  A    between atoms: C_7  and  C_8
REMARK    8  A    between atoms: C_8  and  N_9
REMARK    9  A    between atoms: C_10  and  C_12
REMARK   10  A    between atoms: N_14  and  C_15
REMARK   11  A    between atoms: C_17  and  S_22
REMARK   12  A    between atoms: C_20  and  C_21
REMARK   13  A    between atoms: S_22  and  C_25
REMARK                            x       y       z     vdW  Elec       q    Type
REMARK                         _______ _______ _______ _____ _____    ______ ____
ROOT
ATOM      1  C   UNL     1      -4.570  -5.154  -2.133  0.00  0.00    +0.303 C 
ATOM      2  O   UNL     1      -5.376  -4.256  -2.000  0.00  0.00    -0.265 OA
ATOM      3  N   UNL     1      -4.995  -6.416  -2.338  0.00  0.00    -0.277 N 
ATOM      4  H   UNL     1      -4.354  -7.143  -2.378  0.00  0.00    +0.155 HD
ENDROOT
BRANCH   3   5
ATOM      5  C   UNL     1      -6.359  -6.677  -2.492  0.00  0.00    +0.039 A 
ATOM      6  C   UNL     1      -7.300  -5.828  -1.923  0.00  0.00    +0.050 A 
ATOM      7  C   UNL     1      -8.647  -6.089  -2.077  0.00  0.00    +0.090 A 
ATOM      8  C   UNL     1      -9.060  -7.194  -2.798  0.00  0.00    +0.027 A 
ATOM      9  C   UNL     1      -8.127  -8.042  -3.366  0.00  0.00    +0.007 A 
ATOM     10  C   UNL     1      -6.778  -7.784  -3.220  0.00  0.00    -0.029 A 
ATOM     11  C   UNL     1      -5.761  -8.704  -3.846  0.00  0.00    +0.045 C 
BRANCH   7  12
ATOM     12  S   UNL     1      -9.840  -5.013  -1.355  0.00  0.00    -0.006 S 
ATOM     13  O   UNL     1     -10.988  -5.827  -1.154  0.00  0.00    -0.170 OA
ATOM     14  O   UNL     1      -9.171  -4.418  -0.251  0.00  0.00    -0.170 OA
ATOM     15  C   UNL     1     -10.175  -3.765  -2.629  0.00  0.00    +0.200 C 
ENDBRANCH   7  12
ENDBRANCH   3   5
BRANCH   1  17
ATOM     16  N   UNL     1      -2.682  -3.597  -1.864  0.00  0.00    -0.308 N 
ATOM     17  C   UNL     1      -3.107  -4.860  -2.069  0.00  0.00    +0.299 C 
ATOM     18  O   UNL     1      -2.301  -5.758  -2.201  0.00  0.00    -0.265 OA
ATOM     19  H   UNL     1      -3.325  -2.880  -1.758  0.00  0.00    +0.149 HD
BRANCH  16  20
ATOM     20  C   UNL     1      -1.246  -3.309  -1.801  0.00  0.00    +0.103 C 
BRANCH  20  21
ATOM     21  C   UNL     1      -1.037  -1.812  -1.561  0.00  0.00    +0.000 C 
BRANCH  21  22
ATOM     22  C   UNL     1       0.462  -1.511  -1.496  0.00  0.00    -0.077 C 
BRANCH  22  23
ATOM     23  N   UNL     1       0.663  -0.074  -1.266  0.00  0.00    +0.379 N 
ATOM     24  H   UNL     1       0.178   0.451  -1.977  0.00  0.00    -0.082 HD
BRANCH  23  26
ATOM     25  C   UNL     1       0.216   1.806   0.239  0.00  0.00    -0.017 C 
ATOM     26  C   UNL     1       0.135   0.288   0.056  0.00  0.00    -0.082 C 
ENDBRANCH  23  26
BRANCH  23  27
ATOM     27  C   UNL     1       2.098   0.234  -1.322  0.00  0.00    -0.082 C 
ATOM     28  C   UNL     1       2.617  -0.009  -2.740  0.00  0.00    -0.017 C 
ENDBRANCH  23  27
ENDBRANCH  22  23
ENDBRANCH  21  22
ENDBRANCH  20  21
ENDBRANCH  16  20
ENDBRANCH   1  17
TORSDOF 9
