REMARK  Name = ZINC12280500
REMARK  10 active torsions:
REMARK  status: ('A' for Active; 'I' for Inactive)
REMARK    1  A    between atoms: C_1  and  C_2
REMARK    2  A    between atoms: C_2  and  C_3
REMARK    3  A    between atoms: C_3  and  C_20
REMARK    4  A    between atoms: N_6  and  C_10
REMARK    5  A    between atoms: C_10  and  C_11
REMARK    6  A    between atoms: C_25  and  C_26
REMARK    7  A    between atoms: C_25  and  N_68
REMARK    8  A    between atoms: C_31  and  O_32
REMARK    9  A    between atoms: O_32  and  C_33
REMARK   10  A    between atoms: C_33  and  C_34
REMARK                            x       y       z     vdW  Elec       q    Type
REMARK                         _______ _______ _______ _____ _____    ______ ____
ROOT
ATOM      1  C   UNL     1      -6.735  -0.255   1.833  0.00  0.00    +0.115 C 
ATOM      2  C   UNL     1      -8.060   0.434   2.092  0.00  0.00    +0.247 C 
ATOM      3  O   UNL     1      -8.551   1.342   1.455  0.00  0.00    -0.273 OA
ATOM      4  N   UNL     1      -8.580  -0.172   3.178  0.00  0.00    -0.220 N 
ATOM      5  C   UNL     1      -7.776  -1.138   3.636  0.00  0.00    +0.310 C 
ATOM      6  O   UNL     1      -8.029  -1.825   4.606  0.00  0.00    -0.252 OA
ATOM      7  N   UNL     1      -6.652  -1.266   2.901  0.00  0.00    -0.285 N 
ATOM      8  H   UNL     1      -5.931  -1.898   3.045  0.00  0.00    +0.151 HD
ENDROOT
BRANCH   1   9
ATOM      9  C   UNL     1      -5.579   0.742   1.944  0.00  0.00    +0.018 C 
ATOM     10  C   UNL     1      -5.600   1.397   3.328  0.00  0.00    -0.013 C 
ATOM     11  C   UNL     1      -4.407   2.347   3.455  0.00  0.00    -0.078 C 
ATOM     12  C   UNL     1      -3.096   0.997   1.929  0.00  0.00    -0.078 C 
ATOM     13  C   UNL     1      -4.250   0.006   1.756  0.00  0.00    -0.013 C 
ATOM     14  N   UNL     1      -3.158   1.573   3.289  0.00  0.00    +0.382 N 
ATOM     15  H   UNL     1      -3.145   0.810   3.975  0.00  0.00    -0.081 HD
BRANCH  14  16
ATOM     16  C   UNL     1      -1.989   2.447   3.520  0.00  0.00    -0.039 C 
BRANCH  16  17
ATOM     17  C   UNL     1      -0.747   1.594   3.561  0.00  0.00    -0.022 A 
ATOM     18  C   UNL     1      -0.203   1.222   4.776  0.00  0.00    +0.005 A 
ATOM     19  C   UNL     1       0.936   0.440   4.814  0.00  0.00    +0.000 A 
ATOM     20  C   UNL     1       1.534   0.027   3.637  0.00  0.00    +0.004 A 
ATOM     21  C   UNL     1       0.991   0.392   2.421  0.00  0.00    +0.046 A 
ATOM     22  C   UNL     1      -0.149   1.182   2.380  0.00  0.00    +0.122 A 
BRANCH  22  23
ATOM     23  O   UNL     1      -0.682   1.547   1.184  0.00  0.00    -0.492 OA
BRANCH  23  24
ATOM     24  C   UNL     1      -0.013   1.086   0.008  0.00  0.00    +0.225 C 
ATOM     25  C   UNL     1      -0.753   1.593  -1.232  0.00  0.00    +0.048 C 
ENDBRANCH  23  24
ENDBRANCH  22  23
ENDBRANCH  16  17
ENDBRANCH  14  16
ENDBRANCH   1   9
BRANCH   1  27
ATOM     26  C   UNL     1      -7.900  -1.913   0.372  0.00  0.00    +0.006 C 
ATOM     27  C   UNL     1      -6.736  -0.923   0.457  0.00  0.00    +0.032 C 
ENDBRANCH   1  27
BRANCH   4  28
ATOM     28  C   UNL     1      -9.867   0.183   3.781  0.00  0.00    +0.153 C 
BRANCH  28  29
ATOM     29  C   UNL     1     -10.961  -0.638   3.150  0.00  0.00    -0.026 A 
ATOM     30  C   UNL     1     -11.306  -1.862   3.692  0.00  0.00    +0.009 A 
ATOM     31  C   UNL     1     -12.309  -2.619   3.116  0.00  0.00    +0.050 A 
ATOM     32  C   UNL     1     -12.973  -2.151   1.994  0.00  0.00    +0.166 A 
ATOM     33  C   UNL     1     -12.626  -0.918   1.447  0.00  0.00    +0.167 A 
ATOM     34  C   UNL     1     -11.622  -0.163   2.033  0.00  0.00    +0.054 A 
ATOM     35  O   UNL     1     -13.416  -0.685   0.359  0.00  0.00    -0.453 OA
ATOM     36  C   UNL     1     -13.968  -1.966   0.003  0.00  0.00    +0.466 C 
ATOM     37  O   UNL     1     -13.981  -2.691   1.248  0.00  0.00    -0.453 OA
ENDBRANCH  28  29
ENDBRANCH   4  28
TORSDOF 8
