REMARK  Name = ZINC20905249
REMARK  6 active torsions:
REMARK  status: ('A' for Active; 'I' for Inactive)
REMARK    1  A    between atoms: C_10  and  C_11
REMARK    2  A    between atoms: N_12  and  N_13
REMARK    3  A    between atoms: C_16  and  S_19
REMARK    4  A    between atoms: S_19  and  C_20
REMARK    5  A    between atoms: C_20  and  C_21
REMARK    6  A    between atoms: N_23  and  C_24
REMARK                            x       y       z     vdW  Elec       q    Type
REMARK                         _______ _______ _______ _____ _____    ______ ____
ROOT
ATOM      1  N   UNL     1       2.718  -1.006   2.098  0.00  0.00    -0.205 N 
ATOM      2  C   UNL     1       2.112   0.190   1.743  0.00  0.00    +0.232 A 
ATOM      3  N   UNL     1       0.890   0.630   2.169  0.00  0.00    -0.186 NA
ATOM      4  C   UNL     1       0.656   1.847   1.595  0.00  0.00    +0.211 A 
ATOM      5  N   UNL     1       1.690   2.148   0.846  0.00  0.00    -0.144 NA
ATOM      6  N   UNL     1       2.612   1.098   0.940  0.00  0.00    -0.245 N 
ATOM      7  H   UNL     1       2.207  -1.699   2.784  0.00  0.00    +0.177 HD
ATOM      8  H   UNL     1       3.599   0.942   0.480  0.00  0.00    +0.192 HD
ENDROOT
BRANCH   1  10
ATOM      9  C   UNL     1       4.547  -2.454   1.918  0.00  0.00    +0.139 C 
ATOM     10  N   UNL     1       3.979  -1.333   1.585  0.00  0.00    -0.188 NA
BRANCH   9  20
ATOM     11  C   UNL     1       7.790  -0.368  -1.508  0.00  0.00    +0.001 A 
ATOM     12  C   UNL     1       6.535  -0.010  -1.021  0.00  0.00    +0.001 A 
ATOM     13  C   UNL     1       5.899  -0.778  -0.091  0.00  0.00    +0.009 A 
ATOM     14  C   UNL     1       6.515  -1.943   0.382  0.00  0.00    -0.009 A 
ATOM     15  C   UNL     1       7.791  -2.310  -0.111  0.00  0.00    -0.017 A 
ATOM     16  C   UNL     1       8.417  -1.494  -1.069  0.00  0.00    +0.008 A 
ATOM     17  C   UNL     1       8.405  -3.480   0.366  0.00  0.00    +0.008 A 
ATOM     18  C   UNL     1       7.787  -4.261   1.293  0.00  0.00    +0.001 A 
ATOM     19  C   UNL     1       6.540  -3.937   1.810  0.00  0.00    +0.010 A 
ATOM     20  C   UNL     1       5.871  -2.797   1.378  0.00  0.00    +0.002 A 
ENDBRANCH   9  20
ENDBRANCH   1  10
BRANCH   4  21
ATOM     21  S   UNL     1      -0.785   2.837   1.817  0.00  0.00    -0.075 S 
BRANCH  21  22
ATOM     22  C   UNL     1      -0.361   4.249   0.768  0.00  0.00    +0.173 C 
BRANCH  22  23
ATOM     23  C   UNL     1      -1.482   5.256   0.804  0.00  0.00    +0.228 C 
ATOM     24  O   UNL     1      -2.470   5.040   1.472  0.00  0.00    -0.275 OA
ATOM     25  N   UNL     1      -1.386   6.397   0.092  0.00  0.00    -0.282 N 
ATOM     26  H   UNL     1      -0.532   6.554  -0.582  0.00  0.00    +0.155 HD
BRANCH  25  27
ATOM     27  C   UNL     1      -2.374   7.382   0.213  0.00  0.00    +0.070 A 
ATOM     28  C   UNL     1      -3.716   7.039   0.103  0.00  0.00    +0.064 A 
ATOM     29  C   UNL     1      -4.689   8.014   0.227  0.00  0.00    +0.022 A 
ATOM     30  C   UNL     1      -4.327   9.330   0.449  0.00  0.00    +0.003 A 
ATOM     31  C   UNL     1      -2.992   9.675   0.553  0.00  0.00    +0.022 A 
ATOM     32  C   UNL     1      -2.014   8.705   0.436  0.00  0.00    +0.064 A 
ATOM     33 CL   UNL     1      -0.339   9.140   0.566  0.00  0.00    -0.082 Cl
ATOM     34 CL   UNL     1      -4.171   5.388  -0.182  0.00  0.00    -0.082 Cl
ENDBRANCH  25  27
ENDBRANCH  22  23
ENDBRANCH  21  22
ENDBRANCH   4  21
TORSDOF 6
