REMARK  Name = ZINC52288493
REMARK  4 active torsions:
REMARK  status: ('A' for Active; 'I' for Inactive)
REMARK    1  A    between atoms: C_1  and  C_2
REMARK    2  A    between atoms: C_5  and  N_7
REMARK    3  A    between atoms: C_8  and  C_10
REMARK    4  A    between atoms: C_14  and  N_16
REMARK                            x       y       z     vdW  Elec       q    Type
REMARK                         _______ _______ _______ _____ _____    ______ ____
ROOT
ATOM      1  C   UNL     1       3.149  -3.606   1.377  0.00  0.00    +0.039 A 
ATOM      2  C   UNL     1       2.784  -4.382   0.275  0.00  0.00    +0.014 A 
ATOM      3  C   UNL     1       3.460  -5.553   0.006  0.00  0.00    +0.018 A 
ATOM      4  C   UNL     1       4.499  -5.960   0.826  0.00  0.00    +0.048 A 
ATOM      5  C   UNL     1       4.865  -5.196   1.921  0.00  0.00    +0.141 A 
ATOM      6  C   UNL     1       4.200  -4.019   2.197  0.00  0.00    +0.047 A 
ATOM      7 BR   UNL     1       5.421  -7.568   0.450  0.00  0.00    -0.048 Br
ENDROOT
BRANCH   1   9
ATOM      8  N   UNL     1       1.414  -1.953   0.877  0.00  0.00    -0.308 N 
ATOM      9  C   UNL     1       2.429  -2.349   1.670  0.00  0.00    +0.244 C 
ATOM     10  O   UNL     1       2.751  -1.673   2.627  0.00  0.00    -0.270 OA
ATOM     11  H   UNL     1       1.156  -2.493   0.113  0.00  0.00    +0.149 HD
BRANCH   8  15
ATOM     12  C   UNL     1      -0.019   1.526   0.010  0.00  0.00    +0.009 C 
ATOM     13  C   UNL     1       0.002  -0.004   0.002  0.00  0.00    +0.008 C 
ATOM     14  C   UNL     1      -0.828  -0.728   1.065  0.00  0.00    +0.027 C 
ATOM     15  C   UNL     1       0.700  -0.708   1.168  0.00  0.00    +0.076 C 
ENDBRANCH   8  15
ENDBRANCH   1   9
BRANCH   5  16
ATOM     16  N   UNL     1       5.976  -5.639   2.793  0.00  0.00    +0.058 N 
ATOM     17  O   UNL     1       6.296  -4.972   3.749  0.00  0.00    -0.126 OA
ATOM     18  O   UNL     1       6.562  -6.667   2.550  0.00  0.00    -0.126 OA
ENDBRANCH   5  16
TORSDOF 3
