REMARK  Name = ZINC20583291
REMARK  8 active torsions:
REMARK  status: ('A' for Active; 'I' for Inactive)
REMARK    1  A    between atoms: C_1  and  C_2
REMARK    2  A    between atoms: C_2  and  C_3
REMARK    3  A    between atoms: C_3  and  C_4
REMARK    4  A    between atoms: C_10  and  C_14
REMARK    5  A    between atoms: C_14  and  S_15
REMARK    6  A    between atoms: S_15  and  C_16
REMARK    7  A    between atoms: C_21  and  N_22
REMARK    8  A    between atoms: C_23  and  C_25
REMARK                            x       y       z     vdW  Elec       q    Type
REMARK                         _______ _______ _______ _____ _____    ______ ____
ROOT
ATOM      1  C   UNL     1       5.774  -4.450  -7.120  0.00  0.00    +0.029 A 
ATOM      2  C   UNL     1       5.034  -4.533  -8.291  0.00  0.00    +0.016 A 
ATOM      3  C   UNL     1       5.501  -5.285  -9.352  0.00  0.00    +0.001 A 
ATOM      4  C   UNL     1       6.701  -5.964  -9.248  0.00  0.00    +0.002 A 
ATOM      5  C   UNL     1       7.443  -5.892  -8.084  0.00  0.00    +0.024 A 
ATOM      6  C   UNL     1       6.984  -5.136  -7.015  0.00  0.00    +0.047 A 
ENDROOT
BRANCH   6   7
ATOM      7  N   UNL     1       7.735  -5.061  -5.835  0.00  0.00    -0.281 N 
ATOM      8  C   UNL     1       9.066  -5.268  -5.868  0.00  0.00    +0.248 C 
ATOM      9  O   UNL     1       9.631  -5.420  -6.934  0.00  0.00    -0.270 OA
ATOM     10  H   UNL     1       7.237  -4.834  -4.880  0.00  0.00    +0.155 HD
BRANCH   8  11
ATOM     11  C   UNL     1       9.838  -5.310  -4.611  0.00  0.00    +0.041 A 
ATOM     12  C   UNL     1       9.191  -5.130  -3.385  0.00  0.00    +0.017 A 
ATOM     13  C   UNL     1       9.912  -5.176  -2.212  0.00  0.00    +0.050 A 
ATOM     14  C   UNL     1      11.284  -5.388  -2.243  0.00  0.00    +0.166 A 
ATOM     15  C   UNL     1      11.937  -5.562  -3.464  0.00  0.00    +0.167 A 
ATOM     16  C   UNL     1      11.218  -5.524  -4.643  0.00  0.00    +0.062 A 
ATOM     17  O   UNL     1      13.268  -5.751  -3.223  0.00  0.00    -0.453 OA
ATOM     18  C   UNL     1      13.484  -5.284  -1.879  0.00  0.00    +0.466 C 
ATOM     19  O   UNL     1      12.206  -5.468  -1.242  0.00  0.00    -0.453 OA
ENDBRANCH   8  11
ENDBRANCH   6   7
BRANCH   1  20
ATOM     20  S   UNL     1       5.183  -3.488  -5.767  0.00  0.00    -0.117 S 
BRANCH  20  21
ATOM     21  C   UNL     1       3.613  -2.806  -6.366  0.00  0.00    +0.130 C 
BRANCH  21  28
ATOM     22  C   UNL     1       0.702  -0.475  -1.262  0.00  0.00    +0.102 A 
ATOM     23  N   UNL     1       1.233   0.212  -2.227  0.00  0.00    -0.159 NA
ATOM     24  N   UNL     1       1.853  -0.407  -3.309  0.00  0.00    -0.171 N 
ATOM     25  C   UNL     1       2.444   0.200  -4.380  0.00  0.00    +0.275 A 
ATOM     26  O   UNL     1       2.466   1.418  -4.457  0.00  0.00    -0.266 OA
ATOM     27  C   UNL     1       3.023  -0.575  -5.385  0.00  0.00    +0.096 A 
ATOM     28  C   UNL     1       2.994  -1.950  -5.291  0.00  0.00    +0.059 A 
ATOM     29  N   UNL     1       2.410  -2.509  -4.234  0.00  0.00    -0.225 NA
ATOM     30  C   UNL     1       1.869  -1.775  -3.295  0.00  0.00    +0.199 A 
ATOM     31  S   UNL     1       1.028  -2.154  -1.773  0.00  0.00    -0.033 S 
BRANCH  22  32
ATOM     32  C   UNL     1      -0.003   0.019  -0.024  0.00  0.00    +0.064 C 
BRANCH  32  34
ATOM     33  C   UNL     1      -0.743   2.050   1.229  0.00  0.00    +0.004 C 
ATOM     34  C   UNL     1      -0.028   1.549  -0.027  0.00  0.00    +0.003 C 
ENDBRANCH  32  34
ENDBRANCH  22  32
ENDBRANCH  21  28
ENDBRANCH  20  21
ENDBRANCH   1  20
TORSDOF 7
