REMARK  Name = ZINC20831366
REMARK  8 active torsions:
REMARK  status: ('A' for Active; 'I' for Inactive)
REMARK    1  A    between atoms: C_4  and  N_7
REMARK    2  A    between atoms: C_8  and  C_28
REMARK    3  A    between atoms: C_11  and  S_12
REMARK    4  A    between atoms: S_12  and  C_13
REMARK    5  A    between atoms: C_13  and  C_14
REMARK    6  A    between atoms: N_16  and  C_17
REMARK    7  A    between atoms: C_28  and  N_29
REMARK    8  A    between atoms: N_29  and  C_30
REMARK                            x       y       z     vdW  Elec       q    Type
REMARK                         _______ _______ _______ _____ _____    ______ ____
ROOT
ATOM      1  N   UNL     1       7.304   7.517   1.872  0.00  0.00    -0.273 N 
ATOM      2  C   UNL     1       7.877   7.636   3.110  0.00  0.00    +0.156 A 
ATOM      3  N   UNL     1       7.472   6.624   3.824  0.00  0.00    -0.132 NA
ATOM      4  N   UNL     1       6.684   5.881   3.132  0.00  0.00    -0.122 NA
ATOM      5  C   UNL     1       6.541   6.382   1.927  0.00  0.00    +0.197 A 
ENDROOT
BRANCH   1   9
ATOM      6  C   UNL     1       7.777  10.081  -1.381  0.00  0.00    +0.000 A 
ATOM      7  C   UNL     1       6.539   9.953  -0.777  0.00  0.00    +0.002 A 
ATOM      8  C   UNL     1       6.380   9.104   0.301  0.00  0.00    +0.026 A 
ATOM      9  C   UNL     1       7.463   8.379   0.778  0.00  0.00    +0.050 A 
ATOM     10  C   UNL     1       8.705   8.514   0.174  0.00  0.00    +0.026 A 
ATOM     11  C   UNL     1       8.858   9.360  -0.908  0.00  0.00    +0.002 A 
ENDBRANCH   1   9
BRANCH   5  12
ATOM     12  S   UNL     1       5.559   5.716   0.624  0.00  0.00    -0.076 S 
BRANCH  12  13
ATOM     13  C   UNL     1       4.890   4.253   1.452  0.00  0.00    +0.173 C 
BRANCH  13  14
ATOM     14  C   UNL     1       3.993   3.503   0.501  0.00  0.00    +0.224 C 
ATOM     15  O   UNL     1       3.822   3.918  -0.626  0.00  0.00    -0.275 OA
ATOM     16  N   UNL     1       3.379   2.373   0.903  0.00  0.00    -0.308 N 
ATOM     17  H   UNL     1       3.533   1.996   1.925  0.00  0.00    +0.149 HD
BRANCH  16  18
ATOM     18  C   UNL     1       2.507   1.644  -0.022  0.00  0.00    +0.103 C 
ATOM     19  C   UNL     1       2.446   0.176   0.394  0.00  0.00    +0.027 C 
ATOM     20  C   UNL     1       1.368  -0.520  -0.446  0.00  0.00    +0.007 C 
ATOM     21  C   UNL     1       0.002  -0.004   0.002  0.00  0.00    +0.035 C 
ATOM     22  C   UNL     1      -0.018   1.502   0.010  0.00  0.00    -0.042 A 
ATOM     23  C   UNL     1       1.132   2.259   0.003  0.00  0.00    -0.024 A 
ATOM     24  C   UNL     1       1.043   3.645   0.018  0.00  0.00    +0.006 A 
ATOM     25  C   UNL     1      -0.187   4.269   0.034  0.00  0.00    +0.000 A 
ATOM     26  C   UNL     1      -1.342   3.509   0.037  0.00  0.00    +0.000 A 
ATOM     27  C   UNL     1      -1.256   2.132   0.032  0.00  0.00    +0.004 A 
ENDBRANCH  16  18
ENDBRANCH  13  14
ENDBRANCH  12  13
ENDBRANCH   5  12
BRANCH   2  28
ATOM     28  C   UNL     1       8.809   8.731   3.562  0.00  0.00    +0.178 C 
BRANCH  28  29
ATOM     29  N   UNL     1      10.193   8.346   3.271  0.00  0.00    -0.337 N 
ATOM     30  H   UNL     1      10.405   7.378   2.793  0.00  0.00    +0.147 HD
BRANCH  29  31
ATOM     31  C   UNL     1      11.242   9.207   3.602  0.00  0.00    +0.028 A 
ATOM     32  C   UNL     1      10.974  10.432   4.201  0.00  0.00    +0.024 A 
ATOM     33  C   UNL     1      12.014  11.278   4.532  0.00  0.00    +0.022 A 
ATOM     34  C   UNL     1      13.320  10.913   4.257  0.00  0.00    +0.041 A 
ATOM     35  C   UNL     1      13.589   9.697   3.655  0.00  0.00    +0.022 A 
ATOM     36  C   UNL     1      12.554   8.843   3.328  0.00  0.00    +0.024 A 
ATOM     37 CL   UNL     1      14.623  11.984   4.668  0.00  0.00    -0.084 Cl
ENDBRANCH  29  31
ENDBRANCH  28  29
ENDBRANCH   2  28
TORSDOF 8
