REMARK  Name = ZINC49716581
REMARK  4 active torsions:
REMARK  status: ('A' for Active; 'I' for Inactive)
REMARK    1  A    between atoms: N_9  and  C_10
REMARK    2  A    between atoms: C_10  and  C_11
REMARK    3  A    between atoms: C_11  and  C_12
REMARK    4  A    between atoms: C_12  and  C_13
REMARK                            x       y       z     vdW  Elec       q    Type
REMARK                         _______ _______ _______ _____ _____    ______ ____
ROOT
ATOM      1  C   UNL     1       0.242   1.687  -0.198  0.00  0.00    -0.000 C 
ATOM      2  C   UNL     1       1.762   1.956  -0.090  0.00  0.00    -0.015 C 
ATOM      3  C   UNL     1       2.405   0.537  -0.030  0.00  0.00    -0.068 C 
ATOM      4  C   UNL     1       1.427  -0.269  -0.955  0.00  0.00    -0.014 C 
ATOM      5  C   UNL     1       0.127   0.131  -0.169  0.00  0.00    -0.029 C 
ATOM      6  C   UNL     1       0.571  -0.253   1.277  0.00  0.00    -0.075 C 
ATOM      7  N   UNL     1       2.046   0.016   1.325  0.00  0.00    +0.382 N 
ATOM      8  H   UNL     1       2.547  -0.840   1.510  0.00  0.00    -0.081 HD
ENDROOT
BRANCH   7   9
ATOM      9  C   UNL     1       2.363   1.019   2.350  0.00  0.00    -0.078 C 
BRANCH   9  10
ATOM     10  C   UNL     1       2.159   0.411   3.739  0.00  0.00    -0.018 C 
BRANCH  10  11
ATOM     11  C   UNL     1       2.490   1.455   4.807  0.00  0.00    +0.009 C 
BRANCH  11  12
ATOM     12  C   UNL     1       2.286   0.847   6.196  0.00  0.00    +0.080 C 
ATOM     13 BR   UNL     1       2.711   2.190   7.568  0.00  0.00    -0.092 Br
ENDBRANCH  11  12
ENDBRANCH  10  11
ENDBRANCH   9  10
ENDBRANCH   7   9
TORSDOF 4
