REMARK  Name = ZINC13065453
REMARK  10 active torsions:
REMARK  status: ('A' for Active; 'I' for Inactive)
REMARK    1  A    between atoms: C_1  and  C_2
REMARK    2  A    between atoms: C_4  and  C_36
REMARK    3  A    between atoms: C_9  and  C_14
REMARK    4  A    between atoms: C_14  and  N_64
REMARK    5  A    between atoms: C_15  and  C_16
REMARK    6  A    between atoms: C_15  and  N_64
REMARK    7  A    between atoms: C_23  and  C_24
REMARK    8  A    between atoms: C_23  and  N_64
REMARK    9  A    between atoms: N_28  and  C_29
REMARK   10  A    between atoms: C_29  and  C_30
REMARK                            x       y       z     vdW  Elec       q    Type
REMARK                         _______ _______ _______ _____ _____    ______ ____
ROOT
ATOM      1  N   UNL     1      -1.420   2.569   1.693  0.00  0.00    +0.390 N 
ATOM      2  H   UNL     1      -0.628   2.882   2.266  0.00  0.00    -0.080 HD
ENDROOT
BRANCH   1   3
ATOM      3  C   UNL     1      -2.538   3.522   1.858  0.00  0.00    -0.036 C 
BRANCH   3  12
ATOM      4  C   UNL     1      -1.582   7.194   8.278  0.00  0.00    +0.044 C 
ATOM      5  C   UNL     1      -2.197   6.069   7.487  0.00  0.00    -0.050 A 
ATOM      6  C   UNL     1      -3.041   5.165   8.118  0.00  0.00    +0.008 A 
ATOM      7  C   UNL     1      -3.615   4.129   7.414  0.00  0.00    -0.026 A 
ATOM      8  C   UNL     1      -3.348   3.985   6.056  0.00  0.00    +0.052 A 
ATOM      9  C   UNL     1      -2.493   4.904   5.420  0.00  0.00    -0.001 A 
ATOM     10  C   UNL     1      -1.921   5.948   6.155  0.00  0.00    +0.013 A 
ATOM     11  C   UNL     1      -2.218   4.745   3.990  0.00  0.00    +0.017 A 
ATOM     12  C   UNL     1      -2.800   3.714   3.330  0.00  0.00    +0.001 A 
ATOM     13  C   UNL     1      -3.655   2.824   4.014  0.00  0.00    +0.251 A 
ATOM     14  O   UNL     1      -4.172   1.907   3.400  0.00  0.00    -0.268 OA
ATOM     15  N   UNL     1      -3.909   2.958   5.327  0.00  0.00    -0.322 N 
ATOM     16  H   UNL     1      -4.498   2.326   5.768  0.00  0.00    +0.169 HD
ATOM     17  C   UNL     1      -4.529   3.155   8.112  0.00  0.00    +0.046 C 
ENDBRANCH   3  12
ENDBRANCH   1   3
BRANCH   1  18
ATOM     18  C   UNL     1      -1.834   1.223   2.139  0.00  0.00    -0.040 C 
BRANCH  18  19
ATOM     19  C   UNL     1      -0.630   0.317   2.133  0.00  0.00    -0.046 A 
ATOM     20  C   UNL     1      -0.495  -0.647   1.151  0.00  0.00    +0.003 A 
ATOM     21  C   UNL     1       0.612  -1.475   1.142  0.00  0.00    +0.000 A 
ATOM     22  C   UNL     1       1.579  -1.347   2.122  0.00  0.00    +0.001 A 
ATOM     23  C   UNL     1       1.443  -0.388   3.107  0.00  0.00    +0.020 A 
ATOM     24  C   UNL     1       0.338   0.445   3.114  0.00  0.00    +0.042 A 
ATOM     25 CL   UNL     1       0.166   1.650   4.351  0.00  0.00    -0.083 Cl
ENDBRANCH  18  19
ENDBRANCH   1  18
BRANCH   1  26
ATOM     26  C   UNL     1      -1.000   2.525   0.277  0.00  0.00    +0.001 C 
BRANCH  26  27
ATOM     27  C   UNL     1      -0.217   3.774  -0.035  0.00  0.00    +0.135 A 
ATOM     28  N   UNL     1      -0.682   4.876  -0.571  0.00  0.00    -0.115 NA
ATOM     29  N   UNL     1       0.295   5.708  -0.681  0.00  0.00    -0.023 NA
ATOM     30  N   UNL     1       1.372   5.166  -0.230  0.00  0.00    -0.044 NA
ATOM     31  N   UNL     1       1.097   3.973   0.177  0.00  0.00    -0.229 N 
BRANCH  31  32
ATOM     32  C   UNL     1       2.039   3.015   0.762  0.00  0.00    +0.178 C 
BRANCH  32  33
ATOM     33  C   UNL     1       2.757   2.258  -0.358  0.00  0.00    +0.140 C 
ATOM     34  C   UNL     1       3.666   1.167   0.247  0.00  0.00    +0.035 C 
ATOM     35  C   UNL     1       4.921   1.240  -0.665  0.00  0.00    +0.031 C 
ATOM     36  C   UNL     1       4.967   2.757  -0.980  0.00  0.00    +0.160 C 
ATOM     37  O   UNL     1       3.592   3.158  -1.095  0.00  0.00    -0.375 OA
ENDBRANCH  32  33
ENDBRANCH  31  32
ENDBRANCH  26  27
ENDBRANCH   1  26
TORSDOF 8
