REMARK  Name = ZINC36581241
REMARK  19 active torsions:
REMARK  status: ('A' for Active; 'I' for Inactive)
REMARK    1  A    between atoms: C_1  and  C_2
REMARK    2  A    between atoms: C_7  and  C_8
REMARK    3  A    between atoms: C_8  and  C_9
REMARK    4  A    between atoms: N_11  and  C_12
REMARK    5  A    between atoms: N_11  and  C_35
REMARK    6  A    between atoms: C_12  and  C_14
REMARK    7  A    between atoms: C_12  and  C_24
REMARK    8  A    between atoms: C_16  and  N_21
REMARK    9  A    between atoms: N_26  and  C_27
REMARK   10  A    between atoms: C_27  and  C_28
REMARK   11  A    between atoms: C_27  and  C_29
REMARK   12  A    between atoms: C_27  and  C_30
REMARK   13  A    between atoms: C_30  and  C_31
REMARK   14  A    between atoms: C_31  and  C_32
REMARK   15  A    between atoms: C_31  and  C_33
REMARK   16  A    between atoms: C_31  and  C_34
REMARK   17  A    between atoms: C_35  and  C_36
REMARK   18  A    between atoms: C_35  and  C_37
REMARK   19  A    between atoms: C_35  and  C_38
REMARK                            x       y       z     vdW  Elec       q    Type
REMARK                         _______ _______ _______ _____ _____    ______ ____
ROOT
ATOM      1  C   UNL     1      -4.044   1.621   5.191  0.00  0.00    +0.194 C 
ENDROOT
BRANCH   1   2
ATOM      2  C   UNL     1      -3.900   1.678   6.690  0.00  0.00    +0.002 A 
ATOM      3  C   UNL     1      -2.715   2.113   7.254  0.00  0.00    +0.040 A 
ATOM      4  C   UNL     1      -2.582   2.165   8.629  0.00  0.00    +0.127 A 
ATOM      5  C   UNL     1      -3.634   1.781   9.440  0.00  0.00    +0.034 A 
ATOM      6  C   UNL     1      -4.818   1.346   8.877  0.00  0.00    +0.022 A 
ATOM      7  C   UNL     1      -4.954   1.299   7.501  0.00  0.00    +0.047 A 
ATOM      8 CL   UNL     1      -6.444   0.760   6.793  0.00  0.00    -0.083 Cl
BRANCH   4   9
ATOM      9  N   UNL     1      -1.314   2.631   9.232  0.00  0.00    +0.056 N 
ATOM     10  O   UNL     1      -0.431   3.062   8.527  0.00  0.00    -0.126 OA
ATOM     11  O   UNL     1      -1.160   2.580  10.430  0.00  0.00    -0.126 OA
ENDBRANCH   4   9
ENDBRANCH   1   2
BRANCH   1  12
ATOM     12  C   UNL     1      -4.507   2.961   4.679  0.00  0.00    +0.239 C 
ATOM     13  O   UNL     1      -3.861   3.544   3.835  0.00  0.00    -0.273 OA
ATOM     14  N   UNL     1      -5.639   3.511   5.161  0.00  0.00    -0.308 N 
ATOM     15  H   UNL     1      -6.122   3.076   5.882  0.00  0.00    +0.149 HD
BRANCH  14  16
ATOM     16  C   UNL     1      -6.142   4.766   4.596  0.00  0.00    +0.030 C 
ATOM     17  C   UNL     1      -5.136   5.886   4.869  0.00  0.00    +0.031 C 
ATOM     18  C   UNL     1      -6.331   4.606   3.087  0.00  0.00    +0.031 C 
BRANCH  16  19
ATOM     19  C   UNL     1      -7.483   5.116   5.244  0.00  0.00    +0.031 C 
BRANCH  19  20
ATOM     20  C   UNL     1      -8.537   4.092   4.819  0.00  0.00    -0.036 C 
ATOM     21  C   UNL     1      -7.924   2.691   4.839  0.00  0.00    +0.010 C 
ATOM     22  C   UNL     1      -9.720   4.146   5.788  0.00  0.00    +0.010 C 
ATOM     23  C   UNL     1      -9.022   4.417   3.405  0.00  0.00    +0.010 C 
ENDBRANCH  19  20
ENDBRANCH  16  19
ENDBRANCH  14  16
ENDBRANCH   1  12
BRANCH   1  26
ATOM     24  C   UNL     1      -1.755   2.197   4.586  0.00  0.00    +0.221 C 
ATOM     25  O   UNL     1      -1.932   3.292   5.076  0.00  0.00    -0.275 OA
ATOM     26  N   UNL     1      -2.751   1.289   4.588  0.00  0.00    -0.281 N 
BRANCH  26  27
ATOM     27  C   UNL     1      -2.541  -0.031   3.986  0.00  0.00    +0.030 C 
ATOM     28  C   UNL     1      -1.605  -0.853   4.875  0.00  0.00    +0.031 C 
ATOM     29  C   UNL     1      -3.884  -0.751   3.855  0.00  0.00    +0.031 C 
ATOM     30  C   UNL     1      -1.913   0.135   2.601  0.00  0.00    +0.031 C 
ENDBRANCH  26  27
BRANCH  24  31
ATOM     31  C   UNL     1      -0.421   1.851   3.975  0.00  0.00    +0.131 C 
BRANCH  31  38
ATOM     32  C   UNL     1       1.232   1.371   6.295  0.00  0.00    +0.044 C 
ATOM     33  C   UNL     1       1.394   2.643   5.505  0.00  0.00    -0.047 A 
ATOM     34  C   UNL     1       2.338   3.578   5.886  0.00  0.00    +0.003 A 
ATOM     35  C   UNL     1       2.487   4.746   5.161  0.00  0.00    +0.000 A 
ATOM     36  C   UNL     1       1.693   4.978   4.054  0.00  0.00    +0.000 A 
ATOM     37  C   UNL     1       0.750   4.043   3.672  0.00  0.00    +0.004 A 
ATOM     38  C   UNL     1       0.603   2.873   4.394  0.00  0.00    -0.036 A 
ENDBRANCH  31  38
ENDBRANCH  24  31
ENDBRANCH   1  26
TORSDOF 10
