REMARK  Name = ZINC01434622
REMARK  11 active torsions:
REMARK  status: ('A' for Active; 'I' for Inactive)
REMARK    1  A    between atoms: C_1  and  C_2
REMARK    2  A    between atoms: C_3  and  C_32
REMARK    3  A    between atoms: C_4  and  C_23
REMARK    4  A    between atoms: C_10  and  C_15
REMARK    5  A    between atoms: C_20  and  O_21
REMARK    6  A    between atoms: O_21  and  C_22
REMARK    7  A    between atoms: C_27  and  N_29
REMARK    8  A    between atoms: C_32  and  O_34
REMARK    9  A    between atoms: O_34  and  C_35
REMARK   10  A    between atoms: C_35  and  C_36
REMARK   11  A    between atoms: C_35  and  C_37
REMARK                            x       y       z     vdW  Elec       q    Type
REMARK                         _______ _______ _______ _____ _____    ______ ____
ROOT
ATOM      1  C   UNL     1      -3.606   8.213   5.017  0.00  0.00    +0.061 C 
ATOM      2  C   UNL     1      -3.875   6.785   4.619  0.00  0.00    +0.016 C 
ATOM      3  C   UNL     1      -5.130   6.305   4.661  0.00  0.00    +0.065 C 
ATOM      4  C   UNL     1      -5.436   4.891   4.263  0.00  0.00    +0.092 C 
ATOM      5  C   UNL     1      -4.186   4.047   4.258  0.00  0.00    +0.024 C 
ATOM      6  C   UNL     1      -2.966   4.623   4.234  0.00  0.00    +0.016 C 
ATOM      7  N   UNL     1      -2.841   5.986   4.217  0.00  0.00    -0.321 N 
ATOM      8  C   UNL     1      -1.711   3.785   4.231  0.00  0.00    +0.060 C 
ATOM      9  C   UNL     1      -1.982   2.457   3.520  0.00  0.00    +0.035 C 
ATOM     10  C   UNL     1      -3.129   1.741   4.240  0.00  0.00    +0.088 C 
ATOM     11  C   UNL     1      -4.329   2.648   4.274  0.00  0.00    +0.162 C 
ATOM     12  O   UNL     1      -5.442   2.162   4.311  0.00  0.00    -0.292 OA
ATOM     13  H   UNL     1      -1.898   6.437   3.876  0.00  0.00    +0.152 HD
ENDROOT
BRANCH   9  14
ATOM     14  C   UNL     1      -0.744   1.599   3.561  0.00  0.00    -0.002 A 
ATOM     15  C   UNL     1      -0.204   1.222   4.776  0.00  0.00    +0.007 A 
ATOM     16  C   UNL     1       0.935   0.440   4.814  0.00  0.00    +0.001 A 
ATOM     17  C   UNL     1       1.534   0.028   3.637  0.00  0.00    +0.004 A 
ATOM     18  C   UNL     1       0.994   0.397   2.421  0.00  0.00    +0.046 A 
ATOM     19  C   UNL     1      -0.149   1.182   2.380  0.00  0.00    +0.124 A 
BRANCH  19  20
ATOM     20  O   UNL     1      -0.682   1.547   1.184  0.00  0.00    -0.495 OA
ATOM     21  C   UNL     1      -0.013   1.086   0.008  0.00  0.00    +0.277 C 
ENDBRANCH  19  20
ENDBRANCH   9  14
BRANCH   4  22
ATOM     22  C   UNL     1      -6.041   4.885   2.882  0.00  0.00    -0.033 A 
ATOM     23  C   UNL     1      -5.326   5.391   1.812  0.00  0.00    +0.005 A 
ATOM     24  C   UNL     1      -5.881   5.386   0.546  0.00  0.00    +0.003 A 
ATOM     25  C   UNL     1      -7.151   4.875   0.350  0.00  0.00    +0.033 A 
ATOM     26  C   UNL     1      -7.865   4.370   1.420  0.00  0.00    +0.126 A 
ATOM     27  C   UNL     1      -7.308   4.370   2.685  0.00  0.00    +0.037 A 
BRANCH  26  28
ATOM     28  N   UNL     1      -9.225   3.823   1.210  0.00  0.00    +0.056 N 
ATOM     29  O   UNL     1      -9.714   3.819   0.094  0.00  0.00    -0.126 OA
ATOM     30  O   UNL     1      -9.855   3.378   2.153  0.00  0.00    -0.126 OA
ENDBRANCH  26  28
ENDBRANCH   4  22
BRANCH   3  31
ATOM     31  C   UNL     1      -6.181   7.149   5.088  0.00  0.00    +0.338 C 
ATOM     32  O   UNL     1      -5.946   8.297   5.413  0.00  0.00    -0.245 OA
BRANCH  31  33
ATOM     33  O   UNL     1      -7.446   6.680   5.135  0.00  0.00    -0.459 OA
BRANCH  33  34
ATOM     34  C   UNL     1      -8.458   7.587   5.576  0.00  0.00    +0.171 C 
ATOM     35  C   UNL     1      -9.787   7.234   4.905  0.00  0.00    +0.052 C 
ATOM     36  C   UNL     1      -8.610   7.482   7.095  0.00  0.00    +0.052 C 
ENDBRANCH  33  34
ENDBRANCH  31  33
ENDBRANCH   3  31
TORSDOF 7
