REMARK  Name = ZINC45343369
REMARK  5 active torsions:
REMARK  status: ('A' for Active; 'I' for Inactive)
REMARK    1  A    between atoms: C_6  and  N_7
REMARK    2  A    between atoms: N_12  and  C_15
REMARK    3  A    between atoms: C_15  and  N_16
REMARK    4  A    between atoms: N_19  and  C_22
REMARK    5  A    between atoms: C_22  and  C_23
REMARK                            x       y       z     vdW  Elec       q    Type
REMARK                         _______ _______ _______ _____ _____    ______ ____
ROOT
ATOM      1  C   UNL     1      -0.017   1.378   0.010  0.00  0.00    +0.033 A 
ATOM      2  C   UNL     1       1.169   2.097   0.002  0.00  0.00    +0.016 A 
ATOM      3  C   UNL     1       2.380   1.424  -0.013  0.00  0.00    +0.050 A 
ATOM      4  C   UNL     1       2.399   0.015  -0.021  0.00  0.00    +0.052 A 
ATOM      5  C   UNL     1       1.207  -0.691  -0.012  0.00  0.00    +0.046 A 
ATOM      6  C   UNL     1       0.002  -0.004   0.002  0.00  0.00    +0.127 A 
ATOM      7  C   UNL     1       3.826  -0.370  -0.037  0.00  0.00    +0.255 C 
ATOM      8  O   UNL     1       4.253  -1.507  -0.048  0.00  0.00    -0.269 OA
ATOM      9  N   UNL     1       4.572   0.749  -0.039  0.00  0.00    -0.220 N 
ATOM     10  C   UNL     1       3.796   1.848  -0.025  0.00  0.00    +0.255 C 
ATOM     11  O   UNL     1       4.192   2.996  -0.023  0.00  0.00    -0.269 OA
ENDROOT
BRANCH   6  12
ATOM     12  N   UNL     1      -1.273  -0.756   0.010  0.00  0.00    +0.056 N 
ATOM     13  O   UNL     1      -2.325  -0.162   0.023  0.00  0.00    -0.126 OA
ATOM     14  O   UNL     1      -1.261  -1.965   0.004  0.00  0.00    -0.126 OA
ENDBRANCH   6  12
BRANCH   9  15
ATOM     15  C   UNL     1       6.037   0.769  -0.053  0.00  0.00    +0.204 C 
BRANCH  15  16
ATOM     16  N   UNL     1       6.513   0.783  -1.443  0.00  0.00    -0.284 NA
ATOM     17  C   UNL     1       6.503  -0.570  -2.016  0.00  0.00    +0.101 C 
ATOM     18  C   UNL     1       6.929  -0.502  -3.485  0.00  0.00    +0.100 C 
ATOM     19  N   UNL     1       8.268   0.097  -3.577  0.00  0.00    -0.295 NA
ATOM     20  C   UNL     1       8.277   1.450  -3.003  0.00  0.00    +0.100 C 
ATOM     21  C   UNL     1       7.852   1.381  -1.535  0.00  0.00    +0.101 C 
BRANCH  19  22
ATOM     22  C   UNL     1       8.744   0.110  -4.966  0.00  0.00    +0.127 C 
BRANCH  22  23
ATOM     23  C   UNL     1      10.200   0.498  -4.995  0.00  0.00    +0.005 A 
ATOM     24  C   UNL     1      11.296  -0.297  -4.933  0.00  0.00    +0.014 A 
ATOM     25  C   UNL     1      12.549   0.285  -4.977  0.00  0.00    +0.028 A 
ATOM     26  C   UNL     1      12.645   1.634  -5.079  0.00  0.00    +0.078 A 
ATOM     27  S   UNL     1      10.928   2.123  -5.126  0.00  0.00    -0.080 S 
ATOM     28 CL   UNL     1      14.066   2.627  -5.153  0.00  0.00    -0.076 Cl
ENDBRANCH  22  23
ENDBRANCH  19  22
ENDBRANCH  15  16
ENDBRANCH   9  15
TORSDOF 5
