REMARK  Name = ZINC13423859
REMARK  16 active torsions:
REMARK  status: ('A' for Active; 'I' for Inactive)
REMARK    1  A    between atoms: C_1  and  C_2
REMARK    2  A    between atoms: C_2  and  C_4
REMARK    3  A    between atoms: C_2  and  C_10
REMARK    4  A    between atoms: C_4  and  C_5
REMARK    5  A    between atoms: C_5  and  C_6
REMARK    6  A    between atoms: C_6  and  C_7
REMARK    7  A    between atoms: C_7  and  C_8
REMARK    8  A    between atoms: C_7  and  C_9
REMARK    9  A    between atoms: C_16  and  C_43
REMARK   10  A    between atoms: C_24  and  O_39
REMARK   11  A    between atoms: C_26  and  O_38
REMARK   12  A    between atoms: C_27  and  C_37
REMARK   13  A    between atoms: C_31  and  N_33
REMARK   14  A    between atoms: C_34  and  C_36
REMARK   15  A    between atoms: O_39  and  C_40
REMARK   16  A    between atoms: C_40  and  C_42
REMARK                            x       y       z     vdW  Elec       q    Type
REMARK                         _______ _______ _______ _____ _____    ______ ____
ROOT
ATOM      1  C   UNL     1      -0.003   0.059  -0.481  0.00  0.00    -0.002 C 
ATOM      2  C   UNL     1      -0.615   0.326  -1.881  0.00  0.00    +0.004 C 
ATOM      3  C   UNL     1      -0.929  -1.069  -2.492  0.00  0.00    +0.004 C 
ATOM      4  C   UNL     1      -1.121  -1.929  -1.230  0.00  0.00    -0.001 C 
ATOM      5  C   UNL     1       0.082  -1.464  -0.373  0.00  0.00    -0.026 C 
ATOM      6  C   UNL     1      -0.052  -2.084   0.996  0.00  0.00    +0.007 C 
ATOM      7  C   UNL     1      -0.028  -3.613   0.868  0.00  0.00    +0.005 C 
ATOM      8  C   UNL     1      -1.068  -4.160  -0.106  0.00  0.00    +0.001 C 
ATOM      9  C   UNL     1      -1.054  -3.420  -1.434  0.00  0.00    -0.000 C 
ATOM     10  C   UNL     1      -2.174  -3.893  -2.360  0.00  0.00    +0.051 C 
ATOM     11  C   UNL     1      -3.512  -3.780  -1.633  0.00  0.00    +0.210 C 
ATOM     12  C   UNL     1      -3.503  -4.747  -0.440  0.00  0.00    +0.126 C 
ATOM     13  C   UNL     1      -2.431  -4.330   0.557  0.00  0.00    +0.005 C 
ATOM     14  C   UNL     1      -2.826  -3.071   1.319  0.00  0.00    +0.010 C 
ATOM     15  C   UNL     1      -4.202  -3.222   1.967  0.00  0.00    +0.003 C 
ATOM     16  C   UNL     1      -5.248  -3.501   0.890  0.00  0.00    +0.025 C 
ATOM     17  C   UNL     1      -4.910  -4.785   0.144  0.00  0.00    +0.109 C 
ATOM     18  C   UNL     1      -2.265  -5.477   1.583  0.00  0.00    +0.014 C 
ATOM     19  C   UNL     1       1.413  -1.896  -1.003  0.00  0.00    +0.012 C 
ENDROOT
BRANCH  17  20
ATOM     20  N   UNL     1      -5.130  -5.955   0.990  0.00  0.00    -0.310 N 
ATOM     21  C   UNL     1      -5.693  -7.064   0.473  0.00  0.00    +0.210 C 
ATOM     22  O   UNL     1      -6.018  -7.092  -0.695  0.00  0.00    -0.276 OA
ATOM     23  C   UNL     1      -5.920  -8.271   1.346  0.00  0.00    +0.109 C 
ATOM     24  H   UNL     1      -4.870  -5.933   1.924  0.00  0.00    +0.149 HD
ENDBRANCH  17  20
BRANCH   1  26
ATOM     25  C   UNL     1      -2.344   0.253   0.361  0.00  0.00    +0.008 C 
ATOM     26  C   UNL     1      -0.889   0.656   0.609  0.00  0.00    -0.010 C 
BRANCH  26  27
ATOM     27  C   UNL     1      -0.771   2.182   0.583  0.00  0.00    +0.003 C 
BRANCH  27  28
ATOM     28  C   UNL     1      -1.615   2.777   1.711  0.00  0.00    +0.001 C 
BRANCH  28  29
ATOM     29  C   UNL     1      -1.497   4.303   1.685  0.00  0.00    +0.003 C 
BRANCH  29  30
ATOM     30  C   UNL     1      -2.341   4.899   2.814  0.00  0.00    -0.017 C 
ATOM     31  C   UNL     1      -1.762   4.471   4.164  0.00  0.00    +0.007 C 
ATOM     32  C   UNL     1      -2.323   6.425   2.712  0.00  0.00    +0.007 C 
ENDBRANCH  29  30
ENDBRANCH  28  29
ENDBRANCH  27  28
ENDBRANCH  26  27
ENDBRANCH   1  26
BRANCH  12  33
ATOM     33  O   UNL     1      -3.182  -6.061  -0.932  0.00  0.00    -0.383 OA
ATOM     34  H   UNL     1      -3.809  -6.400  -1.585  0.00  0.00    +0.210 HD
ENDBRANCH  12  33
BRANCH  11  35
ATOM     35  O   UNL     1      -4.567  -4.132  -2.530  0.00  0.00    -0.459 OA
BRANCH  35  36
ATOM     36  C   UNL     1      -5.106  -3.139  -3.255  0.00  0.00    +0.304 C 
ATOM     37  O   UNL     1      -4.696  -2.009  -3.132  0.00  0.00    -0.251 OA
ATOM     38  C   UNL     1      -6.223  -3.434  -4.222  0.00  0.00    +0.136 C 
ENDBRANCH  35  36
ENDBRANCH  11  35
TORSDOF 9
