REMARK  Name = ZINC22644724
REMARK  7 active torsions:
REMARK  status: ('A' for Active; 'I' for Inactive)
REMARK    1  A    between atoms: C_1  and  C_2
REMARK    2  A    between atoms: C_2  and  C_4
REMARK    3  A    between atoms: C_2  and  S_16
REMARK    4  A    between atoms: N_6  and  C_7
REMARK    5  A    between atoms: C_12  and  C_13
REMARK    6  A    between atoms: C_13  and  C_15
REMARK    7  A    between atoms: S_16  and  C_17
REMARK                            x       y       z     vdW  Elec       q    Type
REMARK                         _______ _______ _______ _____ _____    ______ ____
ROOT
ATOM      1  S   UNL     1       3.547   8.164  -1.888  0.00  0.00    -0.073 S 
ENDROOT
BRANCH   1   2
ATOM      2  C   UNL     1       2.698   6.707  -1.377  0.00  0.00    +0.192 A 
ATOM      3  N   UNL     1       1.373   6.720  -1.365  0.00  0.00    -0.207 NA
ATOM      4  C   UNL     1       0.625   5.682  -1.000  0.00  0.00    +0.129 A 
ATOM      5  C   UNL     1       1.334   4.509  -0.607  0.00  0.00    +0.051 A 
ATOM      6  C   UNL     1       0.762   3.246  -0.167  0.00  0.00    -0.025 A 
ATOM      7  C   UNL     1       1.634   2.266   0.159  0.00  0.00    -0.004 A 
ATOM      8  S   UNL     1       3.244   2.967  -0.101  0.00  0.00    -0.073 S 
ATOM      9  C   UNL     1       2.749   4.571  -0.645  0.00  0.00    +0.115 A 
ATOM     10  N   UNL     1       3.419   5.642  -1.020  0.00  0.00    -0.214 NA
ATOM     11  C   UNL     1       1.309   0.884   0.635  0.00  0.00    +0.043 C 
ATOM     12  C   UNL     1      -0.167   0.849   1.058  0.00  0.00    +0.005 C 
ATOM     13  C   UNL     1      -1.007   1.504  -0.042  0.00  0.00    +0.005 C 
ATOM     14  C   UNL     1      -0.743   3.009  -0.069  0.00  0.00    +0.037 C 
ATOM     15  N   UNL     1      -0.757   5.737  -1.002  0.00  0.00    -0.343 N 
ATOM     16  H   UNL     1      -1.343   4.859  -0.694  0.00  0.00    +0.144 HD
ATOM     17  H   UNL     1      -1.270   6.659  -1.313  0.00  0.00    +0.144 HD
ENDBRANCH   1   2
BRANCH   1  19
ATOM     18  C   UNL     1       1.342   8.674  -3.418  0.00  0.00    +0.029 C 
ATOM     19  C   UNL     1       2.137   9.243  -2.241  0.00  0.00    +0.137 C 
BRANCH  19  20
ATOM     20  C   UNL     1       2.634  10.622  -2.590  0.00  0.00    +0.230 C 
ATOM     21  O   UNL     1       3.751  10.768  -3.039  0.00  0.00    -0.274 OA
ATOM     22  N   UNL     1       1.838  11.693  -2.402  0.00  0.00    -0.284 N 
ATOM     23  H   UNL     1       0.801  11.554  -2.060  0.00  0.00    +0.155 HD
BRANCH  22  24
ATOM     24  C   UNL     1       2.327  12.973  -2.640  0.00  0.00    +0.044 A 
ATOM     25  C   UNL     1       3.227  13.196  -3.674  0.00  0.00    +0.024 A 
ATOM     26  C   UNL     1       3.706  14.468  -3.912  0.00  0.00    +0.002 A 
ATOM     27  C   UNL     1       3.304  15.531  -3.118  0.00  0.00    +0.001 A 
ATOM     28  C   UNL     1       2.417  15.331  -2.084  0.00  0.00    +0.013 A 
ATOM     29  C   UNL     1       1.916  14.048  -1.832  0.00  0.00    +0.038 A 
BRANCH  29  30
ATOM     30  C   UNL     1       0.970  13.827  -0.732  0.00  0.00    +0.162 C 
ATOM     31  O   UNL     1       0.616  12.700  -0.455  0.00  0.00    -0.292 OA
ATOM     32  C   UNL     1       0.440  14.998   0.053  0.00  0.00    +0.091 C 
ENDBRANCH  29  30
ENDBRANCH  22  24
ENDBRANCH  19  20
ENDBRANCH   1  19
TORSDOF 5
