REMARK  Name = ZINC15902365
REMARK  11 active torsions:
REMARK  status: ('A' for Active; 'I' for Inactive)
REMARK    1  A    between atoms: C_1  and  C_2
REMARK    2  A    between atoms: C_7  and  C_8
REMARK    3  A    between atoms: N_10  and  C_11
REMARK    4  A    between atoms: C_11  and  C_13
REMARK    5  A    between atoms: C_11  and  C_17
REMARK    6  A    between atoms: C_13  and  C_14
REMARK    7  A    between atoms: C_14  and  C_15
REMARK    8  A    between atoms: C_14  and  C_16
REMARK    9  A    between atoms: N_19  and  N_20
REMARK   10  A    between atoms: C_21  and  C_23
REMARK   11  A    between atoms: C_23  and  C_24
REMARK                            x       y       z     vdW  Elec       q    Type
REMARK                         _______ _______ _______ _____ _____    ______ ____
ROOT
ATOM      1  C   UNL     1       3.270   1.978   1.720  0.00  0.00    +0.249 C 
ATOM      2  O   UNL     1       2.944   3.101   2.042  0.00  0.00    -0.272 OA
ATOM      3  N   UNL     1       4.487   1.507   2.055  0.00  0.00    -0.233 N 
ATOM      4  H   UNL     1       4.748   0.609   1.798  0.00  0.00    +0.173 HD
ENDROOT
BRANCH   3   5
ATOM      5  N   UNL     1       5.377   2.315   2.775  0.00  0.00    -0.234 N 
ATOM      6  C   UNL     1       6.595   1.845   3.110  0.00  0.00    +0.230 C 
ATOM      7  O   UNL     1       6.920   0.721   2.788  0.00  0.00    -0.274 OA
ATOM      8  H   UNL     1       5.117   3.213   3.032  0.00  0.00    +0.173 HD
BRANCH   6   9
ATOM      9  C   UNL     1       7.551   2.714   3.884  0.00  0.00    +0.104 C 
BRANCH   9  10
ATOM     10  C   UNL     1       8.851   1.946   4.133  0.00  0.00    -0.020 C 
ATOM     11  C   UNL     1       8.550   0.679   4.935  0.00  0.00    +0.011 C 
ATOM     12  C   UNL     1       9.850  -0.089   5.183  0.00  0.00    -0.010 C 
ATOM     13  C   UNL     1      10.821   0.793   5.970  0.00  0.00    +0.007 C 
ATOM     14  C   UNL     1      11.123   2.061   5.167  0.00  0.00    -0.010 C 
ATOM     15  C   UNL     1       9.823   2.829   4.919  0.00  0.00    +0.011 C 
ATOM     16  C   UNL     1      11.753   1.677   3.826  0.00  0.00    +0.007 C 
ATOM     17  C   UNL     1      10.781   0.795   3.040  0.00  0.00    -0.010 C 
ATOM     18  C   UNL     1      10.480  -0.472   3.843  0.00  0.00    +0.007 C 
ATOM     19  C   UNL     1       9.481   1.563   2.792  0.00  0.00    +0.011 C 
ENDBRANCH   9  10
ENDBRANCH   6   9
ENDBRANCH   3   5
BRANCH   1  20
ATOM     20  C   UNL     1       2.313   1.108   0.945  0.00  0.00    +0.161 C 
BRANCH  20  23
ATOM     21  C   UNL     1      -0.083   1.172   0.506  0.00  0.00    +0.245 C 
ATOM     22  O   UNL     1      -0.088  -0.043   0.520  0.00  0.00    -0.270 OA
ATOM     23  N   UNL     1       1.068   1.843   0.708  0.00  0.00    -0.300 N 
ATOM     24  H   UNL     1       1.073   2.813   0.696  0.00  0.00    +0.150 HD
BRANCH  21  31
ATOM     25  C   UNL     1      -2.488  -0.276  -0.195  0.00  0.00    +0.044 C 
ATOM     26  C   UNL     1      -2.504   1.226  -0.079  0.00  0.00    -0.038 A 
ATOM     27  C   UNL     1      -3.672   1.925  -0.306  0.00  0.00    +0.004 A 
ATOM     28  C   UNL     1      -3.689   3.304  -0.200  0.00  0.00    +0.000 A 
ATOM     29  C   UNL     1      -2.536   3.992   0.136  0.00  0.00    +0.001 A 
ATOM     30  C   UNL     1      -1.363   3.305   0.371  0.00  0.00    +0.013 A 
ATOM     31  C   UNL     1      -1.338   1.914   0.260  0.00  0.00    +0.040 A 
ENDBRANCH  21  31
ENDBRANCH  20  23
BRANCH  20  32
ATOM     32  C   UNL     1       2.943   0.725  -0.395  0.00  0.00    +0.034 C 
BRANCH  32  33
ATOM     33  C   UNL     1       2.026  -0.257  -1.127  0.00  0.00    -0.015 C 
ATOM     34  C   UNL     1       2.593  -0.544  -2.519  0.00  0.00    +0.007 C 
ATOM     35  C   UNL     1       1.939  -1.562  -0.333  0.00  0.00    +0.007 C 
ENDBRANCH  32  33
ENDBRANCH  20  32
ENDBRANCH   1  20
TORSDOF 8
