REMARK  Name = ZINC39429907
REMARK  3 active torsions:
REMARK  status: ('A' for Active; 'I' for Inactive)
REMARK    1  A    between atoms: C_3  and  S_17
REMARK    2  A    between atoms: C_5  and  C_6
REMARK    3  A    between atoms: S_17  and  C_18
REMARK                            x       y       z     vdW  Elec       q    Type
REMARK                         _______ _______ _______ _____ _____    ______ ____
ROOT
ATOM      1  C   UNL     1      -0.016   1.359   0.009  0.00  0.00    +0.054 A 
ATOM      2  C   UNL     1       1.323   1.785  -0.001  0.00  0.00    +0.057 A 
ATOM      3  C   UNL     1       2.096   0.668  -0.014  0.00  0.00    +0.169 A 
ATOM      4  O   UNL     1       1.290  -0.409  -0.013  0.00  0.00    -0.445 OA
ATOM      5  C   UNL     1       0.002  -0.004   0.002  0.00  0.00    +0.171 A 
ENDROOT
BRANCH   5   6
ATOM      6  C   UNL     1      -1.177  -0.881   0.009  0.00  0.00    +0.187 C 
ATOM      7  N   UNL     1      -2.408  -0.461   0.017  0.00  0.00    -0.166 NA
ATOM      8  N   UNL     1      -3.315  -1.531   0.064  0.00  0.00    -0.241 N 
ATOM      9  C   UNL     1      -2.506  -2.746   0.219  0.00  0.00    +0.223 C 
ATOM     10  N   UNL     1      -1.124  -2.262   0.001  0.00  0.00    -0.262 N 
ATOM     11  C   UNL     1      -0.071  -3.128  -0.237  0.00  0.00    +0.079 C 
ATOM     12  C   UNL     1      -0.389  -4.239  -0.943  0.00  0.00    +0.017 C 
ATOM     13  C   UNL     1      -1.768  -4.424  -1.412  0.00  0.00    +0.020 C 
ATOM     14  C   UNL     1      -2.801  -3.752  -0.866  0.00  0.00    +0.058 C 
ATOM     15 CL   UNL     1      -4.427  -4.005  -1.418  0.00  0.00    -0.085 Cl
ATOM     16  H   UNL     1      -4.282  -1.478   0.005  0.00  0.00    +0.171 HD
ENDBRANCH   5   6
BRANCH   3  17
ATOM     17  S   UNL     1       3.857   0.635  -0.032  0.00  0.00    -0.013 S 
BRANCH  17  18
ATOM     18  C   UNL     1       4.251  -1.083  -0.045  0.00  0.00    +0.192 A 
ATOM     19  H   UNL     1       6.333  -1.129  -0.075  0.00  0.00    +0.191 HD
ATOM     20  N   UNL     1       3.388  -2.076  -0.042  0.00  0.00    -0.209 NA
ATOM     21  C   UNL     1       4.040  -3.239  -0.054  0.00  0.00    +0.245 A 
ATOM     22  N   UNL     1       5.326  -3.008  -0.065  0.00  0.00    -0.160 NA
ATOM     23  N   UNL     1       5.493  -1.614  -0.065  0.00  0.00    -0.253 N 
ENDBRANCH  17  18
ENDBRANCH   3  17
TORSDOF 3
