REMARK  Name = ZINC02282167
REMARK  9 active torsions:
REMARK  status: ('A' for Active; 'I' for Inactive)
REMARK    1  A    between atoms: C_1  and  O_2
REMARK    2  A    between atoms: O_2  and  C_3
REMARK    3  A    between atoms: C_3  and  C_5
REMARK    4  A    between atoms: C_9  and  N_10
REMARK    5  A    between atoms: N_10  and  C_11
REMARK    6  A    between atoms: C_11  and  C_12
REMARK    7  A    between atoms: C_11  and  C_16
REMARK    8  A    between atoms: C_11  and  N_20
REMARK    9  A    between atoms: C_21  and  C_23
REMARK                            x       y       z     vdW  Elec       q    Type
REMARK                         _______ _______ _______ _____ _____    ______ ____
ROOT
ATOM      1  C   UNL     1      -2.185   7.247  -3.079  0.00  0.00    +0.293 C 
ENDROOT
BRANCH   1   2
ATOM      2  C   UNL     1      -3.544   6.837  -3.651  0.00  0.00    +0.436 C 
ATOM      3  F   UNL     1      -4.559   7.529  -2.981  0.00  0.00    -0.166 F 
ATOM      4  F   UNL     1      -3.589   7.147  -5.014  0.00  0.00    -0.166 F 
ATOM      5  F   UNL     1      -3.726   5.461  -3.479  0.00  0.00    -0.166 F 
ENDBRANCH   1   2
BRANCH   1   6
ATOM      6  C   UNL     1      -2.035   8.768  -3.161  0.00  0.00    +0.436 C 
ATOM      7  F   UNL     1      -0.843   9.153  -2.538  0.00  0.00    -0.166 F 
ATOM      8  F   UNL     1      -2.008   9.162  -4.503  0.00  0.00    -0.166 F 
ATOM      9  F   UNL     1      -3.116   9.378  -2.517  0.00  0.00    -0.166 F 
ENDBRANCH   1   6
BRANCH   1  10
ATOM     10  N   UNL     1      -1.117   6.609  -3.853  0.00  0.00    -0.276 N 
ATOM     11  C   UNL     1       0.140   6.577  -3.368  0.00  0.00    +0.246 C 
ATOM     12  O   UNL     1       0.371   6.996  -2.251  0.00  0.00    -0.270 OA
ATOM     13  H   UNL     1      -1.315   6.209  -4.714  0.00  0.00    +0.152 HD
BRANCH  11  14
ATOM     14  C   UNL     1       1.238   6.033  -4.195  0.00  0.00    +0.038 A 
ATOM     15  C   UNL     1       0.975   5.546  -5.477  0.00  0.00    +0.013 A 
ATOM     16  C   UNL     1       2.004   5.045  -6.246  0.00  0.00    +0.002 A 
ATOM     17  C   UNL     1       3.294   5.013  -5.746  0.00  0.00    +0.020 A 
ATOM     18  C   UNL     1       3.562   5.490  -4.474  0.00  0.00    +0.042 A 
ATOM     19  C   UNL     1       2.541   5.999  -3.696  0.00  0.00    +0.033 A 
ATOM     20 CL   UNL     1       5.183   5.446  -3.856  0.00  0.00    -0.084 Cl
ENDBRANCH  11  14
ENDBRANCH   1  10
BRANCH   1  21
ATOM     21  N   UNL     1      -2.095   6.822  -1.680  0.00  0.00    -0.303 N 
ATOM     22  H   UNL     1      -2.194   7.473  -0.968  0.00  0.00    +0.149 HD
BRANCH  21  27
ATOM     23  C   UNL     1      -1.670   4.916  -0.126  0.00  0.00    +0.090 A 
ATOM     24  C   UNL     1      -1.453   3.479  -0.080  0.00  0.00    -0.021 A 
ATOM     25  C   UNL     1      -1.468   2.856  -1.277  0.00  0.00    -0.004 A 
ATOM     26  S   UNL     1      -1.766   4.144  -2.455  0.00  0.00    -0.078 S 
ATOM     27  C   UNL     1      -1.869   5.494  -1.375  0.00  0.00    +0.082 A 
ATOM     28  C   UNL     1      -1.273   1.394  -1.537  0.00  0.00    +0.043 C 
ATOM     29  C   UNL     1      -0.679   0.753  -0.275  0.00  0.00    +0.005 C 
ATOM     30  C   UNL     1      -1.485   1.216   0.943  0.00  0.00    +0.005 C 
ATOM     31  C   UNL     1      -1.221   2.699   1.208  0.00  0.00    +0.037 C 
BRANCH  23  32
ATOM     32  C   UNL     1      -1.680   5.723   1.094  0.00  0.00    +0.342 C 
ATOM     33  O   UNL     1      -2.722   5.904   1.695  0.00  0.00    -0.245 OA
BRANCH  32  35
ATOM     34  C   UNL     1      -0.617   7.041   2.750  0.00  0.00    +0.280 C 
ATOM     35  O   UNL     1      -0.534   6.265   1.553  0.00  0.00    -0.464 OA
ENDBRANCH  32  35
ENDBRANCH  23  32
ENDBRANCH  21  27
ENDBRANCH   1  21
TORSDOF 8
