REMARK  Name = ZINC08714007
REMARK  8 active torsions:
REMARK  status: ('A' for Active; 'I' for Inactive)
REMARK    1  A    between atoms: C_5  and  C_7
REMARK    2  A    between atoms: N_11  and  C_15
REMARK    3  A    between atoms: C_15  and  C_16
REMARK    4  A    between atoms: C_16  and  C_17
REMARK    5  A    between atoms: N_19  and  N_20
REMARK    6  A    between atoms: N_20  and  C_21
REMARK    7  A    between atoms: C_24  and  N_30
REMARK    8  A    between atoms: C_26  and  N_27
REMARK                            x       y       z     vdW  Elec       q    Type
REMARK                         _______ _______ _______ _____ _____    ______ ____
ROOT
ATOM      1  C   UNL     1      -2.955   1.941   2.732  0.00  0.00    +0.231 C 
ATOM      2  O   UNL     1      -3.683   2.408   1.882  0.00  0.00    -0.274 OA
ATOM      3  N   UNL     1      -3.293   2.036   4.034  0.00  0.00    -0.236 N 
ATOM      4  H   UNL     1      -2.711   1.663   4.714  0.00  0.00    +0.173 HD
ENDROOT
BRANCH   3   5
ATOM      5  N   UNL     1      -4.484   2.674   4.404  0.00  0.00    -0.262 N 
ATOM      6  H   UNL     1      -5.066   3.048   3.724  0.00  0.00    +0.170 HD
BRANCH   5   7
ATOM      7  C   UNL     1      -4.833   2.772   5.753  0.00  0.00    +0.075 A 
ATOM      8  C   UNL     1      -3.989   2.260   6.730  0.00  0.00    +0.029 A 
ATOM      9  C   UNL     1      -4.335   2.363   8.063  0.00  0.00    +0.035 A 
ATOM     10  C   UNL     1      -5.526   2.966   8.425  0.00  0.00    +0.128 A 
ATOM     11  C   UNL     1      -6.371   3.473   7.455  0.00  0.00    +0.067 A 
ATOM     12  C   UNL     1      -6.028   3.378   6.120  0.00  0.00    +0.150 A 
BRANCH  12  13
ATOM     13  N   UNL     1      -6.933   3.920   5.082  0.00  0.00    +0.058 N 
ATOM     14  O   UNL     1      -8.057   4.281   5.383  0.00  0.00    -0.126 OA
ATOM     15  O   UNL     1      -6.554   4.006   3.928  0.00  0.00    -0.126 OA
ENDBRANCH  12  13
BRANCH  10  16
ATOM     16  N   UNL     1      -5.897   3.069   9.854  0.00  0.00    +0.056 N 
ATOM     17  O   UNL     1      -6.945   3.599  10.175  0.00  0.00    -0.126 OA
ATOM     18  O   UNL     1      -5.153   2.623  10.710  0.00  0.00    -0.126 OA
ENDBRANCH  10  16
ENDBRANCH   5   7
ENDBRANCH   3   5
BRANCH   1  19
ATOM     19  C   UNL     1      -1.674   1.255   2.334  0.00  0.00    +0.116 C 
BRANCH  19  20
ATOM     20  C   UNL     1      -1.532   1.285   0.811  0.00  0.00    +0.124 C 
BRANCH  20  25
ATOM     21  C   UNL     1       1.276  -2.583  -0.518  0.00  0.00    +0.029 C 
ATOM     22  C   UNL     1       0.989  -1.293  -0.212  0.00  0.00    +0.077 C 
ATOM     23  C   UNL     1      -0.299  -0.682   0.180  0.00  0.00    +0.258 C 
ATOM     24  O   UNL     1      -1.317  -1.341   0.275  0.00  0.00    -0.269 OA
ATOM     25  N   UNL     1      -0.287   0.618   0.423  0.00  0.00    -0.255 N 
ATOM     26  C   UNL     1       0.844   1.344   0.317  0.00  0.00    +0.121 C 
ATOM     27  S   UNL     1       1.060   3.021   0.587  0.00  0.00    -0.027 S 
ATOM     28  S   UNL     1       2.063   0.135  -0.173  0.00  0.00    -0.061 S 
BRANCH  21  33
ATOM     29  C   UNL     1       5.025  -2.569  -0.534  0.00  0.00    +0.001 A 
ATOM     30  C   UNL     1       5.295  -3.759  -1.189  0.00  0.00    +0.001 A 
ATOM     31  C   UNL     1       4.260  -4.567  -1.626  0.00  0.00    +0.020 A 
ATOM     32  C   UNL     1       2.949  -4.192  -1.412  0.00  0.00    +0.048 A 
ATOM     33  C   UNL     1       2.668  -2.991  -0.750  0.00  0.00    -0.005 A 
ATOM     34  C   UNL     1       3.721  -2.178  -0.316  0.00  0.00    +0.009 A 
ATOM     35 CL   UNL     1       1.653  -5.207  -1.963  0.00  0.00    -0.083 Cl
ENDBRANCH  21  33
ENDBRANCH  20  25
ENDBRANCH  19  20
ENDBRANCH   1  19
TORSDOF 8
