REMARK  Name = ZINC39609039
REMARK  7 active torsions:
REMARK  status: ('A' for Active; 'I' for Inactive)
REMARK    1  A    between atoms: C_1  and  C_2
REMARK    2  A    between atoms: C_6  and  C_9
REMARK    3  A    between atoms: C_13  and  C_22
REMARK    4  A    between atoms: N_24  and  C_25
REMARK    5  A    between atoms: C_30  and  O_32
REMARK    6  A    between atoms: O_32  and  C_33
REMARK    7  A    between atoms: C_33  and  C_34
REMARK                            x       y       z     vdW  Elec       q    Type
REMARK                         _______ _______ _______ _____ _____    ______ ____
ROOT
ATOM      1  C   UNL     1       0.081  -2.889   2.579  0.00  0.00    +0.251 C 
ATOM      2  O   UNL     1       1.128  -3.234   3.092  0.00  0.00    -0.270 OA
ATOM      3  N   UNL     1      -1.093  -3.259   3.128  0.00  0.00    -0.296 N 
ATOM      4  C   UNL     1      -2.459  -2.945   2.647  0.00  0.00    +0.121 C 
ATOM      5  C   UNL     1      -3.264  -4.243   2.884  0.00  0.00    +0.100 C 
ATOM      6  C   UNL     1      -2.505  -4.977   4.002  0.00  0.00    -0.004 C 
ATOM      7  C   UNL     1      -1.309  -4.077   4.345  0.00  0.00    +0.115 C 
ATOM      8  C   UNL     1      -2.012  -6.333   3.505  0.00  0.00    -0.010 C 
ATOM      9  C   UNL     1      -1.311  -7.067   4.652  0.00  0.00    -0.082 C 
ATOM     10  N   UNL     1      -2.248  -7.243   5.768  0.00  0.00    +0.379 N 
ATOM     11  C   UNL     1      -2.645  -5.934   6.300  0.00  0.00    -0.082 C 
ATOM     12  C   UNL     1      -3.403  -5.152   5.223  0.00  0.00    -0.010 C 
ATOM     13  H   UNL     1      -3.067  -7.735   5.443  0.00  0.00    -0.086 HD
ATOM     14  H   UNL     1      -1.803  -7.780   6.497  0.00  0.00    -0.086 HD
ENDROOT
BRANCH   1  20
ATOM     15  C   UNL     1       0.121   1.597   0.385  0.00  0.00    +0.047 C 
ATOM     16  C   UNL     1       0.115   0.093   0.291  0.00  0.00    -0.014 A 
ATOM     17  C   UNL     1       0.124  -0.521  -0.948  0.00  0.00    +0.007 A 
ATOM     18  C   UNL     1       0.118  -1.901  -1.045  0.00  0.00    +0.021 A 
ATOM     19  C   UNL     1       0.104  -2.678   0.096  0.00  0.00    +0.056 A 
ATOM     20  C   UNL     1       0.096  -2.066   1.353  0.00  0.00    +0.091 A 
ATOM     21  C   UNL     1       0.107  -0.670   1.444  0.00  0.00    +0.140 A 
ATOM     22  F   UNL     1       0.105  -0.070   2.654  0.00  0.00    -0.204 F 
ATOM     23 CL   UNL     1       0.096  -4.409  -0.029  0.00  0.00    -0.083 Cl
ENDBRANCH   1  20
BRANCH   5  24
ATOM     24  C   UNL     1      -4.667  -3.917   3.325  0.00  0.00    +0.218 C 
ATOM     25  O   UNL     1      -4.881  -2.917   3.977  0.00  0.00    -0.275 OA
ATOM     26  N   UNL     1      -5.685  -4.737   2.994  0.00  0.00    -0.310 N 
ATOM     27  H   UNL     1      -5.514  -5.536   2.473  0.00  0.00    +0.149 HD
BRANCH  26  28
ATOM     28  C   UNL     1      -7.049  -4.420   3.423  0.00  0.00    +0.102 C 
ATOM     29  C   UNL     1      -7.308  -4.994   4.827  0.00  0.00    +0.025 C 
ATOM     30  C   UNL     1      -8.475  -5.993   4.687  0.00  0.00    +0.004 C 
ATOM     31  C   UNL     1      -9.224  -5.525   3.414  0.00  0.00    +0.033 C 
ATOM     32  C   UNL     1      -8.069  -5.088   2.478  0.00  0.00    +0.139 C 
BRANCH  32  33
ATOM     33  O   UNL     1      -8.539  -4.152   1.506  0.00  0.00    -0.370 OA
BRANCH  33  34
ATOM     34  C   UNL     1      -8.904  -4.744   0.258  0.00  0.00    +0.195 C 
BRANCH  34  35
ATOM     35  C   UNL     1      -9.382  -3.671  -0.686  0.00  0.00    -0.022 A 
ATOM     36  C   UNL     1     -10.719  -3.323  -0.718  0.00  0.00    +0.006 A 
ATOM     37  C   UNL     1     -11.158  -2.339  -1.583  0.00  0.00    +0.000 A 
ATOM     38  C   UNL     1     -10.259  -1.702  -2.418  0.00  0.00    +0.000 A 
ATOM     39  C   UNL     1      -8.921  -2.048  -2.386  0.00  0.00    +0.000 A 
ATOM     40  C   UNL     1      -8.482  -3.030  -1.517  0.00  0.00    +0.006 A 
ENDBRANCH  34  35
ENDBRANCH  33  34
ENDBRANCH  32  33
ENDBRANCH  26  28
ENDBRANCH   5  24
TORSDOF 6
