REMARK  Name = ZINC14845940
REMARK  8 active torsions:
REMARK  status: ('A' for Active; 'I' for Inactive)
REMARK    1  A    between atoms: C_1  and  C_2
REMARK    2  A    between atoms: C_2  and  C_3
REMARK    3  A    between atoms: C_2  and  C_4
REMARK    4  A    between atoms: C_4  and  C_6
REMARK    5  A    between atoms: C_4  and  N_22
REMARK    6  A    between atoms: N_11  and  S_14
REMARK    7  A    between atoms: S_14  and  C_17
REMARK    8  A    between atoms: C_23  and  C_25
REMARK                            x       y       z     vdW  Elec       q    Type
REMARK                         _______ _______ _______ _____ _____    ______ ____
ROOT
ATOM      1  C   UNL     1      -1.336   2.008   0.084  0.00  0.00    +0.162 C 
ENDROOT
BRANCH   1   2
ATOM      2  C   UNL     1      -0.029   1.259   0.077  0.00  0.00    +0.236 C 
ATOM      3  O   UNL     1       0.036   0.157  -0.426  0.00  0.00    -0.274 OA
ATOM      4  N   UNL     1       1.070   1.815   0.625  0.00  0.00    -0.297 N 
ATOM      5  C   UNL     1       1.038   3.196   1.127  0.00  0.00    +0.125 C 
ATOM      6  C   UNL     1       1.491   3.188   2.597  0.00  0.00    +0.128 C 
ATOM      7  N   UNL     1       2.744   2.427   2.697  0.00  0.00    -0.173 NA
ATOM      8  C   UNL     1       2.778   1.048   2.189  0.00  0.00    +0.128 C 
ATOM      9  C   UNL     1       2.323   1.054   0.724  0.00  0.00    +0.125 C 
BRANCH   7  10
ATOM     10  S   UNL     1       4.095   3.111   3.368  0.00  0.00    +0.067 S 
ATOM     11  O   UNL     1       3.640   4.146   4.230  0.00  0.00    -0.152 OA
ATOM     12  O   UNL     1       4.907   2.040   3.827  0.00  0.00    -0.152 OA
BRANCH  10  13
ATOM     13  C   UNL     1       4.984   3.896   2.066  0.00  0.00    +0.143 A 
ATOM     14  C   UNL     1       4.875   5.165   1.601  0.00  0.00    +0.036 A 
ATOM     15  C   UNL     1       5.689   5.569   0.559  0.00  0.00    +0.010 A 
ATOM     16  C   UNL     1       6.563   4.681   0.025  0.00  0.00    +0.047 A 
ATOM     17  S   UNL     1       6.257   3.224   1.010  0.00  0.00    -0.077 S 
ENDBRANCH  10  13
ENDBRANCH   7  10
ENDBRANCH   1   2
BRANCH   1  18
ATOM     18  N   UNL     1      -2.443   1.058   0.221  0.00  0.00    -0.303 N 
ATOM     19  C   UNL     1      -3.617   1.461   0.745  0.00  0.00    +0.220 C 
ATOM     20  O   UNL     1      -3.757   2.611   1.104  0.00  0.00    -0.275 OA
ATOM     21  H   UNL     1      -2.330   0.138  -0.067  0.00  0.00    +0.149 HD
BRANCH  19  22
ATOM     22  C   UNL     1      -4.755   0.484   0.885  0.00  0.00    +0.048 C 
ATOM     23  C   UNL     1      -4.325  -0.674   1.789  0.00  0.00    +0.019 C 
ATOM     24  C   UNL     1      -5.481  -1.666   1.931  0.00  0.00    -0.009 C 
ATOM     25  C   UNL     1      -6.688  -0.958   2.549  0.00  0.00    +0.007 C 
ATOM     26  C   UNL     1      -7.118   0.199   1.645  0.00  0.00    -0.009 C 
ATOM     27  C   UNL     1      -5.963   1.192   1.503  0.00  0.00    +0.019 C 
ATOM     28  C   UNL     1      -7.497  -0.344   0.266  0.00  0.00    +0.007 C 
ATOM     29  C   UNL     1      -6.289  -1.052  -0.352  0.00  0.00    -0.009 C 
ATOM     30  C   UNL     1      -5.859  -2.209   0.551  0.00  0.00    +0.007 C 
ATOM     31  C   UNL     1      -5.134  -0.060  -0.494  0.00  0.00    +0.019 C 
ENDBRANCH  19  22
ENDBRANCH   1  18
BRANCH   1  33
ATOM     32  C   UNL     1      -2.748   3.647  -1.165  0.00  0.00    +0.009 C 
ATOM     33  C   UNL     1      -1.488   2.783  -1.226  0.00  0.00    +0.012 C 
ATOM     34  C   UNL     1      -0.265   3.678  -1.434  0.00  0.00    +0.009 C 
ENDBRANCH   1  33
TORSDOF 6
