REMARK  Name = ZINC22844751
REMARK  9 active torsions:
REMARK  status: ('A' for Active; 'I' for Inactive)
REMARK    1  A    between atoms: C_1  and  C_2
REMARK    2  A    between atoms: C_13  and  C_18
REMARK    3  A    between atoms: C_21  and  C_24
REMARK    4  A    between atoms: C_24  and  O_25
REMARK    5  A    between atoms: O_25  and  C_26
REMARK    6  A    between atoms: C_29  and  O_32
REMARK    7  A    between atoms: O_32  and  C_33
REMARK    8  A    between atoms: C_34  and  C_36
REMARK    9  A    between atoms: N_39  and  C_41
REMARK                            x       y       z     vdW  Elec       q    Type
REMARK                         _______ _______ _______ _____ _____    ______ ____
ROOT
ATOM      1  C   UNL     1      -0.018   1.503   0.010  0.00  0.00    +0.065 C 
ATOM      2  C   UNL     1       0.002  -0.004   0.002  0.00  0.00    +0.041 A 
ATOM      3  C   UNL     1       0.008  -0.790  -1.085  0.00  0.00    +0.048 A 
ATOM      4  C   UNL     1       0.028  -2.135  -0.656  0.00  0.00    +0.245 A 
ATOM      5  N   UNL     1       0.034  -2.141   0.646  0.00  0.00    -0.135 NA
ATOM      6  N   UNL     1       0.024  -0.809   1.090  0.00  0.00    -0.278 N 
ATOM      7  H   UNL     1       0.029  -0.516   2.014  0.00  0.00    +0.189 HD
ATOM      8  O   UNL     1       0.038  -3.171  -1.532  0.00  0.00    -0.418 OA
ATOM      9  C   UNL     1      -0.278  -2.920  -2.832  0.00  0.00    +0.232 A 
ATOM     10  C   UNL     1      -0.312  -1.654  -3.348  0.00  0.00    +0.071 A 
ATOM     11  C   UNL     1      -0.656  -1.535  -4.707  0.00  0.00    +0.167 A 
ATOM     12  N   UNL     1      -0.783  -0.500  -5.503  0.00  0.00    -0.206 NA
ATOM     13  C   UNL     1      -1.134  -0.918  -6.726  0.00  0.00    +0.182 A 
ATOM     14  N   UNL     1      -1.237  -2.238  -6.729  0.00  0.00    -0.143 NA
ATOM     15  N   UNL     1      -0.936  -2.670  -5.446  0.00  0.00    -0.201 N 
ATOM     16  C   UNL     1      -0.882  -3.899  -4.875  0.00  0.00    +0.229 A 
ATOM     17  N   UNL     1      -0.560  -3.982  -3.608  0.00  0.00    -0.201 NA
ATOM     18  C   UNL     1      -0.004  -0.419  -2.545  0.00  0.00    +0.098 C 
ENDROOT
BRANCH  13  19
ATOM     19  C   UNL     1      -1.372  -0.037  -7.896  0.00  0.00    +0.021 A 
ATOM     20  C   UNL     1      -1.228   1.343  -7.774  0.00  0.00    +0.012 A 
ATOM     21  C   UNL     1      -1.450   2.158  -8.865  0.00  0.00    +0.007 A 
ATOM     22  C   UNL     1      -1.815   1.606 -10.080  0.00  0.00    -0.010 A 
ATOM     23  C   UNL     1      -1.960   0.236 -10.207  0.00  0.00    +0.007 A 
ATOM     24  C   UNL     1      -1.734  -0.588  -9.124  0.00  0.00    +0.012 A 
BRANCH  22  25
ATOM     25  C   UNL     1      -2.057   2.500 -11.269  0.00  0.00    +0.264 C 
BRANCH  25  26
ATOM     26  O   UNL     1      -0.835   2.678 -11.987  0.00  0.00    -0.487 OA
BRANCH  26  27
ATOM     27  C   UNL     1      -0.879   3.464 -13.096  0.00  0.00    +0.121 A 
ATOM     28  C   UNL     1      -2.074   4.056 -13.479  0.00  0.00    +0.049 A 
ATOM     29  C   UNL     1      -2.119   4.854 -14.605  0.00  0.00    +0.049 A 
ATOM     30  C   UNL     1      -0.970   5.065 -15.353  0.00  0.00    +0.120 A 
ATOM     31  C   UNL     1       0.225   4.474 -14.969  0.00  0.00    +0.049 A 
ATOM     32  C   UNL     1       0.271   3.679 -13.841  0.00  0.00    +0.049 A 
BRANCH  30  33
ATOM     33  O   UNL     1      -1.014   5.850 -16.462  0.00  0.00    -0.495 OA
ATOM     34  C   UNL     1       0.207   6.023 -17.184  0.00  0.00    +0.277 C 
ENDBRANCH  30  33
ENDBRANCH  26  27
ENDBRANCH  25  26
ENDBRANCH  22  25
ENDBRANCH  13  19
BRANCH  18  35
ATOM     35  C   UNL     1       1.346   0.120  -2.941  0.00  0.00    +0.002 A 
ATOM     36  C   UNL     1       2.561  -0.568  -2.867  0.00  0.00    +0.139 A 
ATOM     37  N   UNL     1       3.507   0.226  -3.298  0.00  0.00    -0.180 NA
ATOM     38  N   UNL     1       2.923   1.446  -3.661  0.00  0.00    -0.274 N 
ATOM     39  C   UNL     1       1.596   1.354  -3.438  0.00  0.00    +0.112 A 
ATOM     40  C   UNL     1       3.628   2.614  -4.195  0.00  0.00    +0.172 C 
ENDBRANCH  18  35
TORSDOF 6
