REMARK  Name = ZINC22053183
REMARK  9 active torsions:
REMARK  status: ('A' for Active; 'I' for Inactive)
REMARK    1  A    between atoms: C_1  and  C_2
REMARK    2  A    between atoms: C_2  and  C_4
REMARK    3  A    between atoms: C_2  and  N_15
REMARK    4  A    between atoms: N_18  and  S_21
REMARK    5  A    between atoms: S_21  and  C_24
REMARK    6  A    between atoms: C_27  and  C_30
REMARK    7  A    between atoms: C_30  and  C_31
REMARK    8  A    between atoms: C_30  and  C_32
REMARK    9  A    between atoms: C_30  and  C_33
REMARK                            x       y       z     vdW  Elec       q    Type
REMARK                         _______ _______ _______ _____ _____    ______ ____
ROOT
ATOM      1  N   UNL     1       1.132  -2.795  -4.442  0.00  0.00    +0.388 N 
ATOM      2  C   UNL     1       2.345  -2.480  -3.675  0.00  0.00    -0.060 C 
ATOM      3  C   UNL     1       2.369  -3.321  -2.395  0.00  0.00    +0.091 C 
ATOM      4  N   UNL     1       1.105  -3.111  -1.674  0.00  0.00    -0.180 NA
ATOM      5  C   UNL     1      -0.155  -3.282  -2.413  0.00  0.00    +0.091 C 
ATOM      6  C   UNL     1      -0.080  -2.436  -3.694  0.00  0.00    -0.060 C 
ATOM      7  H   UNL     1       1.114  -3.883  -4.606  0.00  0.00    -0.081 HD
ENDROOT
BRANCH   4   8
ATOM      8  S   UNL     1       1.101  -2.701  -0.069  0.00  0.00    +0.061 S 
ATOM      9  O   UNL     1       2.334  -3.156   0.470  0.00  0.00    -0.153 OA
ATOM     10  O   UNL     1      -0.157  -3.111   0.451  0.00  0.00    -0.153 OA
BRANCH   8  11
ATOM     11  C   UNL     1       1.132  -0.941   0.018  0.00  0.00    +0.105 A 
ATOM     12  C   UNL     1      -0.053  -0.229   0.043  0.00  0.00    +0.029 A 
ATOM     13  C   UNL     1      -0.029   1.151   0.113  0.00  0.00    +0.006 A 
ATOM     14  C   UNL     1       1.181   1.820   0.157  0.00  0.00    -0.042 A 
ATOM     15  C   UNL     1       2.365   1.108   0.131  0.00  0.00    +0.006 A 
ATOM     16  C   UNL     1       2.341  -0.273   0.062  0.00  0.00    +0.029 A 
BRANCH  14  17
ATOM     17  C   UNL     1       1.208   3.325   0.233  0.00  0.00    -0.013 C 
ATOM     18  C   UNL     1       0.484   3.785   1.500  0.00  0.00    +0.015 C 
ATOM     19  C   UNL     1       2.659   3.808   0.270  0.00  0.00    +0.015 C 
ATOM     20  C   UNL     1       0.507   3.909  -0.996  0.00  0.00    +0.015 C 
ENDBRANCH  14  17
ENDBRANCH   8  11
ENDBRANCH   4   8
BRANCH   1  22
ATOM     21  C   UNL     1      -0.053  -2.598  -6.576  0.00  0.00    -0.005 C 
ATOM     22  C   UNL     1       1.154  -2.139  -5.756  0.00  0.00    -0.004 C 
BRANCH  22  23
ATOM     23  C   UNL     1       2.423  -2.508  -6.481  0.00  0.00    +0.096 A 
ATOM     24  N   UNL     1       3.115  -1.555  -7.057  0.00  0.00    -0.235 NA
ATOM     25  C   UNL     1       4.252  -1.840  -7.708  0.00  0.00    +0.078 A 
ATOM     26  C   UNL     1       5.018  -0.848  -8.336  0.00  0.00    +0.028 A 
ATOM     27  C   UNL     1       6.166  -1.194  -8.983  0.00  0.00    +0.002 A 
ATOM     28  C   UNL     1       6.589  -2.519  -9.037  0.00  0.00    +0.001 A 
ATOM     29  C   UNL     1       5.869  -3.509  -8.438  0.00  0.00    +0.015 A 
ATOM     30  C   UNL     1       4.687  -3.188  -7.759  0.00  0.00    +0.065 A 
ATOM     31  C   UNL     1       3.900  -4.169  -7.113  0.00  0.00    +0.259 A 
ATOM     32  N   UNL     1       2.788  -3.780  -6.508  0.00  0.00    -0.312 N 
ATOM     33  O   UNL     1       4.262  -5.472  -7.132  0.00  0.00    -0.267 OA
ATOM     34  H   UNL     1       2.163  -4.543  -6.020  0.00  0.00    +0.170 HD
ENDBRANCH  22  23
ENDBRANCH   1  22
TORSDOF 5
