REMARK  Name = ZINC08964508
REMARK  13 active torsions:
REMARK  status: ('A' for Active; 'I' for Inactive)
REMARK    1  A    between atoms: C_1  and  C_2
REMARK    2  A    between atoms: C_7  and  C_8
REMARK    3  A    between atoms: C_8  and  C_10
REMARK    4  A    between atoms: C_8  and  O_27
REMARK    5  A    between atoms: C_10  and  C_11
REMARK    6  A    between atoms: C_18  and  O_19
REMARK    7  A    between atoms: O_19  and  C_20
REMARK    8  A    between atoms: C_26  and  N_76
REMARK    9  A    between atoms: C_28  and  C_36
REMARK   10  A    between atoms: C_28  and  C_37
REMARK   11  A    between atoms: C_30  and  C_35
REMARK   12  A    between atoms: C_32  and  C_33
REMARK   13  A    between atoms: C_32  and  C_34
REMARK                            x       y       z     vdW  Elec       q    Type
REMARK                         _______ _______ _______ _____ _____    ______ ____
ROOT
ATOM      1  C   UNL     1       2.380   1.253   0.426  0.00  0.00    +0.144 C 
ENDROOT
BRANCH   1   8
ATOM      2  C   UNL     1      -0.139  -0.150   0.727  0.00  0.00    +0.044 C 
ATOM      3  C   UNL     1      -0.093   1.354   0.804  0.00  0.00    -0.045 A 
ATOM      4  C   UNL     1      -1.254   2.071   1.020  0.00  0.00    +0.008 A 
ATOM      5  C   UNL     1      -1.225   3.455   1.116  0.00  0.00    -0.038 A 
ATOM      6  C   UNL     1      -0.035   4.128   0.936  0.00  0.00    -0.038 A 
ATOM      7  C   UNL     1       1.131   3.401   0.714  0.00  0.00    +0.011 A 
ATOM      8  C   UNL     1       1.105   2.023   0.654  0.00  0.00    -0.016 A 
ATOM      9  C   UNL     1       0.074   5.626   0.931  0.00  0.00    -0.009 C 
ATOM     10  C   UNL     1      -1.232   6.345   1.209  0.00  0.00    +0.015 C 
ATOM     11  C   UNL     1      -2.213   5.546   2.047  0.00  0.00    -0.003 C 
ATOM     12  C   UNL     1      -2.503   4.185   1.425  0.00  0.00    -0.007 C 
ATOM     13  C   UNL     1      -3.335   3.372   2.425  0.00  0.00    +0.016 C 
ATOM     14  C   UNL     1      -3.313   4.366   0.140  0.00  0.00    +0.016 C 
ATOM     15  C   UNL     1      -1.722   5.370   3.485  0.00  0.00    +0.008 C 
ATOM     16  C   UNL     1       1.134   6.068   1.948  0.00  0.00    +0.016 C 
ATOM     17  C   UNL     1       0.563   6.060  -0.466  0.00  0.00    +0.016 C 
ENDBRANCH   1   8
BRANCH   1  18
ATOM     18  O   UNL     1       3.323   2.083  -0.254  0.00  0.00    -0.387 OA
ATOM     19  H   UNL     1       3.558   2.888   0.228  0.00  0.00    +0.210 HD
ENDBRANCH   1  18
BRANCH   1  20
ATOM     20  C   UNL     1       2.961   0.819   1.774  0.00  0.00    +0.025 C 
BRANCH  20  21
ATOM     21  C   UNL     1       4.256   0.037   1.542  0.00  0.00    -0.031 C 
ATOM     22  C   UNL     1       3.983  -1.110   0.605  0.00  0.00    -0.012 A 
ATOM     23  C   UNL     1       4.851  -1.440  -0.414  0.00  0.00    -0.040 A 
ATOM     24  C   UNL     1       4.564  -2.509  -1.250  0.00  0.00    +0.053 A 
ATOM     25  C   UNL     1       3.408  -3.250  -1.073  0.00  0.00    +0.170 A 
ATOM     26  C   UNL     1       2.528  -2.919  -0.048  0.00  0.00    +0.208 A 
ATOM     27  C   UNL     1       2.818  -1.850   0.788  0.00  0.00    +0.167 A 
ATOM     28  O   UNL     1       1.474  -3.787  -0.080  0.00  0.00    -0.449 OA
ATOM     29  C   UNL     1       1.919  -4.902  -0.874  0.00  0.00    +0.467 C 
ATOM     30  O   UNL     1       2.908  -4.326  -1.747  0.00  0.00    -0.452 OA
ATOM     31  C   UNL     1       6.121  -0.664  -0.652  0.00  0.00    +0.017 C 
ATOM     32  C   UNL     1       6.463   0.169   0.583  0.00  0.00    -0.074 C 
ATOM     33  C   UNL     1       5.614   2.002   1.922  0.00  0.00    -0.095 C 
ATOM     34  N   UNL     1       5.258   0.941   0.955  0.00  0.00    +0.383 N 
ATOM     35  H   UNL     1       4.865   1.375   0.112  0.00  0.00    -0.081 HD
BRANCH  27  36
ATOM     36  O   UNL     1       1.960  -1.523   1.791  0.00  0.00    -0.491 OA
ATOM     37  C   UNL     1       2.172  -2.151   3.057  0.00  0.00    +0.277 C 
ENDBRANCH  27  36
ENDBRANCH  20  21
ENDBRANCH   1  20
TORSDOF 5
