REMARK  Name = ZINC25415370
REMARK  15 active torsions:
REMARK  status: ('A' for Active; 'I' for Inactive)
REMARK    1  A    between atoms: C_1  and  C_2
REMARK    2  A    between atoms: C_2  and  C_3
REMARK    3  A    between atoms: C_2  and  C_4
REMARK    4  A    between atoms: C_4  and  N_5
REMARK    5  A    between atoms: C_6  and  N_36
REMARK    6  A    between atoms: C_7  and  N_14
REMARK    7  A    between atoms: N_14  and  C_15
REMARK    8  A    between atoms: C_15  and  C_16
REMARK    9  A    between atoms: C_16  and  C_17
REMARK   10  A    between atoms: C_16  and  C_18
REMARK   11  A    between atoms: C_19  and  C_21
REMARK   12  A    between atoms: C_21  and  N_22
REMARK   13  A    between atoms: C_26  and  C_28
REMARK   14  A    between atoms: C_31  and  O_34
REMARK   15  A    between atoms: O_34  and  C_35
REMARK                            x       y       z     vdW  Elec       q    Type
REMARK                         _______ _______ _______ _____ _____    ______ ____
ROOT
ATOM      1  N   UNL     1      -0.498  -0.081  -0.259  0.00  0.00    -0.266 N 
ATOM      2  C   UNL     1      -0.785  -0.559  -1.488  0.00  0.00    +0.203 C 
ATOM      3  O   UNL     1      -1.094  -1.723  -1.629  0.00  0.00    -0.277 OA
ENDROOT
BRANCH   1   6
ATOM      4  N   UNL     1      -1.726  -1.379   2.952  0.00  0.00    -0.280 N 
ATOM      5  C   UNL     1      -1.574  -0.555   1.861  0.00  0.00    +0.127 A 
ATOM      6  C   UNL     1      -0.673  -0.902   0.875  0.00  0.00    +0.140 A 
ATOM      7  C   UNL     1       0.074  -2.086   1.024  0.00  0.00    +0.277 A 
ATOM      8  O   UNL     1       0.882  -2.413   0.171  0.00  0.00    -0.266 OA
ATOM      9  N   UNL     1      -0.109  -2.855   2.115  0.00  0.00    -0.273 N 
ATOM     10  H   UNL     1       0.471  -3.781   2.239  0.00  0.00    +0.173 HD
ATOM     11  C   UNL     1      -0.996  -2.504   3.063  0.00  0.00    +0.331 A 
ATOM     12  O   UNL     1      -1.141  -3.216   4.038  0.00  0.00    -0.246 OA
BRANCH   5  13
ATOM     13  N   UNL     1      -2.316   0.596   1.751  0.00  0.00    -0.343 N 
ATOM     14  H   UNL     1      -2.189   1.250   0.876  0.00  0.00    +0.144 HD
ATOM     15  H   UNL     1      -3.036   0.864   2.538  0.00  0.00    +0.144 HD
ENDBRANCH   5  13
BRANCH   4  16
ATOM     16  C   UNL     1      -2.684  -1.027   4.003  0.00  0.00    +0.131 C 
BRANCH  16  18
ATOM     17  C   UNL     1      -1.564   1.164   4.436  0.00  0.00    +0.009 C 
ATOM     18  C   UNL     1      -1.988  -0.167   5.060  0.00  0.00    +0.003 C 
ATOM     19  C   UNL     1      -2.952   0.097   6.218  0.00  0.00    +0.009 C 
ENDBRANCH  16  18
ENDBRANCH   4  16
ENDBRANCH   1   6
BRANCH   1  20
ATOM     20  C   UNL     1      -0.007   1.290  -0.102  0.00  0.00    +0.117 C 
BRANCH  20  21
ATOM     21  C   UNL     1       1.514   1.309  -0.269  0.00  0.00    +0.001 C 
ATOM     22  C   UNL     1       2.010   2.756  -0.264  0.00  0.00    +0.009 C 
ATOM     23  C   UNL     1       2.163   0.543   0.885  0.00  0.00    +0.009 C 
ENDBRANCH  20  21
ENDBRANCH   1  20
BRANCH   2  24
ATOM     24  C   UNL     1      -0.721   0.355  -2.685  0.00  0.00    +0.020 C 
BRANCH  24  25
ATOM     25  N   UNL     1      -1.065  -0.401  -3.896  0.00  0.00    +0.390 N 
ATOM     26  C   UNL     1      -0.045  -1.433  -4.185  0.00  0.00    -0.077 C 
ATOM     27  C   UNL     1       0.059  -1.549  -5.717  0.00  0.00    -0.020 C 
ATOM     28  C   UNL     1      -0.937  -0.503  -6.270  0.00  0.00    -0.013 C 
ATOM     29  C   UNL     1      -1.092   0.486  -5.088  0.00  0.00    -0.037 C 
ATOM     30  H   UNL     1      -2.049  -0.852  -3.699  0.00  0.00    -0.080 HD
BRANCH  29  31
ATOM     31  C   UNL     1      -2.407   1.218  -5.176  0.00  0.00    -0.061 A 
ATOM     32  C   UNL     1      -3.585   0.559  -4.876  0.00  0.00    +0.005 A 
ATOM     33  C   UNL     1      -4.790   1.229  -4.951  0.00  0.00    +0.046 A 
ATOM     34  C   UNL     1      -4.820   2.561  -5.337  0.00  0.00    +0.120 A 
ATOM     35  C   UNL     1      -3.637   3.218  -5.642  0.00  0.00    +0.046 A 
ATOM     36  C   UNL     1      -2.433   2.545  -5.561  0.00  0.00    +0.005 A 
BRANCH  34  37
ATOM     37  O   UNL     1      -6.005   3.221  -5.416  0.00  0.00    -0.495 OA
ATOM     38  C   UNL     1      -7.183   2.481  -5.088  0.00  0.00    +0.277 C 
ENDBRANCH  34  37
ENDBRANCH  29  31
ENDBRANCH  24  25
ENDBRANCH   2  24
TORSDOF 10
