REMARK  Name = ZINC51676209
REMARK  7 active torsions:
REMARK  status: ('A' for Active; 'I' for Inactive)
REMARK    1  A    between atoms: C_1  and  N_2
REMARK    2  A    between atoms: N_2  and  C_3
REMARK    3  A    between atoms: N_2  and  C_4
REMARK    4  A    between atoms: C_4  and  C_9
REMARK    5  A    between atoms: C_9  and  N_10
REMARK    6  A    between atoms: C_17  and  C_20
REMARK    7  A    between atoms: N_22  and  C_23
REMARK                            x       y       z     vdW  Elec       q    Type
REMARK                         _______ _______ _______ _____ _____    ______ ____
ROOT
ATOM      1  N   UNL     1       0.343   1.393  -2.546  0.00  0.00    -0.301 N 
ATOM      2  C   UNL     1      -0.008   2.054  -3.666  0.00  0.00    +0.302 C 
ATOM      3  O   UNL     1      -0.587   1.469  -4.561  0.00  0.00    -0.253 OA
ATOM      4  N   UNL     1       0.282   3.364  -3.794  0.00  0.00    -0.285 N 
ATOM      5  C   UNL     1       1.083   4.056  -2.775  0.00  0.00    +0.109 C 
ATOM      6  C   UNL     1       0.315   5.294  -2.301  0.00  0.00    +0.020 C 
ATOM      7  C   UNL     1      -0.048   6.159  -3.511  0.00  0.00    +0.016 C 
ATOM      8  C   UNL     1      -0.949   5.363  -4.457  0.00  0.00    +0.092 C 
ATOM      9  C   UNL     1      -0.190   4.125  -4.958  0.00  0.00    +0.122 C 
ATOM     10  H   UNL     1       0.738   1.874  -1.802  0.00  0.00    +0.150 HD
ENDROOT
BRANCH   8  11
ATOM     11  C   UNL     1      -1.332   6.227  -5.632  0.00  0.00    +0.218 C 
ATOM     12  O   UNL     1      -0.924   7.367  -5.705  0.00  0.00    -0.275 OA
ATOM     13  N   UNL     1      -2.128   5.732  -6.600  0.00  0.00    -0.312 N 
ATOM     14  H   UNL     1      -2.454   4.821  -6.542  0.00  0.00    +0.149 HD
BRANCH  13  15
ATOM     15  C   UNL     1      -2.500   6.572  -7.742  0.00  0.00    +0.073 C 
ATOM     16  C   UNL     1      -3.960   6.536  -8.199  0.00  0.00    +0.024 C 
ATOM     17  C   UNL     1      -2.876   5.865  -9.046  0.00  0.00    +0.024 C 
ENDBRANCH  13  15
ENDBRANCH   8  11
BRANCH   1  18
ATOM     18  C   UNL     1       0.128  -0.053  -2.451  0.00  0.00    +0.094 C 
BRANCH  18  19
ATOM     19  C   UNL     1       0.720  -0.573  -1.139  0.00  0.00    -0.050 C 
ATOM     20  C   UNL     1       2.244  -0.335  -1.116  0.00  0.00    -0.010 C 
ATOM     21  C   UNL     1       2.813  -1.587  -0.404  0.00  0.00    -0.001 C 
ATOM     22  C   UNL     1       1.914  -2.727  -0.946  0.00  0.00    -0.001 C 
ATOM     23  C   UNL     1       0.510  -2.093  -1.031  0.00  0.00    -0.010 C 
BRANCH  19  25
ATOM     24  C   UNL     1      -1.351  -0.192   0.010  0.00  0.00    -0.096 C 
ATOM     25  N   UNL     1       0.087   0.105   0.001  0.00  0.00    +0.381 N 
ATOM     26  C   UNL     1       0.694  -0.372   1.251  0.00  0.00    -0.096 C 
ATOM     27  H   UNL     1       0.225   1.101  -0.081  0.00  0.00    -0.082 HD
ENDBRANCH  19  25
ENDBRANCH  18  19
ENDBRANCH   1  18
TORSDOF 5
