REMARK  Name = ZINC38732378
REMARK  6 active torsions:
REMARK  status: ('A' for Active; 'I' for Inactive)
REMARK    1  A    between atoms: C_7  and  C_10
REMARK    2  A    between atoms: C_10  and  C_11
REMARK    3  A    between atoms: C_11  and  C_13
REMARK    4  A    between atoms: C_11  and  N_16
REMARK    5  A    between atoms: C_17  and  C_19
REMARK    6  A    between atoms: C_25  and  C_27
REMARK                            x       y       z     vdW  Elec       q    Type
REMARK                         _______ _______ _______ _____ _____    ______ ____
ROOT
ATOM      1  N   UNL     1      -2.320   3.432  -1.731  0.00  0.00    -0.303 N 
ATOM      2  C   UNL     1      -2.427   3.487  -3.073  0.00  0.00    +0.217 C 
ATOM      3  O   UNL     1      -3.508   3.335  -3.602  0.00  0.00    -0.275 OA
ATOM      4  H   UNL     1      -1.456   3.553  -1.308  0.00  0.00    +0.149 HD
ENDROOT
BRANCH   2   5
ATOM      5  C   UNL     1      -1.204   3.738  -3.917  0.00  0.00    +0.087 C 
ATOM      6  C   UNL     1      -0.592   5.088  -3.538  0.00  0.00    +0.013 C 
ATOM      7  C   UNL     1      -1.616   6.199  -3.782  0.00  0.00    +0.001 C 
ATOM      8  C   UNL     1      -2.010   6.213  -5.260  0.00  0.00    +0.001 C 
ATOM      9  C   UNL     1      -2.622   4.863  -5.639  0.00  0.00    +0.013 C 
ATOM     10  C   UNL     1      -1.598   3.753  -5.395  0.00  0.00    +0.087 C 
BRANCH  10  11
ATOM     11  C   UNL     1      -2.201   2.423  -5.768  0.00  0.00    +0.219 C 
ATOM     12  O   UNL     1      -3.406   2.291  -5.801  0.00  0.00    -0.275 OA
ATOM     13  N   UNL     1      -1.401   1.379  -6.063  0.00  0.00    -0.298 N 
ATOM     14  C   UNL     1       0.058   1.490  -5.917  0.00  0.00    +0.126 C 
ATOM     15  C   UNL     1       0.546   0.361  -5.001  0.00  0.00    +0.125 C 
ATOM     16  N   UNL     1      -0.024  -0.908  -5.475  0.00  0.00    -0.314 N 
ATOM     17  C   UNL     1      -1.482  -1.018  -5.621  0.00  0.00    +0.125 C 
ATOM     18  C   UNL     1      -1.971   0.109  -6.532  0.00  0.00    +0.126 C 
ATOM     19  C   UNL     1       0.801  -1.984  -5.780  0.00  0.00    +0.099 A 
ATOM     20  C   UNL     1       2.163  -1.907  -5.506  0.00  0.00    +0.042 A 
ATOM     21  C   UNL     1       2.973  -2.985  -5.814  0.00  0.00    +0.005 A 
ATOM     22  C   UNL     1       2.391  -4.108  -6.389  0.00  0.00    +0.018 A 
ATOM     23  C   UNL     1       1.033  -4.115  -6.634  0.00  0.00    +0.084 A 
ATOM     24  N   UNL     1       0.283  -3.074  -6.324  0.00  0.00    -0.350 N 
ATOM     25  H   UNL     1      -0.669  -3.107  -6.503  0.00  0.00    +0.166 HD
ENDBRANCH  10  11
ENDBRANCH   2   5
BRANCH   1  26
ATOM     26  C   UNL     1      -3.510   3.187  -0.911  0.00  0.00    +0.163 C 
BRANCH  26  27
ATOM     27  C   UNL     1      -4.220   4.492  -0.656  0.00  0.00    +0.231 C 
ATOM     28  O   UNL     1      -3.777   5.523  -1.114  0.00  0.00    -0.274 OA
ATOM     29  N   UNL     1      -5.348   4.511   0.081  0.00  0.00    -0.328 N 
ATOM     30  H   UNL     1      -5.703   3.686   0.448  0.00  0.00    +0.145 HD
ATOM     31  H   UNL     1      -5.806   5.351   0.246  0.00  0.00    +0.145 HD
ENDBRANCH  26  27
BRANCH  26  32
ATOM     32  C   UNL     1      -3.091   2.566   0.423  0.00  0.00    +0.069 C 
BRANCH  32  39
ATOM     33  C   UNL     1       1.224   1.121  -0.703  0.00  0.00    +0.001 A 
ATOM     34  C   UNL     1       1.317  -0.258  -0.832  0.00  0.00    +0.002 A 
ATOM     35  C   UNL     1       0.212  -1.058  -0.634  0.00  0.00    +0.026 A 
ATOM     36  C   UNL     1      -1.009  -0.480  -0.302  0.00  0.00    +0.047 A 
ATOM     37  N   UNL     1      -2.262  -0.991  -0.048  0.00  0.00    -0.360 N 
ATOM     38  C   UNL     1      -3.131   0.027   0.235  0.00  0.00    +0.087 A 
ATOM     39  C   UNL     1      -2.490   1.206   0.177  0.00  0.00    -0.020 A 
ATOM     40  C   UNL     1      -1.097   0.918  -0.173  0.00  0.00    +0.003 A 
ATOM     41  C   UNL     1       0.036   1.709  -0.372  0.00  0.00    +0.010 A 
ATOM     42  H   UNL     1      -2.494  -1.933  -0.067  0.00  0.00    +0.165 HD
ENDBRANCH  32  39
ENDBRANCH  26  32
ENDBRANCH   1  26
TORSDOF 6
