REMARK  Name = ZINC40288358
REMARK  4 active torsions:
REMARK  status: ('A' for Active; 'I' for Inactive)
REMARK    1  A    between atoms: C_3  and  N_8
REMARK    2  A    between atoms: C_14  and  O_26
REMARK    3  A    between atoms: C_16  and  C_18
REMARK    4  A    between atoms: C_21  and  C_24
REMARK                            x       y       z     vdW  Elec       q    Type
REMARK                         _______ _______ _______ _____ _____    ______ ____
ROOT
ATOM      1  N   UNL     1       3.586   2.129  -0.021  0.00  0.00    -0.283 N 
ATOM      2  C   UNL     1       3.914   3.159  -0.855  0.00  0.00    +0.206 A 
ATOM      3  N   UNL     1       5.120   3.578  -0.559  0.00  0.00    -0.237 NA
ATOM      4  C   UNL     1       5.603   2.859   0.445  0.00  0.00    +0.094 A 
ATOM      5  C   UNL     1       4.653   1.937   0.806  0.00  0.00    +0.165 A 
ATOM      6  N   UNL     1       4.862   1.043   1.815  0.00  0.00    -0.197 NA
ATOM      7  C   UNL     1       5.827   1.261   2.659  0.00  0.00    +0.190 C 
ATOM      8  C   UNL     1       6.710   2.474   2.606  0.00  0.00    +0.110 C 
ATOM      9  C   UNL     1       6.929   2.943   1.159  0.00  0.00    +0.080 C 
ENDROOT
BRANCH   1  12
ATOM     10  C   UNL     1      -0.017   1.378   0.010  0.00  0.00    +0.005 A 
ATOM     11  C   UNL     1       1.169   2.087   0.002  0.00  0.00    +0.026 A 
ATOM     12  C   UNL     1       2.381   1.411  -0.013  0.00  0.00    +0.052 A 
ATOM     13  C   UNL     1       2.400   0.023  -0.021  0.00  0.00    +0.064 A 
ATOM     14  C   UNL     1       1.210  -0.682  -0.013  0.00  0.00    +0.125 A 
ATOM     15  C   UNL     1       0.002  -0.004   0.002  0.00  0.00    +0.038 A 
ATOM     16  F   UNL     1       1.225  -2.033  -0.021  0.00  0.00    -0.205 F 
ENDBRANCH   1  12
BRANCH   9  17
ATOM     17  C   UNL     1       7.936   2.059   0.470  0.00  0.00    -0.038 A 
ATOM     18  C   UNL     1       7.700   0.701   0.359  0.00  0.00    +0.005 A 
ATOM     19  C   UNL     1       8.618  -0.114  -0.270  0.00  0.00    +0.019 A 
ATOM     20  C   UNL     1       9.788   0.436  -0.798  0.00  0.00    +0.052 A 
ATOM     21  C   UNL     1      10.020   1.808  -0.683  0.00  0.00    +0.019 A 
ATOM     22  C   UNL     1       9.091   2.612  -0.055  0.00  0.00    +0.005 A 
BRANCH  20  23
ATOM     23  C   UNL     1      10.745  -0.404  -1.452  0.00  0.00    +0.099 C 
ATOM     24  N   UNL     1      11.505  -1.070  -1.972  0.00  0.00    -0.191 NA
ENDBRANCH  20  23
ENDBRANCH   9  17
BRANCH   7  25
ATOM     25  O   UNL     1       6.045   0.352   3.633  0.00  0.00    -0.495 OA
ATOM     26  H   UNL     1       5.441  -0.403   3.608  0.00  0.00    +0.293 HD
ENDBRANCH   7  25
TORSDOF 4
