REMARK  Name = ZINC49819880
REMARK  4 active torsions:
REMARK  status: ('A' for Active; 'I' for Inactive)
REMARK    1  A    between atoms: C_1  and  N_2
REMARK    2  A    between atoms: N_2  and  C_3
REMARK    3  A    between atoms: N_2  and  C_6
REMARK    4  A    between atoms: C_3  and  C_4
REMARK                            x       y       z     vdW  Elec       q    Type
REMARK                         _______ _______ _______ _____ _____    ______ ____
ROOT
ATOM      1  C   UNL     1       0.000  -0.696  -1.211  0.00  0.00    +0.031 A 
ATOM      2  C   UNL     1       0.013  -2.085  -1.221  0.00  0.00    +0.023 A 
ATOM      3  C   UNL     1       0.011  -2.767  -2.422  0.00  0.00    +0.003 A 
ATOM      4  C   UNL     1      -0.004  -2.068  -3.615  0.00  0.00    +0.015 A 
ATOM      5  C   UNL     1      -0.017  -0.684  -3.610  0.00  0.00    +0.020 A 
ATOM      6  C   UNL     1      -0.021   0.003  -2.411  0.00  0.00    +0.038 A 
ATOM      7 BR   UNL     1      -0.036   0.266  -5.244  0.00  0.00    -0.050 Br
ENDROOT
BRANCH   1   9
ATOM      8  C   UNL     1      -0.018   1.461   0.010  0.00  0.00    +0.130 C 
ATOM      9  N   UNL     1       0.002  -0.004   0.002  0.00  0.00    -0.320 N 
BRANCH   9  10
ATOM     10  C   UNL     1       0.024  -0.743   1.267  0.00  0.00    +0.223 C 
BRANCH  10  11
ATOM     11  C   UNL     1      -1.356  -1.010   1.703  0.00  0.00    +0.082 C 
ATOM     12  N   UNL     1      -2.421  -1.215   2.040  0.00  0.00    -0.195 NA
ENDBRANCH  10  11
ENDBRANCH   9  10
ENDBRANCH   1   9
TORSDOF 3
