REMARK  Name = ZINC09442881
REMARK  11 active torsions:
REMARK  status: ('A' for Active; 'I' for Inactive)
REMARK    1  A    between atoms: C_1  and  C_2
REMARK    2  A    between atoms: C_2  and  C_4
REMARK    3  A    between atoms: C_2  and  O_17
REMARK    4  A    between atoms: N_6  and  C_7
REMARK    5  A    between atoms: C_7  and  C_8
REMARK    6  A    between atoms: O_17  and  C_18
REMARK    7  A    between atoms: C_18  and  C_20
REMARK    8  A    between atoms: C_24  and  N_25
REMARK    9  A    between atoms: C_26  and  C_28
REMARK   10  A    between atoms: C_28  and  C_29
REMARK   11  A    between atoms: C_28  and  C_30
REMARK                            x       y       z     vdW  Elec       q    Type
REMARK                         _______ _______ _______ _____ _____    ______ ____
ROOT
ATOM      1  O   UNL     1       0.693  -0.477   1.160  0.00  0.00    -0.449 OA
ENDROOT
BRANCH   1   3
ATOM      2  C   UNL     1      -0.019   1.526   0.010  0.00  0.00    +0.062 C 
ATOM      3  C   UNL     1       0.002  -0.004   0.002  0.00  0.00    +0.259 C 
BRANCH   3   4
ATOM      4  C   UNL     1      -1.412  -0.526   0.013  0.00  0.00    +0.254 C 
ATOM      5  O   UNL     1      -1.818  -1.157   0.965  0.00  0.00    -0.272 OA
ATOM      6  N   UNL     1      -2.225  -0.290  -1.036  0.00  0.00    -0.308 N 
ATOM      7  H   UNL     1      -1.900   0.215  -1.798  0.00  0.00    +0.149 HD
BRANCH   6   8
ATOM      8  C   UNL     1      -3.599  -0.798  -1.026  0.00  0.00    +0.139 C 
BRANCH   8   9
ATOM      9  C   UNL     1      -4.290  -0.401  -2.305  0.00  0.00    -0.027 A 
ATOM     10  C   UNL     1      -4.973   0.799  -2.377  0.00  0.00    +0.009 A 
ATOM     11  C   UNL     1      -5.609   1.167  -3.548  0.00  0.00    +0.050 A 
ATOM     12  C   UNL     1      -5.563   0.333  -4.653  0.00  0.00    +0.166 A 
ATOM     13  C   UNL     1      -4.875  -0.876  -4.581  0.00  0.00    +0.167 A 
ATOM     14  C   UNL     1      -4.236  -1.236  -3.405  0.00  0.00    +0.054 A 
ATOM     15  O   UNL     1      -4.977  -1.508  -5.786  0.00  0.00    -0.453 OA
ATOM     16  C   UNL     1      -6.073  -0.868  -6.465  0.00  0.00    +0.466 C 
ATOM     17  O   UNL     1      -6.095   0.458  -5.904  0.00  0.00    -0.453 OA
ENDBRANCH   8   9
ENDBRANCH   6   8
ENDBRANCH   3   4
ENDBRANCH   1   3
BRANCH   1  18
ATOM     18  C   UNL     1       2.024  -0.663   1.045  0.00  0.00    +0.343 C 
ATOM     19  O   UNL     1       2.582  -0.429  -0.010  0.00  0.00    -0.245 OA
BRANCH  18  20
ATOM     20  C   UNL     1       2.798  -1.146   2.191  0.00  0.00    +0.091 A 
ATOM     21  C   UNL     1       3.009  -2.575   2.419  0.00  0.00    -0.021 A 
ATOM     22  C   UNL     1       3.738  -2.854   3.514  0.00  0.00    -0.004 A 
ATOM     23  S   UNL     1       4.128  -1.268   4.209  0.00  0.00    -0.077 S 
ATOM     24  C   UNL     1       3.363  -0.270   3.099  0.00  0.00    +0.086 A 
ATOM     25  C   UNL     1       3.921  -4.336   3.703  0.00  0.00    +0.043 C 
ATOM     26  C   UNL     1       2.841  -4.980   2.807  0.00  0.00    +0.010 C 
ATOM     27  C   UNL     1       2.624  -3.888   1.740  0.00  0.00    +0.037 C 
BRANCH  24  28
ATOM     28  N   UNL     1       3.309   1.115   3.095  0.00  0.00    -0.279 N 
ATOM     29  C   UNL     1       3.924   1.817   4.068  0.00  0.00    +0.220 C 
ATOM     30  O   UNL     1       4.524   1.236   4.947  0.00  0.00    -0.275 OA
ATOM     31  H   UNL     1       2.829   1.580   2.392  0.00  0.00    +0.155 HD
BRANCH  29  32
ATOM     32  C   UNL     1       3.865   3.323   4.064  0.00  0.00    +0.069 C 
ATOM     33  C   UNL     1       4.637   3.867   5.267  0.00  0.00    +0.017 C 
ATOM     34  C   UNL     1       4.491   3.854   2.773  0.00  0.00    +0.017 C 
ENDBRANCH  29  32
ENDBRANCH  24  28
ENDBRANCH  18  20
ENDBRANCH   1  18
TORSDOF 8
