REMARK  Name = ZINC06108830
REMARK  5 active torsions:
REMARK  status: ('A' for Active; 'I' for Inactive)
REMARK    1  A    between atoms: C_1  and  C_2
REMARK    2  A    between atoms: C_2  and  C_4
REMARK    3  A    between atoms: C_2  and  S_11
REMARK    4  A    between atoms: N_9  and  C_10
REMARK    5  A    between atoms: S_11  and  C_12
REMARK                            x       y       z     vdW  Elec       q    Type
REMARK                         _______ _______ _______ _____ _____    ______ ____
ROOT
ATOM      1  C   UNL     1       2.752   5.766  -1.208  0.00  0.00    +0.192 A 
ATOM      2  N   UNL     1       1.449   5.534  -1.264  0.00  0.00    -0.207 NA
ATOM      3  C   UNL     1       0.873   4.426  -0.806  0.00  0.00    +0.129 A 
ATOM      4  C   UNL     1       1.748   3.459  -0.231  0.00  0.00    +0.051 A 
ATOM      5  C   UNL     1       1.379   2.172   0.338  0.00  0.00    -0.025 A 
ATOM      6  C   UNL     1       2.386   1.416   0.830  0.00  0.00    -0.004 A 
ATOM      7  S   UNL     1       3.860   2.368   0.563  0.00  0.00    -0.073 S 
ATOM      8  C   UNL     1       3.129   3.777  -0.206  0.00  0.00    +0.115 A 
ATOM      9  N   UNL     1       3.624   4.903  -0.682  0.00  0.00    -0.214 NA
ATOM     10  C   UNL     1       2.277   0.063   1.463  0.00  0.00    +0.043 C 
ATOM     11  C   UNL     1       0.805  -0.195   1.812  0.00  0.00    +0.005 C 
ATOM     12  C   UNL     1      -0.056   0.159   0.597  0.00  0.00    +0.005 C 
ATOM     13  C   UNL     1      -0.063   1.674   0.390  0.00  0.00    +0.037 C 
ATOM     14  N   UNL     1      -0.493   4.223  -0.885  0.00  0.00    -0.343 N 
ATOM     15  H   UNL     1      -1.030   4.765  -1.485  0.00  0.00    +0.144 HD
ATOM     16  H   UNL     1      -0.914   3.541  -0.340  0.00  0.00    +0.144 HD
ENDROOT
BRANCH   1  17
ATOM     17  S   UNL     1       3.364   7.286  -1.858  0.00  0.00    -0.073 S 
BRANCH  17  19
ATOM     18  C   UNL     1       1.220   7.196  -3.549  0.00  0.00    +0.029 C 
ATOM     19  C   UNL     1       1.814   8.035  -2.416  0.00  0.00    +0.137 C 
BRANCH  19  20
ATOM     20  C   UNL     1       2.082   9.432  -2.914  0.00  0.00    +0.233 C 
ATOM     21  O   UNL     1       3.184   9.729  -3.322  0.00  0.00    -0.274 OA
ATOM     22  N   UNL     1       1.097  10.351  -2.905  0.00  0.00    -0.239 N 
ATOM     23  C   UNL     1       1.337  11.601  -3.350  0.00  0.00    +0.306 C 
ATOM     24  O   UNL     1       2.442  11.899  -3.759  0.00  0.00    -0.252 OA
ATOM     25  N   UNL     1       0.351  12.520  -3.341  0.00  0.00    -0.302 N 
ATOM     26  C   UNL     1       0.612  13.878  -3.825  0.00  0.00    +0.129 C 
ATOM     27  H   UNL     1       0.215  10.114  -2.578  0.00  0.00    +0.159 HD
ATOM     28  H   UNL     1      -0.531  12.283  -3.014  0.00  0.00    +0.150 HD
ENDBRANCH  19  20
ENDBRANCH  17  19
ENDBRANCH   1  17
TORSDOF 3
