REMARK  Name = ZINC39425870
REMARK  11 active torsions:
REMARK  status: ('A' for Active; 'I' for Inactive)
REMARK    1  A    between atoms: C_1  and  C_2
REMARK    2  A    between atoms: C_2  and  C_3
REMARK    3  A    between atoms: C_3  and  C_5
REMARK    4  A    between atoms: C_3  and  S_19
REMARK    5  A    between atoms: N_7  and  C_8
REMARK    6  A    between atoms: C_9  and  C_17
REMARK    7  A    between atoms: S_19  and  C_20
REMARK    8  A    between atoms: C_21  and  C_35
REMARK    9  A    between atoms: C_22  and  C_29
REMARK   10  A    between atoms: C_23  and  C_27
REMARK   11  A    between atoms: C_24  and  N_26
REMARK                            x       y       z     vdW  Elec       q    Type
REMARK                         _______ _______ _______ _____ _____    ______ ____
ROOT
ATOM      1  S   UNL     1       2.381  -0.124  -1.343  0.00  0.00    -0.092 S 
ENDROOT
BRANCH   1   2
ATOM      2  C   UNL     1       2.863  -0.474  -3.001  0.00  0.00    +0.118 A 
ATOM      3  C   UNL     1       4.180  -0.196  -3.415  0.00  0.00    +0.093 A 
ATOM      4  C   UNL     1       4.552  -0.481  -4.743  0.00  0.00    +0.023 A 
ATOM      5  C   UNL     1       3.580  -1.034  -5.600  0.00  0.00    +0.100 A 
ATOM      6  C   UNL     1       2.288  -1.277  -5.098  0.00  0.00    +0.136 A 
ATOM      7  N   UNL     1       1.983  -0.999  -3.841  0.00  0.00    -0.224 NA
BRANCH   4   8
ATOM      8  C   UNL     1       5.924  -0.206  -5.225  0.00  0.00    -0.015 A 
ATOM      9  C   UNL     1       6.395   1.106  -5.287  0.00  0.00    +0.008 A 
ATOM     10  C   UNL     1       7.676   1.355  -5.737  0.00  0.00    +0.001 A 
ATOM     11  C   UNL     1       8.492   0.307  -6.125  0.00  0.00    +0.000 A 
ATOM     12  C   UNL     1       8.030  -0.996  -6.065  0.00  0.00    +0.001 A 
ATOM     13  C   UNL     1       6.754  -1.259  -5.613  0.00  0.00    +0.008 A 
ENDBRANCH   4   8
BRANCH   6  14
ATOM     14  N   UNL     1       1.326  -1.819  -5.928  0.00  0.00    -0.342 N 
ATOM     15  H   UNL     1       1.544  -2.029  -6.849  0.00  0.00    +0.144 HD
ATOM     16  H   UNL     1       0.434  -1.989  -5.588  0.00  0.00    +0.144 HD
ENDBRANCH   6  14
BRANCH   5  17
ATOM     17  C   UNL     1       3.901  -1.343  -6.961  0.00  0.00    +0.103 C 
ATOM     18  N   UNL     1       4.156  -1.588  -8.040  0.00  0.00    -0.191 NA
ENDBRANCH   5  17
BRANCH   3  19
ATOM     19  C   UNL     1       5.126   0.367  -2.499  0.00  0.00    +0.102 C 
ATOM     20  N   UNL     1       5.877   0.814  -1.772  0.00  0.00    -0.191 NA
ENDBRANCH   3  19
ENDBRANCH   1   2
BRANCH   1  21
ATOM     21  C   UNL     1       0.624  -0.575  -1.292  0.00  0.00    +0.139 C 
BRANCH  21  22
ATOM     22  C   UNL     1       0.484  -2.068  -1.437  0.00  0.00    +0.231 C 
ATOM     23  O   UNL     1       1.398  -2.797  -1.115  0.00  0.00    -0.274 OA
ATOM     24  N   UNL     1      -0.657  -2.594  -1.925  0.00  0.00    -0.278 N 
ATOM     25  H   UNL     1      -1.388  -2.011  -2.183  0.00  0.00    +0.155 HD
BRANCH  24  26
ATOM     26  C   UNL     1      -0.786  -3.970  -2.058  0.00  0.00    +0.090 A 
ATOM     27  C   UNL     1      -1.873  -4.680  -2.541  0.00  0.00    +0.084 A 
ATOM     28  C   UNL     1      -1.757  -6.127  -2.580  0.00  0.00    -0.018 A 
ATOM     29  C   UNL     1      -0.574  -6.598  -2.127  0.00  0.00    -0.004 A 
ATOM     30  S   UNL     1       0.342  -5.154  -1.678  0.00  0.00    -0.077 S 
ATOM     31  C   UNL     1      -0.152  -8.033  -2.039  0.00  0.00    +0.043 C 
ATOM     32  C   UNL     1      -1.402  -8.913  -2.186  0.00  0.00    +0.005 C 
ATOM     33  C   UNL     1      -2.213  -8.425  -3.390  0.00  0.00    +0.005 C 
ATOM     34  C   UNL     1      -2.845  -7.067  -3.078  0.00  0.00    +0.037 C 
BRANCH  27  35
ATOM     35  C   UNL     1      -3.061  -4.015  -2.983  0.00  0.00    +0.102 C 
ATOM     36  N   UNL     1      -4.004  -3.488  -3.334  0.00  0.00    -0.191 NA
ENDBRANCH  27  35
ENDBRANCH  24  26
ENDBRANCH  21  22
BRANCH  21  38
ATOM     37  C   UNL     1       0.038   1.394   0.129  0.00  0.00    +0.005 C 
ATOM     38  C   UNL     1       0.023  -0.133   0.043  0.00  0.00    +0.020 C 
ENDBRANCH  21  38
ENDBRANCH   1  21
TORSDOF 10
