REMARK  Name = ZINC09219332
REMARK  4 active torsions:
REMARK  status: ('A' for Active; 'I' for Inactive)
REMARK    1  A    between atoms: C_1  and  C_2
REMARK    2  A    between atoms: C_7  and  C_11
REMARK    3  A    between atoms: C_11  and  N_12
REMARK    4  A    between atoms: C_20  and  C_22
REMARK                            x       y       z     vdW  Elec       q    Type
REMARK                         _______ _______ _______ _____ _____    ______ ____
ROOT
ATOM      1  N   UNL     1       0.707   3.079   0.011  0.00  0.00    -0.218 N 
ATOM      2  C   UNL     1      -0.634   3.231   0.024  0.00  0.00    +0.247 C 
ATOM      3  O   UNL     1      -1.255   4.272   0.035  0.00  0.00    -0.273 OA
ATOM      4  C   UNL     1      -1.199   1.829   0.017  0.00  0.00    +0.115 C 
ATOM      5  C   UNL     1      -2.038   1.597  -1.235  0.00  0.00    +0.035 C 
ATOM      6  C   UNL     1      -2.569   0.161  -1.235  0.00  0.00    +0.003 C 
ATOM      7  C   UNL     1      -3.417  -0.067   0.017  0.00  0.00    +0.000 C 
ATOM      8  C   UNL     1      -2.558   0.149   1.265  0.00  0.00    +0.006 C 
ATOM      9  C   UNL     1      -2.026   1.585   1.274  0.00  0.00    +0.018 C 
ATOM     10  C   UNL     1      -1.150   1.796   2.510  0.00  0.00    +0.010 C 
ATOM     11  N   UNL     1      -0.011   0.966   0.007  0.00  0.00    -0.285 N 
ATOM     12  C   UNL     1       1.056   1.787   0.002  0.00  0.00    +0.310 C 
ATOM     13  O   UNL     1       2.208   1.399  -0.011  0.00  0.00    -0.252 OA
ATOM     14  H   UNL     1       0.002  -0.004   0.002  0.00  0.00    +0.151 HD
ENDROOT
BRANCH   1  15
ATOM     15  C   UNL     1       1.661   4.191   0.008  0.00  0.00    +0.175 C 
BRANCH  15  22
ATOM     16  C   UNL     1       2.204   7.048  -6.786  0.00  0.00    +0.045 C 
ATOM     17  C   UNL     1       2.454   6.180  -5.580  0.00  0.00    -0.034 A 
ATOM     18  C   UNL     1       3.439   5.179  -5.632  0.00  0.00    +0.008 A 
ATOM     19  C   UNL     1       3.663   4.397  -4.542  0.00  0.00    +0.047 A 
ATOM     20  C   UNL     1       2.899   4.604  -3.375  0.00  0.00    +0.138 A 
ATOM     21  N   UNL     1       2.903   4.013  -2.189  0.00  0.00    -0.231 NA
ATOM     22  C   UNL     1       1.975   4.579  -1.413  0.00  0.00    +0.078 A 
ATOM     23  C   UNL     1       1.369   5.563  -2.114  0.00  0.00    +0.117 A 
ATOM     24  N   UNL     1       1.945   5.588  -3.355  0.00  0.00    -0.306 N 
ATOM     25  C   UNL     1       1.731   6.366  -4.456  0.00  0.00    +0.096 A 
ENDBRANCH  15  22
ENDBRANCH   1  15
TORSDOF 2
