REMARK  Name = ZINC20367754
REMARK  7 active torsions:
REMARK  status: ('A' for Active; 'I' for Inactive)
REMARK    1  A    between atoms: C_1  and  C_2
REMARK    2  A    between atoms: C_5  and  N_8
REMARK    3  A    between atoms: C_9  and  C_11
REMARK    4  A    between atoms: C_11  and  S_12
REMARK    5  A    between atoms: S_12  and  C_13
REMARK    6  A    between atoms: N_20  and  N_21
REMARK    7  A    between atoms: C_22  and  C_23
REMARK                            x       y       z     vdW  Elec       q    Type
REMARK                         _______ _______ _______ _____ _____    ______ ____
ROOT
ATOM      1  C   UNL     1       3.989  -6.564  -0.530  0.00  0.00    +0.214 A 
ATOM      2  N   UNL     1       2.873  -7.255  -0.519  0.00  0.00    -0.119 NA
ATOM      3  N   UNL     1       3.130  -8.509  -0.638  0.00  0.00    -0.106 NA
ATOM      4  C   UNL     1       4.424  -8.695  -0.724  0.00  0.00    +0.275 A 
ATOM      5  N   UNL     1       5.013  -7.458  -0.658  0.00  0.00    -0.169 N 
ATOM      6  N   UNL     1       6.393  -7.650  -0.749  0.00  0.00    -0.150 NA
ATOM      7  C   UNL     1       6.633  -8.918  -0.863  0.00  0.00    +0.249 A 
ATOM      8  N   UNL     1       5.449  -9.610  -0.853  0.00  0.00    -0.184 N 
ENDROOT
BRANCH   8   9
ATOM      9  N   UNL     1       5.304 -10.999  -0.956  0.00  0.00    -0.170 NA
ATOM     10  C   UNL     1       6.354 -11.754  -1.074  0.00  0.00    +0.141 C 
BRANCH  10  11
ATOM     11  C   UNL     1       6.203 -13.216  -1.182  0.00  0.00    -0.005 A 
ATOM     12  C   UNL     1       4.931 -13.794  -1.152  0.00  0.00    +0.011 A 
ATOM     13  C   UNL     1       4.796 -15.162  -1.259  0.00  0.00    +0.020 A 
ATOM     14  C   UNL     1       5.918 -15.964  -1.385  0.00  0.00    +0.041 A 
ATOM     15  C   UNL     1       7.182 -15.399  -1.409  0.00  0.00    +0.020 A 
ATOM     16  C   UNL     1       7.331 -14.031  -1.309  0.00  0.00    +0.011 A 
ATOM     17 CL   UNL     1       5.739 -17.686  -1.512  0.00  0.00    -0.084 Cl
ENDBRANCH  10  11
ENDBRANCH   8   9
BRANCH   1  18
ATOM     18  S   UNL     1       4.139  -4.814  -0.398  0.00  0.00    -0.075 S 
BRANCH  18  19
ATOM     19  C   UNL     1       2.425  -4.236  -0.258  0.00  0.00    +0.173 C 
BRANCH  19  21
ATOM     20  N   UNL     1       1.237  -2.079  -0.020  0.00  0.00    -0.285 N 
ATOM     21  C   UNL     1       2.410  -2.734  -0.137  0.00  0.00    +0.227 C 
ATOM     22  O   UNL     1       3.452  -2.114  -0.144  0.00  0.00    -0.275 OA
ATOM     23  H   UNL     1       0.298  -2.645   0.073  0.00  0.00    +0.155 HD
BRANCH  20  28
ATOM     24  C   UNL     1       1.143   3.593  -0.015  0.00  0.00    +0.044 C 
ATOM     25  C   UNL     1       1.168   2.086  -0.017  0.00  0.00    -0.050 A 
ATOM     26  C   UNL     1       2.111   1.412  -0.771  0.00  0.00    +0.005 A 
ATOM     27  C   UNL     1       2.137   0.031  -0.774  0.00  0.00    +0.023 A 
ATOM     28  C   UNL     1       1.214  -0.680  -0.019  0.00  0.00    +0.033 A 
ATOM     29  C   UNL     1       0.268  -0.001   0.737  0.00  0.00    +0.023 A 
ATOM     30  C   UNL     1       0.248   1.380   0.736  0.00  0.00    +0.005 A 
ENDBRANCH  20  28
ENDBRANCH  19  21
ENDBRANCH  18  19
ENDBRANCH   1  18
TORSDOF 6
