REMARK  Name = ZINC09882113
REMARK  6 active torsions:
REMARK  status: ('A' for Active; 'I' for Inactive)
REMARK    1  A    between atoms: C_1  and  C_2
REMARK    2  A    between atoms: C_2  and  N_3
REMARK    3  A    between atoms: C_4  and  C_25
REMARK    4  A    between atoms: C_7  and  S_8
REMARK    5  A    between atoms: S_8  and  C_9
REMARK    6  A    between atoms: C_9  and  C_10
REMARK                            x       y       z     vdW  Elec       q    Type
REMARK                         _______ _______ _______ _____ _____    ______ ____
ROOT
ATOM      1  C   UNL     1      -0.046   2.168   2.217  0.00  0.00    +0.227 C 
ATOM      2  O   UNL     1      -0.656   2.635   3.155  0.00  0.00    -0.275 OA
ATOM      3  N   UNL     1      -0.712   1.566   1.212  0.00  0.00    -0.278 N 
ATOM      4  C   UNL     1      -0.201   1.589  -0.169  0.00  0.00    +0.204 C 
ATOM      5  C   UNL     1      -1.320   2.017  -1.084  0.00  0.00    +0.237 C 
ATOM      6  O   UNL     1      -1.053   2.528  -2.150  0.00  0.00    -0.274 OA
ATOM      7  N   UNL     1      -2.605   1.842  -0.743  0.00  0.00    -0.253 N 
ATOM      8  C   UNL     1      -2.990   1.327   0.434  0.00  0.00    +0.243 C 
ATOM      9  O   UNL     1      -4.172   1.238   0.686  0.00  0.00    -0.273 OA
ATOM     10  C   UNL     1      -1.980   0.858   1.448  0.00  0.00    +0.114 C 
ATOM     11  C   UNL     1      -1.757  -0.647   1.300  0.00  0.00    +0.035 C 
ATOM     12  C   UNL     1      -0.719  -1.112   2.323  0.00  0.00    +0.003 C 
ATOM     13  C   UNL     1      -1.222  -0.804   3.735  0.00  0.00    +0.000 C 
ATOM     14  C   UNL     1      -1.442   0.703   3.882  0.00  0.00    +0.003 C 
ATOM     15  C   UNL     1      -2.480   1.169   2.859  0.00  0.00    +0.035 C 
ATOM     16  H   UNL     1      -3.290   2.101  -1.379  0.00  0.00    +0.158 HD
ENDROOT
BRANCH   1  17
ATOM     17  C   UNL     1       1.458   2.262   2.174  0.00  0.00    +0.173 C 
BRANCH  17  18
ATOM     18  S   UNL     1       2.050   3.119   3.654  0.00  0.00    -0.077 S 
BRANCH  18  23
ATOM     19  N   UNL     1       4.760   3.606   4.159  0.00  0.00    -0.302 N 
ATOM     20  C   UNL     1       5.950   3.347   3.518  0.00  0.00    +0.171 A 
ATOM     21  N   UNL     1       5.657   2.713   2.404  0.00  0.00    -0.128 NA
ATOM     22  N   UNL     1       4.385   2.557   2.310  0.00  0.00    -0.122 NA
ATOM     23  C   UNL     1       3.786   3.088   3.351  0.00  0.00    +0.192 A 
BRANCH  20  24
ATOM     24  C   UNL     1       7.296   3.710   3.991  0.00  0.00    +0.056 A 
ATOM     25  C   UNL     1       8.516   3.249   3.564  0.00  0.00    +0.019 A 
ATOM     26  C   UNL     1       9.655   3.743   4.160  0.00  0.00    +0.008 A 
ATOM     27  C   UNL     1       9.536   4.660   5.155  0.00  0.00    +0.046 A 
ATOM     28  S   UNL     1       7.766   4.859   5.273  0.00  0.00    -0.094 S 
ENDBRANCH  20  24
BRANCH  19  30
ATOM     29  C   UNL     1       4.608   3.272   6.577  0.00  0.00    +0.027 C 
ATOM     30  C   UNL     1       4.574   4.294   5.439  0.00  0.00    +0.122 C 
ENDBRANCH  19  30
ENDBRANCH  18  23
ENDBRANCH  17  18
ENDBRANCH   1  17
TORSDOF 5
