REMARK  Name = ZINC39836261
REMARK  10 active torsions:
REMARK  status: ('A' for Active; 'I' for Inactive)
REMARK    1  A    between atoms: C_1  and  C_2
REMARK    2  A    between atoms: C_4  and  C_36
REMARK    3  A    between atoms: C_5  and  O_9
REMARK    4  A    between atoms: C_6  and  C_8
REMARK    5  A    between atoms: O_9  and  C_10
REMARK    6  A    between atoms: C_10  and  C_11
REMARK    7  A    between atoms: N_13  and  C_14
REMARK    8  A    between atoms: C_15  and  C_25
REMARK    9  A    between atoms: C_20  and  C_24
REMARK   10  A    between atoms: N_27  and  C_28
REMARK                            x       y       z     vdW  Elec       q    Type
REMARK                         _______ _______ _______ _____ _____    ______ ____
ROOT
ATOM      1  C   UNL     1       2.075  -8.442  -0.055  0.00  0.00    +0.084 A 
ATOM      2  C   UNL     1       3.060  -9.417  -0.059  0.00  0.00    +0.069 A 
ATOM      3  C   UNL     1       2.623 -10.802  -0.066  0.00  0.00    -0.023 A 
ATOM      4  C   UNL     1       1.281 -10.958  -0.067  0.00  0.00    -0.004 A 
ATOM      5  S   UNL     1       0.638  -9.310  -0.051  0.00  0.00    -0.077 S 
ATOM      6  C   UNL     1       0.526 -12.251  -0.076  0.00  0.00    +0.046 C 
ATOM      7  C   UNL     1       1.498 -13.375  -0.463  0.00  0.00    -0.009 C 
ATOM      8  C   UNL     1       2.773 -13.238   0.374  0.00  0.00    +0.008 C 
ATOM      9  C   UNL     1       3.558 -12.002  -0.071  0.00  0.00    +0.037 C 
ATOM     10  C   UNL     1       0.847 -14.732  -0.191  0.00  0.00    +0.008 C 
ENDROOT
BRANCH   1  13
ATOM     11  C   UNL     1       1.160  -6.258  -0.038  0.00  0.00    +0.255 C 
ATOM     12  O   UNL     1       0.045  -6.736  -0.035  0.00  0.00    -0.272 OA
ATOM     13  N   UNL     1       2.239  -7.065  -0.048  0.00  0.00    -0.277 N 
ATOM     14  H   UNL     1       3.131  -6.683  -0.051  0.00  0.00    +0.155 HD
BRANCH  11  15
ATOM     15  C   UNL     1       1.338  -4.761  -0.031  0.00  0.00    +0.324 C 
BRANCH  15  16
ATOM     16  O   UNL     1       0.057  -4.129  -0.021  0.00  0.00    -0.482 OA
BRANCH  16  21
ATOM     17  C   UNL     1      -0.018   1.503   0.010  0.00  0.00    +0.044 C 
ATOM     18  C   UNL     1       0.002  -0.004   0.002  0.00  0.00    -0.050 A 
ATOM     19  C   UNL     1       0.006  -0.688  -1.200  0.00  0.00    +0.010 A 
ATOM     20  C   UNL     1       0.024  -2.069  -1.210  0.00  0.00    -0.008 A 
ATOM     21  C   UNL     1       0.039  -2.770  -0.013  0.00  0.00    +0.127 A 
ATOM     22  C   UNL     1       0.036  -2.082   1.191  0.00  0.00    -0.008 A 
ATOM     23  C   UNL     1       0.023  -0.701   1.196  0.00  0.00    +0.010 A 
ATOM     24  C   UNL     1       0.052  -2.841   2.493  0.00  0.00    +0.047 C 
ATOM     25  C   UNL     1       0.027  -2.813  -2.520  0.00  0.00    +0.047 C 
ENDBRANCH  16  21
ENDBRANCH  15  16
ENDBRANCH  11  15
ENDBRANCH   1  13
BRANCH   2  26
ATOM     26  C   UNL     1       4.484  -9.065  -0.058  0.00  0.00    +0.247 C 
ATOM     27  O   UNL     1       5.075  -8.925   0.997  0.00  0.00    -0.270 OA
ATOM     28  N   UNL     1       5.137  -8.898  -1.225  0.00  0.00    -0.307 N 
ATOM     29  H   UNL     1       4.666  -9.010  -2.065  0.00  0.00    +0.149 HD
BRANCH  28  30
ATOM     30  C   UNL     1       6.560  -8.546  -1.223  0.00  0.00    +0.096 C 
ATOM     31  C   UNL     1       7.402  -9.828  -1.116  0.00  0.00    +0.046 C 
ATOM     32  C   UNL     1       8.881  -9.464  -1.431  0.00  0.00    +0.168 C 
ATOM     33  S   UNL     1       8.649  -8.295  -2.836  0.00  0.00    -0.029 S 
ATOM     34  O   UNL     1       8.716  -9.020  -4.056  0.00  0.00    -0.174 OA
ATOM     35  O   UNL     1       9.493  -7.168  -2.645  0.00  0.00    -0.174 OA
ATOM     36  C   UNL     1       6.905  -7.797  -2.533  0.00  0.00    +0.188 C 
ENDBRANCH  28  30
ENDBRANCH   2  26
TORSDOF 6
