REMARK  Name = ZINC35877266
REMARK  13 active torsions:
REMARK  status: ('A' for Active; 'I' for Inactive)
REMARK    1  A    between atoms: C_1  and  C_2
REMARK    2  A    between atoms: C_2  and  S_3
REMARK    3  A    between atoms: S_3  and  C_4
REMARK    4  A    between atoms: C_4  and  C_5
REMARK    5  A    between atoms: C_5  and  O_6
REMARK    6  A    between atoms: O_6  and  C_7
REMARK    7  A    between atoms: C_7  and  C_9
REMARK    8  A    between atoms: C_10  and  C_35
REMARK    9  A    between atoms: C_14  and  C_16
REMARK   10  A    between atoms: C_25  and  C_31
REMARK   11  A    between atoms: C_27  and  C_30
REMARK   12  A    between atoms: C_31  and  O_33
REMARK   13  A    between atoms: O_33  and  C_34
REMARK                            x       y       z     vdW  Elec       q    Type
REMARK                         _______ _______ _______ _____ _____    ______ ____
ROOT
ATOM      1  C   UNL     1       1.940  -6.622   3.382  0.00  0.00    +0.065 C 
ATOM      2  C   UNL     1       2.728  -7.316   4.222  0.00  0.00    +0.016 C 
ATOM      3  N   UNL     1       2.855  -8.671   4.092  0.00  0.00    -0.321 N 
ATOM      4  C   UNL     1       2.530  -9.293   2.917  0.00  0.00    +0.016 C 
ATOM      5  C   UNL     1       1.734  -8.680   2.014  0.00  0.00    +0.025 C 
ATOM      6  C   UNL     1       1.170  -7.307   2.292  0.00  0.00    +0.092 C 
ATOM      7  C   UNL     1       1.406  -9.301   0.797  0.00  0.00    +0.176 C 
ATOM      8  O   UNL     1       0.681  -8.725   0.010  0.00  0.00    -0.291 OA
ATOM      9  C   UNL     1       1.937 -10.665   0.450  0.00  0.00    +0.171 C 
ATOM     10  C   UNL     1       3.281 -10.872   1.154  0.00  0.00    +0.013 C 
ATOM     11  C   UNL     1       3.078 -10.674   2.658  0.00  0.00    +0.055 C 
ATOM     12  C   UNL     1       3.792 -12.289   0.882  0.00  0.00    +0.009 C 
ATOM     13  C   UNL     1       3.475  -6.595   5.314  0.00  0.00    +0.061 C 
ATOM     14  H   UNL     1       3.179  -9.196   4.840  0.00  0.00    +0.152 HD
ENDROOT
BRANCH   6  15
ATOM     15  C   UNL     1      -0.272  -7.435   2.709  0.00  0.00    -0.035 A 
ATOM     16  C   UNL     1      -0.601  -8.136   3.854  0.00  0.00    +0.005 A 
ATOM     17  C   UNL     1      -1.924  -8.252   4.237  0.00  0.00    +0.015 A 
ATOM     18  C   UNL     1      -2.919  -7.667   3.475  0.00  0.00    +0.018 A 
ATOM     19  C   UNL     1      -2.589  -6.966   2.329  0.00  0.00    +0.015 A 
ATOM     20  C   UNL     1      -1.266  -6.845   1.950  0.00  0.00    +0.005 A 
ATOM     21 BR   UNL     1      -4.729  -7.827   3.999  0.00  0.00    -0.050 Br
ENDBRANCH   6  15
BRANCH   1  22
ATOM     22  C   UNL     1       1.830  -5.220   3.533  0.00  0.00    +0.338 C 
ATOM     23  O   UNL     1       2.389  -4.478   2.747  0.00  0.00    -0.245 OA
BRANCH  22  24
ATOM     24  O   UNL     1       1.106  -4.705   4.549  0.00  0.00    -0.460 OA
BRANCH  24  25
ATOM     25  C   UNL     1       1.038  -3.281   4.641  0.00  0.00    +0.243 C 
BRANCH  25  26
ATOM     26  C   UNL     1       0.180  -2.887   5.845  0.00  0.00    +0.110 C 
BRANCH  26  27
ATOM     27  S   UNL     1       0.095  -1.079   5.961  0.00  0.00    -0.158 S 
BRANCH  27  29
ATOM     28  C   UNL     1      -1.100   0.724   7.635  0.00  0.00    +0.015 C 
ATOM     29  C   UNL     1      -0.944  -0.782   7.419  0.00  0.00    +0.066 C 
ENDBRANCH  27  29
ENDBRANCH  26  27
ENDBRANCH  25  26
ENDBRANCH  24  25
ENDBRANCH  22  24
ENDBRANCH   1  22
BRANCH   9  30
ATOM     30  C   UNL     1       2.125 -10.769  -1.042  0.00  0.00    +0.318 C 
ATOM     31  O   UNL     1       3.221 -10.993  -1.498  0.00  0.00    -0.250 OA
BRANCH  30  32
ATOM     32  O   UNL     1       1.075 -10.611  -1.864  0.00  0.00    -0.467 OA
ATOM     33  C   UNL     1       1.327 -10.722  -3.266  0.00  0.00    +0.280 C 
ENDBRANCH  30  32
ENDBRANCH   9  30
TORSDOF 9
