REMARK  Name = ZINC16038460
REMARK  6 active torsions:
REMARK  status: ('A' for Active; 'I' for Inactive)
REMARK    1  A    between atoms: C_1  and  O_2
REMARK    2  A    between atoms: O_2  and  C_3
REMARK    3  A    between atoms: C_6  and  C_9
REMARK    4  A    between atoms: C_9  and  C_11
REMARK    5  A    between atoms: C_13  and  C_27
REMARK    6  A    between atoms: C_15  and  N_24
REMARK                            x       y       z     vdW  Elec       q    Type
REMARK                         _______ _______ _______ _____ _____    ______ ____
ROOT
ATOM      1  C   UNL     1      -1.330   1.944   0.019  0.00  0.00    +0.174 C 
ATOM      2  C   UNL     1      -1.680   2.434  -1.409  0.00  0.00    +0.080 C 
ATOM      3  C   UNL     1      -3.234   2.446  -1.373  0.00  0.00    +0.205 C 
ATOM      4  C   UNL     1      -3.544   1.196  -0.530  0.00  0.00    +0.146 C 
ATOM      5  N   UNL     1      -2.411   1.040   0.406  0.00  0.00    -0.235 N 
ATOM      6  N   UNL     1      -2.486   0.182   1.516  0.00  0.00    -0.191 NA
ATOM      7  C   UNL     1      -3.671   0.087   2.071  0.00  0.00    +0.130 C 
ATOM      8  C   UNL     1      -4.795   0.868   1.545  0.00  0.00    +0.019 C 
ATOM      9  C   UNL     1      -4.773   1.403   0.322  0.00  0.00    +0.001 C 
ENDROOT
BRANCH   2  10
ATOM     10  C   UNL     1      -1.135   3.817  -1.653  0.00  0.00    -0.040 A 
ATOM     11  C   UNL     1      -1.545   4.871  -0.858  0.00  0.00    +0.005 A 
ATOM     12  C   UNL     1      -1.042   6.140  -1.078  0.00  0.00    +0.015 A 
ATOM     13  C   UNL     1      -0.137   6.357  -2.101  0.00  0.00    +0.018 A 
ATOM     14  C   UNL     1       0.269   5.303  -2.900  0.00  0.00    +0.015 A 
ATOM     15  C   UNL     1      -0.230   4.034  -2.675  0.00  0.00    +0.005 A 
ATOM     16 BR   UNL     1       0.546   8.093  -2.407  0.00  0.00    -0.050 Br
ENDBRANCH   2  10
BRANCH   3  17
ATOM     17  N   UNL     1      -3.790   2.318  -2.722  0.00  0.00    +0.028 N 
ATOM     18  O   UNL     1      -3.538   1.334  -3.394  0.00  0.00    -0.131 OA
ATOM     19  O   UNL     1      -4.504   3.196  -3.172  0.00  0.00    -0.131 OA
ENDBRANCH   3  17
BRANCH   1  20
ATOM     20  C   UNL     1      -0.014   1.209   0.009  0.00  0.00    +0.186 C 
ATOM     21  O   UNL     1       0.002  -0.004   0.002  0.00  0.00    -0.290 OA
BRANCH  20  25
ATOM     22  C   UNL     1       3.624   3.376  -0.014  0.00  0.00    +0.120 A 
ATOM     23  C   UNL     1       3.646   1.986  -0.022  0.00  0.00    +0.046 A 
ATOM     24  C   UNL     1       2.471   1.279  -0.015  0.00  0.00    +0.015 A 
ATOM     25  C   UNL     1       1.247   1.960   0.001  0.00  0.00    +0.020 A 
ATOM     26  C   UNL     1       1.231   3.361   0.003  0.00  0.00    +0.015 A 
ATOM     27  C   UNL     1       2.412   4.058   0.001  0.00  0.00    +0.046 A 
BRANCH  22  29
ATOM     28  C   UNL     1       4.696   5.496  -0.013  0.00  0.00    +0.277 C 
ATOM     29  O   UNL     1       4.790   4.070  -0.021  0.00  0.00    -0.495 OA
ENDBRANCH  22  29
ENDBRANCH  20  25
ENDBRANCH   1  20
TORSDOF 5
