REMARK  Name = ZINC17906934
REMARK  6 active torsions:
REMARK  status: ('A' for Active; 'I' for Inactive)
REMARK    1  A    between atoms: C_3  and  N_27
REMARK    2  A    between atoms: C_4  and  N_24
REMARK    3  A    between atoms: C_6  and  C_7
REMARK    4  A    between atoms: N_12  and  S_15
REMARK    5  A    between atoms: S_15  and  C_18
REMARK    6  A    between atoms: N_27  and  C_28
REMARK                            x       y       z     vdW  Elec       q    Type
REMARK                         _______ _______ _______ _____ _____    ______ ____
ROOT
ATOM      1  C   UNL     1       4.741  -0.558  -5.770  0.00  0.00    +0.247 C 
ATOM      2  O   UNL     1       5.020   0.388  -6.482  0.00  0.00    -0.270 OA
ATOM      3  N   UNL     1       4.665  -0.397  -4.434  0.00  0.00    -0.295 N 
ATOM      4  C   UNL     1       5.008   0.892  -3.816  0.00  0.00    +0.125 C 
ATOM      5  C   UNL     1       6.089   0.654  -2.754  0.00  0.00    +0.128 C 
ATOM      6  N   UNL     1       5.663  -0.456  -1.890  0.00  0.00    -0.173 NA
ATOM      7  C   UNL     1       5.326  -1.746  -2.509  0.00  0.00    +0.128 C 
ATOM      8  C   UNL     1       4.239  -1.506  -3.570  0.00  0.00    +0.125 C 
ENDROOT
BRANCH   1  14
ATOM      9  C   UNL     1       5.348  -2.385  -7.348  0.00  0.00    +0.015 A 
ATOM     10  C   UNL     1       5.111  -3.623  -7.900  0.00  0.00    +0.026 A 
ATOM     11  C   UNL     1       4.006  -4.368  -7.495  0.00  0.00    +0.058 A 
ATOM     12  C   UNL     1       3.142  -3.866  -6.525  0.00  0.00    +0.148 A 
ATOM     13  C   UNL     1       3.378  -2.631  -5.964  0.00  0.00    +0.047 A 
ATOM     14  C   UNL     1       4.486  -1.881  -6.370  0.00  0.00    +0.039 A 
BRANCH  12  15
ATOM     15  N   UNL     1       1.969  -4.661  -6.097  0.00  0.00    +0.058 N 
ATOM     16  O   UNL     1       1.153  -4.178  -5.333  0.00  0.00    -0.126 OA
ATOM     17  O   UNL     1       1.821  -5.797  -6.508  0.00  0.00    -0.126 OA
ENDBRANCH  12  15
BRANCH  11  18
ATOM     18  N   UNL     1       3.766  -5.616  -8.059  0.00  0.00    -0.339 N 
ATOM     19  H   UNL     1       3.048  -6.172  -7.718  0.00  0.00    +0.146 HD
BRANCH  18  20
ATOM     20  C   UNL     1       4.597  -6.090  -9.168  0.00  0.00    +0.071 C 
ATOM     21  C   UNL     1       3.880  -6.656 -10.396  0.00  0.00    +0.024 C 
ATOM     22  C   UNL     1       4.619  -7.596  -9.441  0.00  0.00    +0.024 C 
ENDBRANCH  18  20
ENDBRANCH  11  18
ENDBRANCH   1  14
BRANCH   6  23
ATOM     23  S   UNL     1       5.571  -0.259  -0.249  0.00  0.00    +0.067 S 
ATOM     24  O   UNL     1       6.450   0.807   0.082  0.00  0.00    -0.152 OA
ATOM     25  O   UNL     1       5.693  -1.553   0.324  0.00  0.00    -0.152 OA
BRANCH  23  26
ATOM     26  C   UNL     1       3.941   0.301   0.118  0.00  0.00    +0.144 A 
ATOM     27  C   UNL     1       2.832  -0.425   0.397  0.00  0.00    +0.038 A 
ATOM     28  C   UNL     1       1.645   0.235   0.657  0.00  0.00    +0.030 A 
ATOM     29  C   UNL     1       1.626   1.591   0.623  0.00  0.00    +0.080 A 
ATOM     30  S   UNL     1       3.322   1.973   0.216  0.00  0.00    -0.057 S 
ATOM     31 CL   UNL     1       0.297   2.674   0.898  0.00  0.00    -0.076 Cl
ENDBRANCH  23  26
ENDBRANCH   6  23
TORSDOF 6
