REMARK  Name = ZINC08944735
REMARK  6 active torsions:
REMARK  status: ('A' for Active; 'I' for Inactive)
REMARK    1  A    between atoms: C_1  and  C_2
REMARK    2  A    between atoms: C_2  and  C_24
REMARK    3  A    between atoms: N_5  and  C_9
REMARK    4  A    between atoms: C_9  and  N_57
REMARK    5  A    between atoms: N_12  and  S_15
REMARK    6  A    between atoms: S_15  and  C_18
REMARK                            x       y       z     vdW  Elec       q    Type
REMARK                         _______ _______ _______ _____ _____    ______ ____
ROOT
ATOM      1  C   UNL     1       1.772   2.575   1.257  0.00  0.00    +0.047 C 
ATOM      2  C   UNL     1       1.437   1.773  -0.002  0.00  0.00    +0.135 C 
ATOM      3  C   UNL     1      -0.016   1.343   0.009  0.00  0.00    +0.249 C 
ATOM      4  O   UNL     1      -0.992   2.062   0.018  0.00  0.00    -0.272 OA
ATOM      5  N   UNL     1       0.002  -0.004   0.002  0.00  0.00    -0.241 N 
ATOM      6  C   UNL     1       1.252  -0.481  -0.013  0.00  0.00    +0.308 C 
ATOM      7  O   UNL     1       1.524  -1.665  -0.021  0.00  0.00    -0.252 OA
ATOM      8  N   UNL     1       2.175   0.498  -0.016  0.00  0.00    -0.281 N 
ATOM      9  H   UNL     1       3.139   0.386  -0.025  0.00  0.00    +0.152 HD
ENDROOT
BRANCH   2  10
ATOM     10  C   UNL     1       1.743   2.576  -1.240  0.00  0.00    -0.012 A 
ATOM     11  C   UNL     1       0.751   3.336  -1.832  0.00  0.00    +0.010 A 
ATOM     12  C   UNL     1       1.028   4.078  -2.965  0.00  0.00    +0.050 A 
ATOM     13  C   UNL     1       2.299   4.053  -3.517  0.00  0.00    +0.166 A 
ATOM     14  C   UNL     1       3.296   3.284  -2.924  0.00  0.00    +0.167 A 
ATOM     15  C   UNL     1       3.013   2.547  -1.785  0.00  0.00    +0.055 A 
ATOM     16  O   UNL     1       4.445   3.426  -3.647  0.00  0.00    -0.453 OA
ATOM     17  C   UNL     1       4.251   4.606  -4.449  0.00  0.00    +0.466 C 
ATOM     18  O   UNL     1       2.822   4.678  -4.612  0.00  0.00    -0.453 OA
ENDBRANCH   2  10
BRANCH   5  19
ATOM     19  C   UNL     1      -1.199  -0.844   0.008  0.00  0.00    +0.043 C 
BRANCH  19  25
ATOM     20  C   UNL     1      -2.365   0.015  -1.932  0.00  0.00    -0.059 C 
ATOM     21  C   UNL     1      -2.620  -0.231  -3.423  0.00  0.00    +0.091 C 
ATOM     22  N   UNL     1      -3.266  -1.543  -3.577  0.00  0.00    -0.180 NA
ATOM     23  C   UNL     1      -2.641  -2.706  -2.928  0.00  0.00    +0.091 C 
ATOM     24  C   UNL     1      -2.385  -2.363  -1.456  0.00  0.00    -0.059 C 
ATOM     25  N   UNL     1      -1.587  -1.120  -1.391  0.00  0.00    +0.392 N 
ATOM     26  H   UNL     1      -0.737  -1.240  -1.954  0.00  0.00    -0.079 HD
BRANCH  22  27
ATOM     27  S   UNL     1      -4.658  -1.708  -4.458  0.00  0.00    +0.061 S 
ATOM     28  O   UNL     1      -4.692  -0.620  -5.372  0.00  0.00    -0.153 OA
ATOM     29  O   UNL     1      -4.712  -3.062  -4.883  0.00  0.00    -0.153 OA
BRANCH  27  30
ATOM     30  C   UNL     1      -6.007  -1.475  -3.348  0.00  0.00    +0.105 A 
ATOM     31  C   UNL     1      -6.550  -2.558  -2.683  0.00  0.00    +0.028 A 
ATOM     32  C   UNL     1      -7.604  -2.375  -1.808  0.00  0.00    +0.002 A 
ATOM     33  C   UNL     1      -8.124  -1.109  -1.607  0.00  0.00    +0.000 A 
ATOM     34  C   UNL     1      -7.585  -0.027  -2.277  0.00  0.00    +0.002 A 
ATOM     35  C   UNL     1      -6.526  -0.209  -3.147  0.00  0.00    +0.028 A 
ENDBRANCH  27  30
ENDBRANCH  22  27
ENDBRANCH  19  25
ENDBRANCH   5  19
TORSDOF 5
