REMARK  Name = ZINC16293238
REMARK  8 active torsions:
REMARK  status: ('A' for Active; 'I' for Inactive)
REMARK    1  A    between atoms: C_1  and  C_2
REMARK    2  A    between atoms: C_5  and  N_8
REMARK    3  A    between atoms: N_8  and  S_9
REMARK    4  A    between atoms: S_9  and  C_12
REMARK    5  A    between atoms: C_15  and  N_18
REMARK    6  A    between atoms: N_18  and  C_19
REMARK    7  A    between atoms: C_21  and  C_33
REMARK    8  A    between atoms: N_23  and  C_26
REMARK                            x       y       z     vdW  Elec       q    Type
REMARK                         _______ _______ _______ _____ _____    ______ ____
ROOT
ATOM      1  C   UNL     1      -0.711  -3.862   2.269  0.00  0.00    +0.109 A 
ATOM      2  C   UNL     1      -0.459  -2.653   2.890  0.00  0.00    +0.030 A 
ATOM      3  C   UNL     1      -0.776  -2.480   4.223  0.00  0.00    +0.025 A 
ATOM      4  C   UNL     1      -1.350  -3.523   4.940  0.00  0.00    +0.031 A 
ATOM      5  C   UNL     1      -1.603  -4.737   4.312  0.00  0.00    +0.025 A 
ATOM      6  C   UNL     1      -1.287  -4.901   2.978  0.00  0.00    +0.030 A 
ENDROOT
BRANCH   1   7
ATOM      7  S   UNL     1      -0.304  -4.078   0.568  0.00  0.00    +0.072 S 
ATOM      8  O   UNL     1      -0.262  -5.480   0.336  0.00  0.00    -0.150 OA
ATOM      9  O   UNL     1       0.804  -3.229   0.305  0.00  0.00    -0.150 OA
BRANCH   7  10
ATOM     10  N   UNL     1      -1.573  -3.489  -0.317  0.00  0.00    -0.216 N 
ATOM     11  H   UNL     1      -1.437  -2.744  -0.923  0.00  0.00    +0.174 HD
BRANCH  10  16
ATOM     12  C   UNL     1      -6.713  -5.830   0.188  0.00  0.00    +0.044 C 
ATOM     13  C   UNL     1      -5.347  -5.208   0.053  0.00  0.00    -0.050 A 
ATOM     14  C   UNL     1      -5.211  -3.832   0.075  0.00  0.00    +0.005 A 
ATOM     15  C   UNL     1      -3.960  -3.259  -0.048  0.00  0.00    +0.025 A 
ATOM     16  C   UNL     1      -2.839  -4.066  -0.193  0.00  0.00    +0.048 A 
ATOM     17  C   UNL     1      -2.980  -5.447  -0.214  0.00  0.00    +0.025 A 
ATOM     18  C   UNL     1      -4.233  -6.014  -0.085  0.00  0.00    +0.005 A 
ENDBRANCH  10  16
ENDBRANCH   7  10
ENDBRANCH   1   7
BRANCH   4  19
ATOM     19  N   UNL     1      -1.673  -3.352   6.289  0.00  0.00    -0.320 N 
ATOM     20  H   UNL     1      -1.496  -2.504   6.726  0.00  0.00    +0.152 HD
BRANCH  19  21
ATOM     21  C   UNL     1      -2.230  -4.366   6.983  0.00  0.00    +0.087 C 
ATOM     22  C   UNL     1      -2.439  -4.239   8.346  0.00  0.00    +0.075 C 
ATOM     23  C   UNL     1      -1.997  -3.143   9.222  0.00  0.00    +0.070 C 
ATOM     24  N   UNL     1      -2.401  -3.416  10.425  0.00  0.00    -0.176 NA
ATOM     25  N   UNL     1      -3.096  -4.624  10.465  0.00  0.00    -0.156 N 
ATOM     26  C   UNL     1      -3.156  -5.166   9.231  0.00  0.00    +0.273 C 
ATOM     27  O   UNL     1      -3.693  -6.214   8.915  0.00  0.00    -0.268 OA
ATOM     28  C   UNL     1      -1.216  -1.926   8.800  0.00  0.00    +0.068 C 
BRANCH  25  29
ATOM     29  C   UNL     1      -3.656  -5.190  11.617  0.00  0.00    +0.060 A 
ATOM     30  C   UNL     1      -4.324  -6.405  11.541  0.00  0.00    +0.027 A 
ATOM     31  C   UNL     1      -4.875  -6.962  12.679  0.00  0.00    +0.022 A 
ATOM     32  C   UNL     1      -4.762  -6.309  13.894  0.00  0.00    +0.041 A 
ATOM     33  C   UNL     1      -4.097  -5.098  13.973  0.00  0.00    +0.022 A 
ATOM     34  C   UNL     1      -3.539  -4.540  12.839  0.00  0.00    +0.027 A 
ATOM     35 CL   UNL     1      -5.455  -7.011  15.323  0.00  0.00    -0.084 Cl
ENDBRANCH  25  29
ENDBRANCH  19  21
ENDBRANCH   4  19
TORSDOF 6
