REMARK  Name = ZINC38664714
REMARK  10 active torsions:
REMARK  status: ('A' for Active; 'I' for Inactive)
REMARK    1  A    between atoms: C_1  and  C_2
REMARK    2  A    between atoms: N_5  and  C_10
REMARK    3  A    between atoms: C_7  and  C_9
REMARK    4  A    between atoms: C_10  and  C_11
REMARK    5  A    between atoms: C_11  and  O_12
REMARK    6  A    between atoms: O_12  and  C_13
REMARK    7  A    between atoms: C_16  and  C_19
REMARK    8  A    between atoms: C_21  and  C_32
REMARK    9  A    between atoms: C_26  and  O_31
REMARK   10  A    between atoms: C_35  and  O_38
REMARK                            x       y       z     vdW  Elec       q    Type
REMARK                         _______ _______ _______ _____ _____    ______ ____
ROOT
ATOM      1  C   UNL     1      -0.507  -7.998   7.032  0.00  0.00    +0.221 C 
ATOM      2  C   UNL     1      -1.705  -7.653   7.933  0.00  0.00    +0.126 C 
ATOM      3  S   UNL     1      -2.046  -9.123   8.951  0.00  0.00    -0.109 S 
ATOM      4  C   UNL     1      -0.428  -9.635   9.442  0.00  0.00    +0.054 A 
ATOM      5  C   UNL     1      -0.296 -10.568  10.462  0.00  0.00    +0.063 A 
ATOM      6  C   UNL     1       0.961 -10.992  10.861  0.00  0.00    +0.118 A 
ATOM      7  C   UNL     1       2.088 -10.481  10.233  0.00  0.00    +0.049 A 
ATOM      8  C   UNL     1       1.958  -9.551   9.222  0.00  0.00    +0.050 A 
ATOM      9  C   UNL     1       0.699  -9.113   8.817  0.00  0.00    +0.135 A 
ATOM     10  O   UNL     1       0.646  -8.177   7.840  0.00  0.00    -0.482 OA
ENDROOT
BRANCH   1  14
ATOM     11  C   UNL     1       0.167  -4.810   4.267  0.00  0.00    +0.120 A 
ATOM     12  C   UNL     1      -0.598  -5.905   3.892  0.00  0.00    +0.046 A 
ATOM     13  C   UNL     1      -0.814  -6.934   4.788  0.00  0.00    +0.011 A 
ATOM     14  C   UNL     1      -0.269  -6.874   6.057  0.00  0.00    -0.006 A 
ATOM     15  C   UNL     1       0.493  -5.783   6.434  0.00  0.00    +0.011 A 
ATOM     16  C   UNL     1       0.717  -4.754   5.540  0.00  0.00    +0.046 A 
BRANCH  11  17
ATOM     17  O   UNL     1       0.381  -3.796   3.388  0.00  0.00    -0.494 OA
BRANCH  17  18
ATOM     18  C   UNL     1      -0.216  -3.921   2.096  0.00  0.00    +0.210 C 
BRANCH  18  19
ATOM     19  C   UNL     1       0.133  -2.694   1.252  0.00  0.00    -0.037 C 
BRANCH  19  23
ATOM     20  C   UNL     1       3.714   0.227   0.290  0.00  0.00    +0.006 C 
ATOM     21  C   UNL     1       3.426  -1.274   0.363  0.00  0.00    -0.030 C 
ATOM     22  C   UNL     1       1.931  -1.547   0.092  0.00  0.00    -0.075 C 
ATOM     23  N   UNL     1       1.582  -2.663   1.009  0.00  0.00    +0.382 N 
ATOM     24  C   UNL     1       2.312  -2.346   2.263  0.00  0.00    -0.075 C 
ATOM     25  C   UNL     1       3.679  -1.800   1.791  0.00  0.00    -0.030 C 
ATOM     26  C   UNL     1       4.142  -0.661   2.702  0.00  0.00    +0.006 C 
ATOM     27  H   UNL     1       1.897  -3.543   0.630  0.00  0.00    -0.082 HD
ENDBRANCH  19  23
ENDBRANCH  18  19
ENDBRANCH  17  18
ENDBRANCH  11  17
ENDBRANCH   1  14
BRANCH   2  28
ATOM     28  C   UNL     1      -1.363  -6.481   8.817  0.00  0.00    -0.030 A 
ATOM     29  C   UNL     1      -1.879  -5.230   8.534  0.00  0.00    +0.008 A 
ATOM     30  C   UNL     1      -1.567  -4.154   9.342  0.00  0.00    +0.046 A 
ATOM     31  C   UNL     1      -0.736  -4.330  10.439  0.00  0.00    +0.117 A 
ATOM     32  C   UNL     1      -0.221  -5.587  10.721  0.00  0.00    +0.046 A 
ATOM     33  C   UNL     1      -0.540  -6.661   9.913  0.00  0.00    +0.008 A 
BRANCH  31  34
ATOM     34  O   UNL     1      -0.427  -3.273  11.236  0.00  0.00    -0.507 OA
ATOM     35  H   UNL     1      -1.041  -3.143  11.971  0.00  0.00    +0.292 HD
ENDBRANCH  31  34
ENDBRANCH   2  28
BRANCH   6  36
ATOM     36  O   UNL     1       1.090 -11.904  11.861  0.00  0.00    -0.507 OA
ATOM     37  H   UNL     1       1.095 -12.822  11.557  0.00  0.00    +0.292 HD
ENDBRANCH   6  36
TORSDOF 8
