REMARK  Name = ZINC67049705
REMARK  3 active torsions:
REMARK  status: ('A' for Active; 'I' for Inactive)
REMARK    1  A    between atoms: C_14  and  N_17
REMARK    2  A    between atoms: C_18  and  C_20
REMARK    3  A    between atoms: C_26  and  C_28
REMARK                            x       y       z     vdW  Elec       q    Type
REMARK                         _______ _______ _______ _____ _____    ______ ____
ROOT
ATOM      1  C   UNL     1      -2.318  -1.843  -1.238  0.00  0.00    +0.225 A 
ATOM      2  N   UNL     1      -3.315  -0.987  -1.110  0.00  0.00    -0.218 NA
ATOM      3  H   UNL     1       1.335   0.151  -1.129  0.00  0.00    +0.168 HD
ATOM      4  C   UNL     1      -3.091   0.316  -0.970  0.00  0.00    +0.152 A 
ATOM      5  C   UNL     1      -1.760   0.768  -0.961  0.00  0.00    +0.147 A 
ATOM      6  N   UNL     1      -1.167   1.981  -0.843  0.00  0.00    -0.231 NA
ATOM      7  C   UNL     1       0.125   1.839  -0.901  0.00  0.00    +0.198 A 
ATOM      8  N   UNL     1       0.442   0.522  -1.059  0.00  0.00    -0.329 N 
ATOM      9  C   UNL     1      -0.735  -0.182  -1.101  0.00  0.00    +0.163 A 
ATOM     10  N   UNL     1      -1.057  -1.464  -1.235  0.00  0.00    -0.216 NA
ATOM     11  N   UNL     1      -4.142   1.205  -0.836  0.00  0.00    -0.313 N 
ATOM     12  C   UNL     1      -5.532   0.746  -0.968  0.00  0.00    +0.108 C 
ATOM     13  C   UNL     1      -6.239   1.611  -2.016  0.00  0.00    +0.041 C 
ATOM     14  C   UNL     1      -6.098   3.086  -1.635  0.00  0.00    +0.076 C 
ATOM     15  C   UNL     1      -4.617   3.469  -1.613  0.00  0.00    +0.041 C 
ATOM     16  C   UNL     1      -3.891   2.625  -0.555  0.00  0.00    +0.108 C 
ENDROOT
BRANCH  14  17
ATOM     17  N   UNL     1      -6.802   3.914  -2.618  0.00  0.00    -0.312 N 
ATOM     18  C   UNL     1      -7.254   5.135  -2.271  0.00  0.00    +0.217 C 
ATOM     19  O   UNL     1      -7.079   5.548  -1.144  0.00  0.00    -0.275 OA
ATOM     20  H   UNL     1      -6.942   3.583  -3.519  0.00  0.00    +0.149 HD
BRANCH  18  21
ATOM     21  C   UNL     1      -7.978   5.986  -3.282  0.00  0.00    +0.086 C 
ATOM     22  C   UNL     1      -9.405   6.250  -2.798  0.00  0.00    +0.013 C 
ATOM     23  C   UNL     1      -9.361   6.981  -1.454  0.00  0.00    +0.001 C 
ATOM     24  C   UNL     1      -8.625   8.311  -1.621  0.00  0.00    +0.001 C 
ATOM     25  C   UNL     1      -7.197   8.047  -2.105  0.00  0.00    +0.013 C 
ATOM     26  C   UNL     1      -7.242   7.317  -3.449  0.00  0.00    +0.105 C 
BRANCH  26  27
ATOM     27  C   UNL     1      -5.814   7.053  -3.933  0.00  0.00    +0.394 C 
ATOM     28  F   UNL     1      -5.852   6.269  -5.091  0.00  0.00    -0.170 F 
ATOM     29  F   UNL     1      -5.184   8.270  -4.213  0.00  0.00    -0.170 F 
ATOM     30  F   UNL     1      -5.102   6.377  -2.936  0.00  0.00    -0.170 F 
ENDBRANCH  26  27
ENDBRANCH  18  21
ENDBRANCH  14  17
TORSDOF 3
