REMARK  Name = ZINC51095988
REMARK  6 active torsions:
REMARK  status: ('A' for Active; 'I' for Inactive)
REMARK    1  A    between atoms: C_3  and  N_20
REMARK    2  A    between atoms: C_4  and  C_10
REMARK    3  A    between atoms: C_6  and  N_7
REMARK    4  A    between atoms: N_12  and  C_13
REMARK    5  A    between atoms: C_16  and  O_19
REMARK    6  A    between atoms: N_20  and  N_21
REMARK                            x       y       z     vdW  Elec       q    Type
REMARK                         _______ _______ _______ _____ _____    ______ ____
ROOT
ATOM      1  C   UNL     1      -0.084   1.245   0.020  0.00  0.00    +0.034 A 
ATOM      2  C   UNL     1       1.011   2.085  -0.007  0.00  0.00    +0.027 A 
ATOM      3  C   UNL     1       2.295   1.556  -0.033  0.00  0.00    +0.053 A 
ATOM      4  C   UNL     1       2.472   0.163  -0.031  0.00  0.00    +0.061 A 
ATOM      5  C   UNL     1       1.354  -0.674  -0.003  0.00  0.00    +0.047 A 
ATOM      6  C   UNL     1       0.088  -0.130   0.022  0.00  0.00    +0.127 A 
ENDROOT
BRANCH   4   7
ATOM      7  C   UNL     1       3.829  -0.412  -0.059  0.00  0.00    +0.246 C 
ATOM      8  O   UNL     1       4.800   0.316   0.021  0.00  0.00    -0.270 OA
ATOM      9  N   UNL     1       3.994  -1.745  -0.173  0.00  0.00    -0.308 N 
ATOM     10  H   UNL     1       3.220  -2.325  -0.237  0.00  0.00    +0.149 HD
BRANCH   9  11
ATOM     11  C   UNL     1       5.343  -2.316  -0.201  0.00  0.00    +0.073 C 
ATOM     12  C   UNL     1       5.885  -2.274  -1.631  0.00  0.00    +0.025 C 
ATOM     13  C   UNL     1       4.968  -3.086  -2.548  0.00  0.00    +0.033 C 
ATOM     14  C   UNL     1       4.918  -4.537  -2.064  0.00  0.00    +0.115 C 
ATOM     15  C   UNL     1       4.375  -4.579  -0.634  0.00  0.00    +0.033 C 
ATOM     16  C   UNL     1       5.292  -3.767   0.283  0.00  0.00    +0.025 C 
BRANCH  14  17
ATOM     17  O   UNL     1       4.061  -5.295  -2.921  0.00  0.00    -0.392 OA
ATOM     18  H   UNL     1       3.982  -6.226  -2.674  0.00  0.00    +0.210 HD
ENDBRANCH  14  17
ENDBRANCH   9  11
ENDBRANCH   4   7
BRANCH   6  19
ATOM     19  N   UNL     1      -1.095  -1.020   0.052  0.00  0.00    +0.056 N 
ATOM     20  O   UNL     1      -2.207  -0.546   0.074  0.00  0.00    -0.126 OA
ATOM     21  O   UNL     1      -0.949  -2.220   0.054  0.00  0.00    -0.126 OA
ENDBRANCH   6  19
BRANCH   3  22
ATOM     22  N   UNL     1       3.397   2.400  -0.061  0.00  0.00    -0.282 N 
ATOM     23  H   UNL     1       4.292   2.031   0.001  0.00  0.00    +0.166 HD
BRANCH  22  24
ATOM     24  N   UNL     1       3.221   3.749  -0.177  0.00  0.00    -0.256 NA
ATOM     25  H   UNL     1       4.109   4.230  -0.183  0.00  0.00    +0.140 HD
ATOM     26  H   UNL     1       2.682   3.975  -0.999  0.00  0.00    +0.140 HD
ENDBRANCH  22  24
ENDBRANCH   3  22
TORSDOF 6
