REMARK  Name = ZINC09591561
REMARK  13 active torsions:
REMARK  status: ('A' for Active; 'I' for Inactive)
REMARK    1  A    between atoms: C_1  and  C_2
REMARK    2  A    between atoms: C_2  and  C_3
REMARK    3  A    between atoms: C_2  and  C_4
REMARK    4  A    between atoms: C_2  and  C_5
REMARK    5  A    between atoms: C_8  and  C_11
REMARK    6  A    between atoms: N_13  and  N_14
REMARK    7  A    between atoms: C_16  and  C_21
REMARK    8  A    between atoms: C_21  and  O_23
REMARK    9  A    between atoms: O_23  and  C_24
REMARK   10  A    between atoms: C_24  and  C_26
REMARK   11  A    between atoms: C_24  and  C_29
REMARK   12  A    between atoms: C_26  and  C_27
REMARK   13  A    between atoms: C_29  and  C_31
REMARK                            x       y       z     vdW  Elec       q    Type
REMARK                         _______ _______ _______ _____ _____    ______ ____
ROOT
ATOM      1  N   UNL     1       0.002  -0.004   0.002  0.00  0.00    -0.219 N 
ATOM      2  C   UNL     1      -0.018   1.463   0.010  0.00  0.00    +0.145 C 
ATOM      3  C   UNL     1       1.465   1.896  -0.002  0.00  0.00    +0.125 C 
ATOM      4  C   UNL     1       2.144   0.675  -0.664  0.00  0.00    +0.113 C 
ATOM      5  C   UNL     1       1.203  -0.474  -0.379  0.00  0.00    +0.233 C 
ATOM      6  O   UNL     1       1.489  -1.648  -0.478  0.00  0.00    -0.274 OA
ENDROOT
BRANCH   1   9
ATOM      7  C   UNL     1      -1.790  -1.445  -0.615  0.00  0.00    +0.260 C 
ATOM      8  O   UNL     1      -1.474  -1.317  -1.781  0.00  0.00    -0.269 OA
ATOM      9  N   UNL     1      -1.090  -0.811   0.347  0.00  0.00    -0.228 N 
ATOM     10  H   UNL     1      -1.342  -0.914   1.278  0.00  0.00    +0.173 HD
BRANCH   7  14
ATOM     11  C   UNL     1      -5.099  -3.894   0.431  0.00  0.00    -0.042 A 
ATOM     12  C   UNL     1      -4.742  -3.749  -0.897  0.00  0.00    +0.005 A 
ATOM     13  C   UNL     1      -3.669  -2.955  -1.244  0.00  0.00    +0.013 A 
ATOM     14  C   UNL     1      -2.942  -2.297  -0.251  0.00  0.00    +0.038 A 
ATOM     15  C   UNL     1      -3.304  -2.452   1.089  0.00  0.00    +0.013 A 
ATOM     16  C   UNL     1      -4.383  -3.245   1.421  0.00  0.00    +0.005 A 
BRANCH  11  18
ATOM     17  C   UNL     1      -6.018  -6.195   0.328  0.00  0.00    +0.015 C 
ATOM     18  C   UNL     1      -6.273  -4.763   0.803  0.00  0.00    -0.013 C 
ATOM     19  C   UNL     1      -6.454  -4.754   2.322  0.00  0.00    +0.015 C 
ATOM     20  C   UNL     1      -7.539  -4.222   0.135  0.00  0.00    +0.015 C 
ENDBRANCH  11  18
ENDBRANCH   7  14
ENDBRANCH   1   9
BRANCH   3  21
ATOM     21  C   UNL     1       1.658   3.138  -0.833  0.00  0.00    +0.313 C 
ATOM     22  O   UNL     1       0.711   3.652  -1.379  0.00  0.00    -0.250 OA
BRANCH  21  23
ATOM     23  O   UNL     1       2.882   3.672  -0.967  0.00  0.00    -0.453 OA
BRANCH  23  24
ATOM     24  C   UNL     1       2.994   4.868  -1.783  0.00  0.00    +0.248 C 
BRANCH  24  25
ATOM     25  C   UNL     1       4.356   4.913  -2.425  0.00  0.00    +0.203 C 
ATOM     26  O   UNL     1       5.242   4.192  -2.018  0.00  0.00    -0.288 OA
BRANCH  25  27
ATOM     27  C   UNL     1       4.611   5.831  -3.546  0.00  0.00    +0.021 A 
ATOM     28  C   UNL     1       3.589   6.660  -4.022  0.00  0.00    +0.013 A 
ATOM     29  C   UNL     1       3.837   7.521  -5.069  0.00  0.00    +0.021 A 
ATOM     30  C   UNL     1       5.091   7.559  -5.657  0.00  0.00    +0.041 A 
ATOM     31  C   UNL     1       6.106   6.738  -5.195  0.00  0.00    +0.021 A 
ATOM     32  C   UNL     1       5.874   5.875  -4.145  0.00  0.00    +0.013 A 
ATOM     33 CL   UNL     1       5.391   8.642  -6.981  0.00  0.00    -0.084 Cl
ENDBRANCH  25  27
ENDBRANCH  24  25
BRANCH  24  34
ATOM     34  C   UNL     1       2.804   6.105  -0.903  0.00  0.00    +0.069 C 
BRANCH  34  35
ATOM     35  C   UNL     1       1.377   6.124  -0.350  0.00  0.00    +0.113 C 
ATOM     36 CL   UNL     1       1.154   7.581   0.688  0.00  0.00    -0.125 Cl
ENDBRANCH  34  35
ENDBRANCH  24  34
ENDBRANCH  23  24
ENDBRANCH  21  23
ENDBRANCH   3  21
TORSDOF 10
