REMARK  Name = ZINC35072892
REMARK  7 active torsions:
REMARK  status: ('A' for Active; 'I' for Inactive)
REMARK    1  A    between atoms: CB_1  and  CA_2
REMARK    2  A    between atoms: CA_2  and  C_4
REMARK    3  A    between atoms: CA_2  and  N_7
REMARK    4  A    between atoms: C_8  and  C_10
REMARK    5  A    between atoms: C_10  and  C_11
REMARK    6  A    between atoms: C_19  and  C_29
REMARK    7  A    between atoms: C_22  and  C_24
REMARK                            x       y       z     vdW  Elec       q    Type
REMARK                         _______ _______ _______ _____ _____    ______ ____
ROOT
ATOM      1  C   UNK A   0       4.287  -1.129   2.114  0.00  0.00    +0.150 C 
ATOM      2  C   UNK A   0       5.070  -1.611   3.329  0.00  0.00    +0.252 C 
ATOM      3  O   UNK A   0       5.070  -1.008   4.385  0.00  0.00    -0.272 OA
ATOM      4  N   UNK A   0       5.740  -2.718   3.158  0.00  0.00    -0.157 NA
ATOM      5  C   UNK A   0       5.769  -3.410   2.026  0.00  0.00    +0.170 C 
ATOM      6  S   UNK A   0       4.723  -2.465   0.924  0.00  0.00    -0.078 S 
ATOM      7  N   UNK A   0       6.440  -4.569   1.764  0.00  0.00    -0.195 N 
ATOM      8  C   UNK A   0       7.284  -5.303   2.720  0.00  0.00    +0.142 C 
ATOM      9  C   UNK A   0       7.783  -6.514   1.906  0.00  0.00    +0.088 C 
ATOM     10  C   UNK A   0       7.150  -6.326   0.546  0.00  0.00    +0.075 C 
ATOM     11  N   UNK A   0       6.432  -5.252   0.550  0.00  0.00    -0.181 NA
ENDROOT
BRANCH  10  12
ATOM     12  C   UNK A   0       7.320  -7.226  -0.599  0.00  0.00    +0.035 A 
ATOM     13  C   UNK A   0       6.787  -7.129  -1.872  0.00  0.00    +0.017 A 
ATOM     14  C   UNK A   0       7.095  -8.110  -2.786  0.00  0.00    +0.008 A 
ATOM     15  C   UNK A   0       7.906  -9.135  -2.414  0.00  0.00    +0.046 A 
ATOM     16  S   UNK A   0       8.275  -8.731  -0.715  0.00  0.00    -0.095 S 
ENDBRANCH  10  12
BRANCH   8  17
ATOM     17  C   UNK A   0       8.441  -4.449   3.170  0.00  0.00    +0.012 A 
ATOM     18  C   UNK A   0       9.005  -4.355   4.399  0.00  0.00    +0.013 A 
ATOM     19  C   UNK A   0      10.072  -3.496   4.583  0.00  0.00    +0.008 A 
ATOM     20  C   UNK A   0      10.523  -2.772   3.529  0.00  0.00    +0.045 A 
ATOM     21  S   UNK A   0       9.431  -3.305   2.221  0.00  0.00    -0.100 S 
ENDBRANCH   8  17
BRANCH   1  22
ATOM     22  C   UNK A   0       2.783  -1.099   2.395  0.00  0.00    +0.119 C 
BRANCH  22  24
ATOM     23  N   ALA A   1       0.711  -0.489   1.189  0.00  0.00    -0.302 N 
ATOM     24  C   UNK A   0       2.054  -0.600   1.174  0.00  0.00    +0.215 C 
ATOM     25  O   UNK A   0       2.676  -0.297   0.177  0.00  0.00    -0.276 OA
ATOM     26  H   ALA A   1       0.213  -0.731   1.986  0.00  0.00    +0.150 HD
BRANCH  23  28
ATOM     27  CB  ALA A   1      -0.019   1.526   0.010  0.00  0.00    +0.040 C 
ATOM     28  CA  ALA A   1       0.002  -0.004   0.002  0.00  0.00    +0.183 C 
BRANCH  28  29
ATOM     29  C   ALA A   1      -1.412  -0.526   0.013  0.00  0.00    +0.376 C 
ATOM     30  O   ALA A   1      -2.118  -0.393  -0.972  0.00  0.00    -0.244 OA
ATOM     31  OXT ALA A   1      -1.849  -1.081   1.006  0.00  0.00    -0.244 OA
ENDBRANCH  28  29
ENDBRANCH  23  28
ENDBRANCH  22  24
ENDBRANCH   1  22
TORSDOF 6
