REMARK  Name = ZINC36490441
REMARK  9 active torsions:
REMARK  status: ('A' for Active; 'I' for Inactive)
REMARK    1  A    between atoms: C_1  and  C_2
REMARK    2  A    between atoms: C_7  and  C_8
REMARK    3  A    between atoms: C_8  and  C_10
REMARK    4  A    between atoms: C_8  and  N_19
REMARK    5  A    between atoms: N_12  and  C_13
REMARK    6  A    between atoms: N_19  and  C_20
REMARK    7  A    between atoms: C_26  and  C_28
REMARK    8  A    between atoms: C_28  and  N_29
REMARK    9  A    between atoms: C_30  and  C_32
REMARK                            x       y       z     vdW  Elec       q    Type
REMARK                         _______ _______ _______ _____ _____    ______ ____
ROOT
ATOM      1  N   UNL     1       1.036  -0.735   3.633  0.00  0.00    -0.282 N 
ATOM      2  C   UNL     1       2.109  -0.165   4.216  0.00  0.00    +0.234 C 
ATOM      3  O   UNL     1       2.489   0.927   3.851  0.00  0.00    -0.274 OA
ENDROOT
BRANCH   1   4
ATOM      4  C   UNL     1       0.501  -1.995   4.154  0.00  0.00    +0.077 C 
ATOM      5  C   UNL     1      -0.550  -2.542   3.187  0.00  0.00    +0.022 C 
ATOM      6  C   UNL     1      -1.109  -3.859   3.732  0.00  0.00    +0.002 C 
ATOM      7  C   UNL     1      -1.751  -3.613   5.099  0.00  0.00    +0.000 C 
ATOM      8  C   UNL     1      -0.699  -3.066   6.066  0.00  0.00    +0.002 C 
ATOM      9  C   UNL     1      -0.141  -1.750   5.521  0.00  0.00    +0.022 C 
ENDBRANCH   1   4
BRANCH   1  10
ATOM     10  C   UNL     1       0.404  -0.094   2.477  0.00  0.00    +0.193 C 
BRANCH  10  17
ATOM     11  C   UNL     1       2.833  -1.448   1.695  0.00  0.00    +0.044 C 
ATOM     12  C   UNL     1       1.552  -1.701   0.941  0.00  0.00    -0.045 A 
ATOM     13  C   UNL     1       1.539  -2.586  -0.121  0.00  0.00    +0.004 A 
ATOM     14  C   UNL     1       0.365  -2.818  -0.813  0.00  0.00    +0.000 A 
ATOM     15  C   UNL     1      -0.796  -2.166  -0.442  0.00  0.00    +0.000 A 
ATOM     16  C   UNL     1      -0.783  -1.282   0.621  0.00  0.00    +0.006 A 
ATOM     17  C   UNL     1       0.391  -1.053   1.315  0.00  0.00    -0.015 A 
ENDBRANCH  10  17
BRANCH  10  18
ATOM     18  C   UNL     1      -1.011   0.291   2.827  0.00  0.00    +0.238 C 
ATOM     19  O   UNL     1      -1.482  -0.038   3.895  0.00  0.00    -0.273 OA
ATOM     20  N   UNL     1      -1.753   0.999   1.953  0.00  0.00    -0.311 N 
ATOM     21  H   UNL     1      -1.405   1.194   1.069  0.00  0.00    +0.149 HD
BRANCH  20  22
ATOM     22  C   UNL     1      -3.083   1.475   2.339  0.00  0.00    +0.073 C 
ATOM     23  C   UNL     1      -4.112   0.370   2.090  0.00  0.00    +0.022 C 
ATOM     24  C   UNL     1      -5.502   0.868   2.493  0.00  0.00    +0.002 C 
ATOM     25  C   UNL     1      -5.864   2.099   1.660  0.00  0.00    +0.000 C 
ATOM     26  C   UNL     1      -4.836   3.204   1.909  0.00  0.00    +0.002 C 
ATOM     27  C   UNL     1      -3.446   2.707   1.506  0.00  0.00    +0.022 C 
ENDBRANCH  20  22
ENDBRANCH  10  18
ENDBRANCH   1  10
BRANCH   2  28
ATOM     28  C   UNL     1       2.837  -0.885   5.321  0.00  0.00    +0.200 C 
BRANCH  28  29
ATOM     29  N   UNL     1       3.896  -0.023   5.851  0.00  0.00    -0.303 N 
ATOM     30  C   UNL     1       4.683  -0.462   6.854  0.00  0.00    +0.244 C 
ATOM     31  O   UNL     1       4.514  -1.572   7.319  0.00  0.00    -0.270 OA
ATOM     32  H   UNL     1       4.031   0.863   5.481  0.00  0.00    +0.150 HD
BRANCH  30  33
ATOM     33  C   UNL     1       5.752   0.409   7.389  0.00  0.00    +0.037 A 
ATOM     34  C   UNL     1       5.945   1.687   6.862  0.00  0.00    +0.013 A 
ATOM     35  C   UNL     1       6.944   2.494   7.366  0.00  0.00    +0.001 A 
ATOM     36  C   UNL     1       7.754   2.038   8.392  0.00  0.00    +0.000 A 
ATOM     37  C   UNL     1       7.568   0.773   8.918  0.00  0.00    +0.001 A 
ATOM     38  C   UNL     1       6.569  -0.042   8.427  0.00  0.00    +0.013 A 
ENDBRANCH  30  33
ENDBRANCH  28  29
ENDBRANCH   2  28
TORSDOF 8
