REMARK  Name = ZINC49587801
REMARK  9 active torsions:
REMARK  status: ('A' for Active; 'I' for Inactive)
REMARK    1  A    between atoms: C_1  and  N_2
REMARK    2  A    between atoms: N_2  and  C_3
REMARK    3  A    between atoms: N_2  and  C_10
REMARK    4  A    between atoms: C_3  and  C_4
REMARK    5  A    between atoms: C_10  and  C_11
REMARK    6  A    between atoms: N_13  and  C_16
REMARK    7  A    between atoms: C_16  and  C_17
REMARK    8  A    between atoms: C_26  and  C_28
REMARK    9  A    between atoms: C_28  and  N_30
REMARK                            x       y       z     vdW  Elec       q    Type
REMARK                         _______ _______ _______ _____ _____    ______ ____
ROOT
ATOM      1  C   UNL     1       6.557  -0.226  -1.726  0.00  0.00    -0.046 C 
ATOM      2  C   UNL     1       8.008  -0.501  -1.324  0.00  0.00    -0.010 C 
ATOM      3  C   UNL     1       8.544  -1.663  -2.170  0.00  0.00    -0.004 C 
ATOM      4  C   UNL     1       8.461  -1.264  -3.650  0.00  0.00    -0.015 C 
ATOM      5  C   UNL     1       7.003  -0.948  -3.994  0.00  0.00    -0.078 C 
ATOM      6  N   UNL     1       6.147  -1.155  -2.781  0.00  0.00    +0.383 N 
ATOM      7  C   UNL     1       6.219  -2.539  -2.307  0.00  0.00    -0.065 C 
ATOM      8  C   UNL     1       7.655  -2.889  -1.927  0.00  0.00    +0.064 C 
ATOM      9  H   UNL     1       5.188  -0.958  -3.025  0.00  0.00    -0.081 HD
ENDROOT
BRANCH   8  10
ATOM     10  C   UNL     1       7.711  -3.274  -0.471  0.00  0.00    +0.240 C 
ATOM     11  O   UNL     1       8.397  -2.631   0.301  0.00  0.00    -0.273 OA
BRANCH  10  12
ATOM     12  N   UNL     1       7.014  -4.313  -0.032  0.00  0.00    -0.156 NA
ATOM     13  C   UNL     1       7.064  -4.654   1.258  0.00  0.00    +0.163 A 
ATOM     14  N   UNL     1       6.430  -5.680   1.885  0.00  0.00    -0.342 N 
ATOM     15  C   UNL     1       6.622  -5.851   3.221  0.00  0.00    +0.092 A 
ATOM     16  C   UNL     1       7.434  -4.986   3.840  0.00  0.00    +0.066 A 
ATOM     17  S   UNL     1       7.932  -3.923   2.498  0.00  0.00    -0.061 S 
ATOM     18  H   UNL     1       5.850  -6.279   1.390  0.00  0.00    +0.167 HD
ENDBRANCH  10  12
ENDBRANCH   8  10
BRANCH   1  19
ATOM     19  C   UNL     1       5.650  -0.409  -0.508  0.00  0.00    +0.130 C 
BRANCH  19  22
ATOM     20  C   UNL     1       2.137  -0.060  -1.158  0.00  0.00    +0.066 A 
ATOM     21  C   UNL     1       3.179  -0.801  -0.717  0.00  0.00    +0.131 A 
ATOM     22  N   UNL     1       4.280  -0.026  -0.858  0.00  0.00    -0.253 N 
ATOM     23  N   UNL     1       3.915   1.105  -1.351  0.00  0.00    -0.066 NA
ATOM     24  N   UNL     1       2.644   1.115  -1.548  0.00  0.00    -0.136 NA
BRANCH  20  25
ATOM     25  C   UNL     1       0.690  -0.478  -1.207  0.00  0.00    -0.019 C 
BRANCH  25  27
ATOM     26  C   UNL     1      -0.018   1.465   0.010  0.00  0.00    -0.095 C 
ATOM     27  N   UNL     1       0.002  -0.004   0.002  0.00  0.00    +0.384 N 
ATOM     28  H   UNL     1       0.490  -0.338   0.820  0.00  0.00    -0.081 HD
BRANCH  27  29
ATOM     29  C   UNL     1      -1.376  -0.512   0.012  0.00  0.00    -0.043 C 
BRANCH  29  30
ATOM     30  C   UNL     1      -2.043  -0.130   1.309  0.00  0.00    -0.064 A 
ATOM     31  C   UNL     1      -1.964  -0.973   2.402  0.00  0.00    +0.002 A 
ATOM     32  C   UNL     1      -2.575  -0.622   3.591  0.00  0.00    +0.000 A 
ATOM     33  C   UNL     1      -3.266   0.572   3.687  0.00  0.00    +0.000 A 
ATOM     34  C   UNL     1      -3.344   1.415   2.594  0.00  0.00    +0.000 A 
ATOM     35  C   UNL     1      -2.729   1.066   1.406  0.00  0.00    +0.002 A 
ENDBRANCH  29  30
ENDBRANCH  27  29
ENDBRANCH  25  27
ENDBRANCH  20  25
ENDBRANCH  19  22
ENDBRANCH   1  19
TORSDOF 8
