REMARK  Name = ZINC36528798
REMARK  13 active torsions:
REMARK  status: ('A' for Active; 'I' for Inactive)
REMARK    1  A    between atoms: C_1  and  C_2
REMARK    2  A    between atoms: C_5  and  S_8
REMARK    3  A    between atoms: S_8  and  C_11
REMARK    4  A    between atoms: C_11  and  N_12
REMARK    5  A    between atoms: C_13  and  C_15
REMARK    6  A    between atoms: C_15  and  C_17
REMARK    7  A    between atoms: C_15  and  N_26
REMARK    8  A    between atoms: C_20  and  N_23
REMARK    9  A    between atoms: N_23  and  C_24
REMARK   10  A    between atoms: N_23  and  C_25
REMARK   11  A    between atoms: N_26  and  C_27
REMARK   12  A    between atoms: C_28  and  C_30
REMARK   13  A    between atoms: C_35  and  O_36
REMARK                            x       y       z     vdW  Elec       q    Type
REMARK                         _______ _______ _______ _____ _____    ______ ____
ROOT
ATOM      1  C   UNL     1       2.867  -5.756   3.591  0.00  0.00    +0.192 C 
ENDROOT
BRANCH   1   2
ATOM      2  C   UNL     1       1.525  -5.968   4.243  0.00  0.00    -0.018 A 
ATOM      3  C   UNL     1       1.142  -7.238   4.636  0.00  0.00    +0.008 A 
ATOM      4  C   UNL     1      -0.087  -7.436   5.234  0.00  0.00    +0.023 A 
ATOM      5  C   UNL     1      -0.939  -6.358   5.440  0.00  0.00    +0.029 A 
ATOM      6  C   UNL     1      -0.551  -5.085   5.044  0.00  0.00    +0.023 A 
ATOM      7  C   UNL     1       0.682  -4.893   4.452  0.00  0.00    +0.008 A 
BRANCH   5   8
ATOM      8  N   UNL     1      -2.183  -6.555   6.044  0.00  0.00    -0.336 N 
ATOM      9  C   UNL     1      -2.590  -7.899   6.460  0.00  0.00    +0.129 C 
ATOM     10  C   UNL     1      -3.080  -5.418   6.260  0.00  0.00    +0.129 C 
ENDBRANCH   5   8
ENDBRANCH   1   2
BRANCH   1  12
ATOM     11  N   UNL     1       2.423  -6.281   1.215  0.00  0.00    -0.294 N 
ATOM     12  C   UNL     1       2.986  -6.649   2.383  0.00  0.00    +0.239 C 
ATOM     13  O   UNL     1       3.588  -7.699   2.462  0.00  0.00    -0.273 OA
ATOM     14  H   UNL     1       1.942  -5.441   1.152  0.00  0.00    +0.150 HD
BRANCH  11  15
ATOM     15  C   UNL     1       2.539  -7.150   0.041  0.00  0.00    +0.278 C 
BRANCH  15  16
ATOM     16  S   UNL     1       1.066  -8.203  -0.080  0.00  0.00    +0.013 S 
ATOM     17  O   UNL     1       0.776  -8.785   1.184  0.00  0.00    -0.168 OA
ATOM     18  O   UNL     1       1.134  -9.007  -1.249  0.00  0.00    -0.168 OA
BRANCH  16  23
ATOM     19  C   UNL     1      -3.495  -4.386  -1.098  0.00  0.00    +0.044 C 
ATOM     20  C   UNL     1      -2.355  -5.339  -0.844  0.00  0.00    -0.050 A 
ATOM     21  C   UNL     1      -1.659  -5.883  -1.907  0.00  0.00    +0.005 A 
ATOM     22  C   UNL     1      -0.614  -6.758  -1.673  0.00  0.00    +0.027 A 
ATOM     23  C   UNL     1      -0.265  -7.087  -0.377  0.00  0.00    +0.090 A 
ATOM     24  C   UNL     1      -0.961  -6.543   0.686  0.00  0.00    +0.027 A 
ATOM     25  C   UNL     1      -2.003  -5.665   0.453  0.00  0.00    +0.005 A 
ENDBRANCH  16  23
ENDBRANCH  15  16
ENDBRANCH  11  15
ENDBRANCH   1  12
BRANCH   1  26
ATOM     26  N   UNL     1       3.930  -6.081   4.545  0.00  0.00    -0.285 N 
ATOM     27  C   UNL     1       3.689  -5.948   5.984  0.00  0.00    +0.133 C 
ATOM     28  C   UNL     1       5.130  -6.502   4.099  0.00  0.00    +0.251 C 
ATOM     29  O   UNL     1       5.950  -6.942   4.882  0.00  0.00    -0.270 OA
BRANCH  28  30
ATOM     30  C   UNL     1       5.449  -6.431   2.660  0.00  0.00    +0.078 A 
ATOM     31  C   UNL     1       4.801  -5.502   1.843  0.00  0.00    +0.017 A 
ATOM     32  C   UNL     1       5.104  -5.439   0.500  0.00  0.00    +0.001 A 
ATOM     33  C   UNL     1       6.049  -6.294  -0.044  0.00  0.00    +0.004 A 
ATOM     34  C   UNL     1       6.697  -7.217   0.752  0.00  0.00    +0.046 A 
ATOM     35  C   UNL     1       6.408  -7.290   2.107  0.00  0.00    +0.129 A 
BRANCH  35  36
ATOM     36  O   UNL     1       7.048  -8.193   2.893  0.00  0.00    -0.506 OA
ATOM     37  H   UNL     1       6.602  -9.049   2.950  0.00  0.00    +0.292 HD
ENDBRANCH  35  36
ENDBRANCH  28  30
ENDBRANCH   1  26
TORSDOF 9
