REMARK  Name = ZINC18144714
REMARK  4 active torsions:
REMARK  status: ('A' for Active; 'I' for Inactive)
REMARK    1  A    between atoms: C_1  and  C_2
REMARK    2  A    between atoms: C_2  and  C_5
REMARK    3  A    between atoms: N_3  and  O_4
REMARK    4  A    between atoms: C_8  and  N_11
REMARK                            x       y       z     vdW  Elec       q    Type
REMARK                         _______ _______ _______ _____ _____    ______ ____
ROOT
ATOM      1  N   UNL     1      -0.006  -2.801  -4.903  0.00  0.00    -0.210 N 
ATOM      2  C   UNL     1      -0.014  -2.184  -6.101  0.00  0.00    +0.230 C 
ATOM      3  O   UNL     1       0.180  -1.005  -6.304  0.00  0.00    -0.274 OA
ATOM      4  C   UNL     1      -0.316  -3.255  -7.162  0.00  0.00    +0.092 C 
ATOM      5  C   UNL     1      -1.843  -3.296  -7.253  0.00  0.00    +0.042 C 
ATOM      6  C   UNL     1      -2.383  -4.659  -7.519  0.00  0.00    -0.011 C 
ATOM      7  C   UNL     1      -1.726  -5.760  -7.347  0.00  0.00    +0.015 C 
ATOM      8  C   UNL     1      -0.299  -5.804  -6.900  0.00  0.00    +0.060 C 
ATOM      9  C   UNL     1       0.240  -4.486  -6.427  0.00  0.00    +0.093 C 
ATOM     10  C   UNL     1       0.006  -4.150  -4.983  0.00  0.00    +0.230 C 
ATOM     11  O   UNL     1      -0.144  -4.934  -4.071  0.00  0.00    -0.274 OA
ATOM     12 CL   UNL     1      -2.542  -7.262  -7.652  0.00  0.00    -0.089 Cl
ENDROOT
BRANCH   1  16
ATOM     13  C   UNL     1      -0.000  -0.735  -1.280  0.00  0.00    -0.001 A 
ATOM     14  C   UNL     1      -0.015  -0.032  -2.487  0.00  0.00    +0.011 A 
ATOM     15  C   UNL     1      -0.017  -0.717  -3.682  0.00  0.00    +0.024 A 
ATOM     16  C   UNL     1      -0.004  -2.107  -3.687  0.00  0.00    +0.044 A 
ATOM     17  C   UNL     1       0.011  -2.811  -2.488  0.00  0.00    +0.024 A 
ATOM     18  C   UNL     1       0.019  -2.132  -1.289  0.00  0.00    +0.011 A 
BRANCH  13  20
ATOM     19  C   UNL     1      -0.018   1.503   0.010  0.00  0.00    +0.069 C 
ATOM     20  C   UNL     1       0.002  -0.004   0.002  0.00  0.00    +0.084 C 
ATOM     21  N   UNL     1       0.021  -0.657   1.119  0.00  0.00    -0.092 NA
BRANCH  21  22
ATOM     22  O   UNL     1       0.024   0.044   2.349  0.00  0.00    -0.409 OA
ATOM     23  H   UNL     1       0.039  -0.528   3.128  0.00  0.00    +0.328 HD
ENDBRANCH  21  22
ENDBRANCH  13  20
ENDBRANCH   1  16
TORSDOF 3
