REMARK  Name = ZINC35228098
REMARK  13 active torsions:
REMARK  status: ('A' for Active; 'I' for Inactive)
REMARK    1  A    between atoms: C_1  and  C_2
REMARK    2  A    between atoms: C_2  and  C_4
REMARK    3  A    between atoms: C_2  and  O_36
REMARK    4  A    between atoms: C_10  and  C_35
REMARK    5  A    between atoms: C_12  and  O_31
REMARK    6  A    between atoms: C_20  and  C_30
REMARK    7  A    between atoms: C_23  and  O_26
REMARK    8  A    between atoms: O_26  and  C_27
REMARK    9  A    between atoms: C_27  and  C_29
REMARK   10  A    between atoms: O_31  and  C_32
REMARK   11  A    between atoms: C_32  and  C_34
REMARK   12  A    between atoms: O_36  and  C_37
REMARK   13  A    between atoms: C_37  and  C_39
REMARK                            x       y       z     vdW  Elec       q    Type
REMARK                         _______ _______ _______ _____ _____    ______ ____
ROOT
ATOM      1  C   UNL     1       0.734  -0.540   1.372  0.00  0.00    +0.036 C 
ATOM      2  C   UNL     1       2.200  -0.053   1.276  0.00  0.00    +0.008 C 
ATOM      3  C   UNL     1       3.070  -1.320   1.057  0.00  0.00    +0.005 C 
ATOM      4  C   UNL     1       2.080  -2.318   0.448  0.00  0.00    +0.003 C 
ATOM      5  C   UNL     1       0.802  -2.064   1.291  0.00  0.00    -0.016 C 
ATOM      6  C   UNL     1      -0.350  -2.732   0.554  0.00  0.00    +0.081 C 
ATOM      7  C   UNL     1      -0.014  -4.208   0.503  0.00  0.00    +0.109 C 
ATOM      8  C   UNL     1       1.215  -4.650   0.522  0.00  0.00    -0.022 C 
ATOM      9  C   UNL     1       2.442  -3.770   0.538  0.00  0.00    +0.022 C 
ATOM     10  C   UNL     1       3.271  -4.103   1.775  0.00  0.00    +0.008 C 
ATOM     11  C   UNL     1       3.565  -5.603   1.825  0.00  0.00    +0.005 C 
ATOM     12  C   UNL     1       2.993  -6.315   0.604  0.00  0.00    +0.003 C 
ATOM     13  C   UNL     1       1.482  -6.145   0.538  0.00  0.00    -0.004 C 
ATOM     14  C   UNL     1       0.934  -6.783  -0.738  0.00  0.00    +0.015 C 
ATOM     15  C   UNL     1       1.271  -8.277  -0.735  0.00  0.00    +0.045 C 
ATOM     16  C   UNL     1       2.787  -8.465  -0.675  0.00  0.00    +0.177 C 
ATOM     17  C   UNL     1       3.304  -7.810   0.654  0.00  0.00    +0.049 C 
ATOM     18  C   UNL     1       0.857  -6.781   1.781  0.00  0.00    +0.016 C 
ATOM     19  C   UNL     1       0.963  -2.661   2.691  0.00  0.00    +0.012 C 
ENDROOT
BRANCH   1  21
ATOM     20  C   UNL     1      -0.118   1.543   0.287  0.00  0.00    +0.052 C 
ATOM     21  C   UNL     1      -0.086   0.016   0.206  0.00  0.00    +0.177 C 
BRANCH  21  22
ATOM     22  O   UNL     1      -1.420  -0.493   0.277  0.00  0.00    -0.462 OA
BRANCH  22  23
ATOM     23  C   UNL     1      -2.075  -0.648  -0.884  0.00  0.00    +0.304 C 
ATOM     24  O   UNL     1      -1.535  -0.362  -1.926  0.00  0.00    -0.251 OA
ATOM     25  C   UNL     1      -3.486  -1.179  -0.888  0.00  0.00    +0.136 C 
ENDBRANCH  22  23
ENDBRANCH  21  22
ENDBRANCH   1  21
BRANCH  16  26
ATOM     26  O   UNL     1       3.092  -9.861  -0.653  0.00  0.00    -0.462 OA
BRANCH  26  27
ATOM     27  C   UNL     1       3.268 -10.465  -1.839  0.00  0.00    +0.304 C 
ATOM     28  O   UNL     1       3.166  -9.830  -2.862  0.00  0.00    -0.251 OA
ATOM     29  C   UNL     1       3.592 -11.936  -1.895  0.00  0.00    +0.136 C 
ENDBRANCH  26  27
ENDBRANCH  16  26
BRANCH   7  30
ATOM     30  O   UNL     1      -1.029  -5.106   0.438  0.00  0.00    -0.430 OA
BRANCH  30  31
ATOM     31  C   UNL     1      -1.814  -5.091  -0.651  0.00  0.00    +0.309 C 
ATOM     32  O   UNL     1      -1.551  -4.359  -1.576  0.00  0.00    -0.251 OA
ATOM     33  C   UNL     1      -3.024  -5.987  -0.721  0.00  0.00    +0.136 C 
ENDBRANCH  30  31
ENDBRANCH   7  30
TORSDOF 7
