REMARK  Name = ZINC15482852
REMARK  9 active torsions:
REMARK  status: ('A' for Active; 'I' for Inactive)
REMARK    1  A    between atoms: C_1  and  C_2
REMARK    2  A    between atoms: C_4  and  C_29
REMARK    3  A    between atoms: C_5  and  N_9
REMARK    4  A    between atoms: C_6  and  C_8
REMARK    5  A    between atoms: C_10  and  C_12
REMARK    6  A    between atoms: C_12  and  N_13
REMARK    7  A    between atoms: N_13  and  C_14
REMARK    8  A    between atoms: N_13  and  C_15
REMARK    9  A    between atoms: C_15  and  C_16
REMARK                            x       y       z     vdW  Elec       q    Type
REMARK                         _______ _______ _______ _____ _____    ______ ____
ROOT
ATOM      1  N   UNL     1       0.859  -6.985   2.268  0.00  0.00    +0.388 N 
ATOM      2  C   UNL     1       2.244  -6.552   2.501  0.00  0.00    -0.095 C 
ATOM      3  H   UNL     1       0.267  -6.623   3.000  0.00  0.00    -0.081 HD
ENDROOT
BRANCH   1   4
ATOM      4  C   UNL     1       0.399  -6.476   0.970  0.00  0.00    +0.019 C 
BRANCH   4   6
ATOM      5  N   UNL     1      -0.052  -4.280  -0.077  0.00  0.00    -0.287 N 
ATOM      6  C   UNL     1       0.345  -4.970   1.011  0.00  0.00    +0.201 C 
ATOM      7  O   UNL     1       0.659  -4.380   2.022  0.00  0.00    -0.278 OA
ATOM      8  H   UNL     1      -0.370  -4.753  -0.862  0.00  0.00    +0.155 HD
BRANCH   5  13
ATOM      9  C   UNL     1       0.136   1.390  -0.065  0.00  0.00    +0.044 C 
ATOM     10  C   UNL     1       0.086  -0.116  -0.068  0.00  0.00    -0.050 A 
ATOM     11  C   UNL     1       0.759  -0.827  -1.045  0.00  0.00    +0.008 A 
ATOM     12  C   UNL     1       0.715  -2.207  -1.051  0.00  0.00    -0.029 A 
ATOM     13  C   UNL     1      -0.005  -2.882  -0.074  0.00  0.00    +0.039 A 
ATOM     14  C   UNL     1      -0.679  -2.165   0.906  0.00  0.00    -0.029 A 
ATOM     15  C   UNL     1      -0.628  -0.785   0.909  0.00  0.00    +0.008 A 
ATOM     16  C   UNL     1      -1.463  -2.893   1.968  0.00  0.00    +0.045 C 
ATOM     17  C   UNL     1       1.448  -2.981  -2.116  0.00  0.00    +0.045 C 
ENDBRANCH   5  13
ENDBRANCH   4   6
ENDBRANCH   1   4
BRANCH   1  18
ATOM     18  C   UNL     1       0.798  -8.453   2.268  0.00  0.00    -0.003 C 
BRANCH  18  19
ATOM     19  C   UNL     1       1.152  -8.970   3.639  0.00  0.00    +0.094 A 
ATOM     20  N   UNL     1       1.157 -10.314   3.839  0.00  0.00    -0.312 N 
ATOM     21  H   UNL     1       0.935 -10.910   3.106  0.00  0.00    +0.170 HD
ATOM     22  C   UNL     1       1.468 -10.829   5.051  0.00  0.00    +0.259 A 
ATOM     23  O   UNL     1       1.476 -12.031   5.245  0.00  0.00    -0.267 OA
ATOM     24  C   UNL     1       1.796  -9.880   6.126  0.00  0.00    +0.066 A 
ATOM     25  C   UNL     1       2.129 -10.307   7.409  0.00  0.00    +0.035 A 
ATOM     26  C   UNL     1       2.428  -9.374   8.380  0.00  0.00    +0.042 A 
ATOM     27  C   UNL     1       2.398  -8.016   8.086  0.00  0.00    +0.022 A 
ATOM     28  C   UNL     1       2.070  -7.574   6.824  0.00  0.00    +0.030 A 
ATOM     29  C   UNL     1       1.765  -8.500   5.824  0.00  0.00    +0.078 A 
ATOM     30  N   UNL     1       1.442  -8.109   4.566  0.00  0.00    -0.236 NA
ATOM     31 CL   UNL     1       2.844  -9.899   9.981  0.00  0.00    -0.084 Cl
ENDBRANCH  18  19
ENDBRANCH   1  18
TORSDOF 5
