REMARK  Name = ZINC21723675
REMARK  3 active torsions:
REMARK  status: ('A' for Active; 'I' for Inactive)
REMARK    1  A    between atoms: C_3  and  C_17
REMARK    2  A    between atoms: C_7  and  C_10
REMARK    3  A    between atoms: N_19  and  C_20
REMARK                            x       y       z     vdW  Elec       q    Type
REMARK                         _______ _______ _______ _____ _____    ______ ____
ROOT
ATOM      1  C   UNL     1      -2.582   3.939  -0.533  0.00  0.00    +0.019 A 
ATOM      2  C   UNL     1      -1.343   3.294  -0.466  0.00  0.00    +0.018 A 
ATOM      3  C   UNL     1      -1.302   1.914  -0.311  0.00  0.00    +0.081 A 
ATOM      4  C   UNL     1      -2.570   1.190  -0.215  0.00  0.00    +0.174 A 
ATOM      5  N   UNL     1      -2.885  -0.082  -0.064  0.00  0.00    -0.128 NA
ATOM      6  N   UNL     1      -4.165  -0.213  -0.037  0.00  0.00    -0.128 NA
ATOM      7  C   UNL     1      -4.745   0.962  -0.168  0.00  0.00    +0.169 A 
ATOM      8  N   UNL     1      -3.748   1.895  -0.285  0.00  0.00    -0.282 N 
ATOM      9  C   UNL     1      -3.738   3.245  -0.442  0.00  0.00    +0.095 A 
ENDROOT
BRANCH   7  10
ATOM     10  C   UNL     1      -6.199   1.226  -0.185  0.00  0.00    +0.020 A 
ATOM     11  C   UNL     1      -6.682   2.507   0.087  0.00  0.00    +0.014 A 
ATOM     12  C   UNL     1      -8.040   2.749   0.064  0.00  0.00    +0.039 A 
ATOM     13  C   UNL     1      -8.924   1.720  -0.218  0.00  0.00    +0.123 A 
ATOM     14  C   UNL     1      -8.451   0.445  -0.483  0.00  0.00    +0.039 A 
ATOM     15  C   UNL     1      -7.095   0.193  -0.468  0.00  0.00    +0.014 A 
ATOM     16  F   UNL     1     -10.254   1.961  -0.234  0.00  0.00    -0.205 F 
ENDBRANCH   7  10
BRANCH   3  17
ATOM     17  C   UNL     1      -0.016   1.199  -0.239  0.00  0.00    +0.248 C 
ATOM     18  O   UNL     1       0.001  -0.009  -0.098  0.00  0.00    -0.270 OA
ATOM     19  N   UNL     1       1.141   1.883  -0.335  0.00  0.00    -0.300 N 
ATOM     20  H   UNL     1       1.126   2.975  -0.463  0.00  0.00    +0.150 HD
BRANCH  19  21
ATOM     21  C   UNL     1       2.420   1.171  -0.270  0.00  0.00    +0.159 C 
ATOM     22  C   UNL     1       3.550   2.168  -0.003  0.00  0.00    +0.032 C 
ATOM     23  C   UNL     1       3.272   3.494  -0.690  0.00  0.00    +0.004 C 
ATOM     24  C   UNL     1       3.298   3.416  -2.206  0.00  0.00    +0.019 C 
ATOM     25  C   UNL     1       2.138   2.567  -2.729  0.00  0.00    +0.104 C 
ATOM     26  N   UNL     1       2.554   1.155  -2.737  0.00  0.00    -0.314 N 
ATOM     27  C   UNL     1       2.688   0.484  -1.593  0.00  0.00    +0.233 C 
ATOM     28  O   UNL     1       3.025  -0.681  -1.611  0.00  0.00    -0.274 OA
ATOM     29  H   UNL     1       2.756   0.647  -3.692  0.00  0.00    +0.149 HD
ENDBRANCH  19  21
ENDBRANCH   3  17
TORSDOF 3
