REMARK  Name = ZINC33072117
REMARK  9 active torsions:
REMARK  status: ('A' for Active; 'I' for Inactive)
REMARK    1  A    between atoms: C_1  and  C_2
REMARK    2  A    between atoms: C_2  and  N_3
REMARK    3  A    between atoms: C_4  and  C_32
REMARK    4  A    between atoms: C_5  and  C_9
REMARK    5  A    between atoms: C_6  and  C_8
REMARK    6  A    between atoms: C_9  and  C_10
REMARK    7  A    between atoms: C_10  and  N_11
REMARK    8  A    between atoms: C_12  and  C_14
REMARK    9  A    between atoms: C_26  and  C_31
REMARK                            x       y       z     vdW  Elec       q    Type
REMARK                         _______ _______ _______ _____ _____    ______ ____
ROOT
ATOM      1  C   UNL     1      -6.173   4.237   6.705  0.00  0.00    +0.092 C 
ATOM      2  C   UNL     1      -7.277   3.177   6.674  0.00  0.00    +0.016 C 
ATOM      3  C   UNL     1      -7.548   2.777   5.221  0.00  0.00    +0.020 C 
ATOM      4  C   UNL     1      -6.254   2.262   4.589  0.00  0.00    +0.108 C 
ATOM      5  N   UNL     1      -5.229   3.312   4.643  0.00  0.00    -0.302 N 
ATOM      6  C   UNL     1      -4.918   3.679   6.030  0.00  0.00    +0.120 C 
ATOM      7  C   UNL     1      -4.091   2.928   3.966  0.00  0.00    +0.174 A 
ATOM      8  N   UNL     1      -4.051   2.529   2.661  0.00  0.00    -0.327 N 
ATOM      9  H   UNL     1      -4.976   2.497   2.067  0.00  0.00    +0.169 HD
ATOM     10  C   UNL     1      -2.732   2.229   2.363  0.00  0.00    +0.066 A 
ATOM     11  C   UNL     1      -2.080   1.787   1.221  0.00  0.00    +0.031 A 
ATOM     12  C   UNL     1      -0.718   1.572   1.248  0.00  0.00    -0.048 A 
ATOM     13  C   UNL     1       0.008   1.805   2.407  0.00  0.00    +0.005 A 
ATOM     14  C   UNL     1      -0.622   2.249   3.548  0.00  0.00    +0.028 A 
ATOM     15  C   UNL     1      -2.002   2.467   3.539  0.00  0.00    +0.065 A 
ATOM     16  N   UNL     1      -2.886   2.890   4.480  0.00  0.00    -0.327 N 
ATOM     17  C   UNL     1      -0.013   1.086   0.008  0.00  0.00    +0.044 C 
ATOM     18  H   UNL     1      -2.727   3.181   5.529  0.00  0.00    +0.169 HD
ENDROOT
BRANCH   1  20
ATOM     19  N   UNL     1      -6.819   5.107   8.929  0.00  0.00    -0.315 N 
ATOM     20  C   UNL     1      -5.858   4.594   8.136  0.00  0.00    +0.218 C 
ATOM     21  O   UNL     1      -4.740   4.419   8.572  0.00  0.00    -0.275 OA
ATOM     22  H   UNL     1      -7.833   5.265   8.533  0.00  0.00    +0.149 HD
BRANCH  19  23
ATOM     23  C   UNL     1      -6.514   5.454  10.319  0.00  0.00    +0.109 C 
BRANCH  23  24
ATOM     24  C   UNL     1      -7.769   6.011  10.994  0.00  0.00    +0.057 C 
BRANCH  24  27
ATOM     25  N   UNL     1      -6.849   7.478  14.203  0.00  0.00    -0.268 N 
ATOM     26  C   UNL     1      -7.008   7.566  12.866  0.00  0.00    +0.040 A 
ATOM     27  C   UNL     1      -7.455   6.368  12.424  0.00  0.00    -0.003 A 
ATOM     28  C   UNL     1      -7.578   5.520  13.529  0.00  0.00    +0.063 A 
ATOM     29  N   UNL     1      -7.210   6.183  14.596  0.00  0.00    -0.176 NA
ATOM     30  C   UNL     1      -8.050   4.089  13.498  0.00  0.00    +0.068 C 
ATOM     31  C   UNL     1      -6.737   8.781  12.017  0.00  0.00    +0.065 C 
BRANCH  25  33
ATOM     32  C   UNL     1      -7.580   9.358  15.586  0.00  0.00    +0.029 C 
ATOM     33  C   UNL     1      -6.382   8.548  15.088  0.00  0.00    +0.140 C 
ENDBRANCH  25  33
ENDBRANCH  24  27
ENDBRANCH  23  24
ENDBRANCH  19  23
ENDBRANCH   1  20
TORSDOF 5
