REMARK  Name = ZINC39893687
REMARK  8 active torsions:
REMARK  status: ('A' for Active; 'I' for Inactive)
REMARK    1  A    between atoms: C_1  and  C_2
REMARK    2  A    between atoms: C_5  and  N_11
REMARK    3  A    between atoms: C_7  and  N_8
REMARK    4  A    between atoms: N_11  and  C_12
REMARK    5  A    between atoms: C_14  and  C_30
REMARK    6  A    between atoms: C_15  and  C_28
REMARK    7  A    between atoms: N_18  and  C_21
REMARK    8  A    between atoms: C_21  and  C_22
REMARK                            x       y       z     vdW  Elec       q    Type
REMARK                         _______ _______ _______ _____ _____    ______ ____
ROOT
ATOM      1  C   UNL     1       0.659  -3.804  -1.901  0.00  0.00    +0.085 C 
ATOM      2  C   UNL     1       0.738  -5.192  -1.960  0.00  0.00    +0.055 C 
ATOM      3  C   UNL     1       1.004  -5.943  -0.793  0.00  0.00    -0.015 C 
ATOM      4  C   UNL     1       1.075  -7.325  -0.892  0.00  0.00    +0.118 C 
ATOM      5  C   UNL     1       0.874  -7.968  -2.192  0.00  0.00    +0.264 C 
ATOM      6  O   UNL     1       0.936  -9.181  -2.279  0.00  0.00    -0.269 OA
ATOM      7  N   UNL     1       0.621  -7.236  -3.291  0.00  0.00    -0.231 N 
ATOM      8  C   UNL     1       0.539  -5.894  -3.234  0.00  0.00    +0.255 C 
ATOM      9  O   UNL     1       0.304  -5.259  -4.245  0.00  0.00    -0.269 OA
ATOM     10  C   UNL     1       1.207  -5.256   0.533  0.00  0.00    +0.046 C 
ENDROOT
BRANCH   1  11
ATOM     11  N   UNL     1       0.620  -3.182  -0.708  0.00  0.00    -0.320 N 
ATOM     12  H   UNL     1       0.549  -3.702   0.108  0.00  0.00    +0.152 HD
BRANCH  11  17
ATOM     13  C   UNL     1       0.863   2.478  -0.451  0.00  0.00    +0.046 C 
ATOM     14  C   UNL     1       0.798   0.974  -0.519  0.00  0.00    -0.020 A 
ATOM     15  C   UNL     1       0.839   0.337  -1.746  0.00  0.00    +0.007 A 
ATOM     16  C   UNL     1       0.780  -1.041  -1.812  0.00  0.00    +0.023 A 
ATOM     17  C   UNL     1       0.680  -1.787  -0.644  0.00  0.00    +0.033 A 
ATOM     18  C   UNL     1       0.639  -1.144   0.586  0.00  0.00    +0.056 A 
ATOM     19  C   UNL     1       0.703   0.234   0.645  0.00  0.00    +0.131 A 
BRANCH  19  20
ATOM     20  N   UNL     1       0.666   0.921   1.956  0.00  0.00    +0.057 N 
ATOM     21  O   UNL     1       1.332   1.913   2.138  0.00  0.00    -0.126 OA
ATOM     22  O   UNL     1      -0.031   0.488   2.845  0.00  0.00    -0.126 OA
ENDBRANCH  19  20
ENDBRANCH  11  17
ENDBRANCH   1  11
BRANCH   4  23
ATOM     23  C   UNL     1       1.343  -8.118   0.270  0.00  0.00    +0.105 C 
ATOM     24  N   UNL     1       1.555  -8.747   1.192  0.00  0.00    -0.191 NA
ENDBRANCH   4  23
BRANCH   7  25
ATOM     25  C   UNL     1       0.426  -7.913  -4.575  0.00  0.00    +0.148 C 
BRANCH  25  26
ATOM     26  C   UNL     1      -1.058  -8.241  -4.758  0.00  0.00    +0.136 C 
ATOM     27  C   UNL     1      -1.282  -8.989  -6.096  0.00  0.00    +0.035 C 
ATOM     28  C   UNL     1      -2.597  -9.756  -5.788  0.00  0.00    +0.031 C 
ATOM     29  C   UNL     1      -2.444 -10.078  -4.286  0.00  0.00    +0.160 C 
ATOM     30  O   UNL     1      -1.496  -9.152  -3.738  0.00  0.00    -0.375 OA
ENDBRANCH  25  26
ENDBRANCH   7  25
TORSDOF 6
