REMARK  Name = ZINC13507715
REMARK  9 active torsions:
REMARK  status: ('A' for Active; 'I' for Inactive)
REMARK    1  A    between atoms: C_1  and  C_2
REMARK    2  A    between atoms: C_7  and  N_8
REMARK    3  A    between atoms: N_8  and  C_9
REMARK    4  A    between atoms: C_9  and  C_11
REMARK    5  A    between atoms: C_9  and  C_16
REMARK    6  A    between atoms: N_18  and  C_19
REMARK    7  A    between atoms: C_25  and  C_27
REMARK    8  A    between atoms: C_27  and  N_28
REMARK    9  A    between atoms: C_29  and  C_31
REMARK                            x       y       z     vdW  Elec       q    Type
REMARK                         _______ _______ _______ _____ _____    ______ ____
ROOT
ATOM      1  N   UNL     1       0.014   1.847  -0.271  0.00  0.00    -0.253 N 
ATOM      2  C   UNL     1       0.982   2.781  -0.349  0.00  0.00    +0.238 C 
ATOM      3  O   UNL     1       0.758   3.919   0.007  0.00  0.00    -0.274 OA
ENDROOT
BRANCH   1  10
ATOM      4  C   UNL     1      -0.320   1.213  -3.025  0.00  0.00    +0.045 C 
ATOM      5  C   UNL     1       0.122   0.183  -2.017  0.00  0.00    -0.029 A 
ATOM      6  C   UNL     1       0.383  -1.112  -2.422  0.00  0.00    +0.005 A 
ATOM      7  C   UNL     1       0.783  -2.059  -1.497  0.00  0.00    +0.000 A 
ATOM      8  C   UNL     1       0.929  -1.712  -0.166  0.00  0.00    +0.002 A 
ATOM      9  C   UNL     1       0.674  -0.418   0.243  0.00  0.00    +0.024 A 
ATOM     10  C   UNL     1       0.272   0.535  -0.683  0.00  0.00    +0.040 A 
ENDBRANCH   1  10
BRANCH   1  11
ATOM     11  C   UNL     1      -1.311   2.207   0.240  0.00  0.00    +0.204 C 
BRANCH  11  12
ATOM     12  C   UNL     1      -2.361   1.818  -0.769  0.00  0.00    +0.019 A 
ATOM     13  C   UNL     1      -3.297   2.593  -1.370  0.00  0.00    +0.013 A 
ATOM     14  C   UNL     1      -4.167   2.014  -2.275  0.00  0.00    +0.008 A 
ATOM     15  C   UNL     1      -4.058   0.688  -2.535  0.00  0.00    +0.045 A 
ATOM     16  S   UNL     1      -2.690   0.217  -1.489  0.00  0.00    -0.099 S 
ENDBRANCH  11  12
BRANCH  11  17
ATOM     17  C   UNL     1      -1.565   1.480   1.535  0.00  0.00    +0.239 C 
ATOM     18  O   UNL     1      -0.722   0.734   1.987  0.00  0.00    -0.273 OA
ATOM     19  N   UNL     1      -2.729   1.657   2.191  0.00  0.00    -0.311 N 
ATOM     20  H   UNL     1      -3.403   2.254   1.829  0.00  0.00    +0.149 HD
BRANCH  19  21
ATOM     21  C   UNL     1      -2.975   0.950   3.450  0.00  0.00    +0.073 C 
ATOM     22  C   UNL     1      -3.526  -0.446   3.151  0.00  0.00    +0.022 C 
ATOM     23  C   UNL     1      -3.784  -1.184   4.466  0.00  0.00    +0.002 C 
ATOM     24  C   UNL     1      -4.801  -0.402   5.300  0.00  0.00    +0.000 C 
ATOM     25  C   UNL     1      -4.250   0.994   5.598  0.00  0.00    +0.002 C 
ATOM     26  C   UNL     1      -3.993   1.732   4.284  0.00  0.00    +0.022 C 
ENDBRANCH  19  21
ENDBRANCH  11  17
ENDBRANCH   1  11
BRANCH   2  27
ATOM     27  C   UNL     1       2.343   2.413  -0.881  0.00  0.00    +0.201 C 
BRANCH  27  28
ATOM     28  N   UNL     1       3.210   3.594  -0.864  0.00  0.00    -0.300 N 
ATOM     29  C   UNL     1       4.483   3.502  -1.298  0.00  0.00    +0.280 C 
ATOM     30  O   UNL     1       4.912   2.438  -1.703  0.00  0.00    -0.267 OA
ATOM     31  H   UNL     1       2.868   4.442  -0.542  0.00  0.00    +0.150 HD
BRANCH  29  32
ATOM     32  C   UNL     1       5.350   4.684  -1.282  0.00  0.00    +0.189 A 
ATOM     33  C   UNL     1       6.652   4.730  -1.690  0.00  0.00    +0.054 A 
ATOM     34  C   UNL     1       7.089   6.050  -1.501  0.00  0.00    +0.042 A 
ATOM     35  C   UNL     1       6.047   6.744  -0.992  0.00  0.00    +0.196 A 
ATOM     36  O   UNL     1       5.000   5.919  -0.866  0.00  0.00    -0.458 OA
ENDBRANCH  29  32
ENDBRANCH  27  28
ENDBRANCH   2  27
TORSDOF 8
