REMARK  Name = ZINC65526091
REMARK  5 active torsions:
REMARK  status: ('A' for Active; 'I' for Inactive)
REMARK    1  A    between atoms: C_7  and  C_10
REMARK    2  A    between atoms: C_10  and  C_11
REMARK    3  A    between atoms: C_11  and  N_12
REMARK    4  A    between atoms: C_17  and  N_19
REMARK    5  A    between atoms: C_23  and  O_26
REMARK                            x       y       z     vdW  Elec       q    Type
REMARK                         _______ _______ _______ _____ _____    ______ ____
ROOT
ATOM      1  N   UNL     1      -0.786  -4.535  -1.532  0.00  0.00    -0.313 N 
ATOM      2  C   UNL     1      -0.980  -5.268  -2.689  0.00  0.00    +0.217 A 
ATOM      3  N   UNL     1      -0.329  -4.921  -3.790  0.00  0.00    -0.223 NA
ATOM      4  C   UNL     1      -0.488  -5.599  -4.917  0.00  0.00    +0.118 A 
ATOM      5  C   UNL     1      -1.346  -6.681  -4.940  0.00  0.00    +0.063 A 
ATOM      6  C   UNL     1      -2.018  -7.022  -3.765  0.00  0.00    +0.126 A 
ATOM      7  N   UNL     1      -1.808  -6.301  -2.668  0.00  0.00    -0.200 NA
ATOM      8  H   UNL     1      -1.254  -4.780  -0.718  0.00  0.00    +0.149 HD
ENDROOT
BRANCH   6   9
ATOM      9  N   UNL     1      -2.889  -8.100  -3.741  0.00  0.00    -0.313 N 
ATOM     10  C   UNL     1      -3.427  -8.599  -2.468  0.00  0.00    +0.106 C 
ATOM     11  C   UNL     1      -4.956  -8.642  -2.562  0.00  0.00    +0.021 C 
ATOM     12  C   UNL     1      -5.365  -9.467  -3.784  0.00  0.00    +0.034 C 
ATOM     13  C   UNL     1      -4.821  -8.806  -5.053  0.00  0.00    +0.132 C 
ATOM     14  C   UNL     1      -3.296  -8.761  -4.988  0.00  0.00    +0.137 C 
BRANCH  13  15
ATOM     15  O   UNL     1      -5.230  -9.560  -6.196  0.00  0.00    -0.390 OA
ATOM     16  H   UNL     1      -6.189  -9.629  -6.299  0.00  0.00    +0.210 HD
ENDBRANCH  13  15
ENDBRANCH   6   9
BRANCH   1  17
ATOM     17  C   UNL     1       0.126  -3.388  -1.535  0.00  0.00    +0.109 C 
BRANCH  17  18
ATOM     18  C   UNL     1       0.158  -2.758  -0.141  0.00  0.00    +0.052 C 
BRANCH  18  25
ATOM     19  C   UNL     1      -0.524   1.742  -0.721  0.00  0.00    +0.001 A 
ATOM     20  C   UNL     1       0.651   2.503  -0.648  0.00  0.00    +0.002 A 
ATOM     21  C   UNL     1       1.863   1.952  -0.427  0.00  0.00    +0.026 A 
ATOM     22  C   UNL     1       1.994   0.547  -0.256  0.00  0.00    +0.043 A 
ATOM     23  N   UNL     1       3.040  -0.212  -0.036  0.00  0.00    -0.380 N 
ATOM     24  C   UNL     1       2.594  -1.607   0.057  0.00  0.00    +0.144 C 
ATOM     25  C   UNL     1       1.096  -1.578  -0.144  0.00  0.00    -0.040 C 
ATOM     26  C   UNL     1       0.767  -0.279  -0.329  0.00  0.00    -0.001 A 
ATOM     27  C   UNL     1      -0.512   0.398  -0.572  0.00  0.00    +0.010 A 
ATOM     28  H   UNL     1       3.955   0.097   0.052  0.00  0.00    +0.160 HD
ENDBRANCH  18  25
ENDBRANCH  17  18
ENDBRANCH   1  17
TORSDOF 5
