REMARK  Name = ZINC16833019
REMARK  12 active torsions:
REMARK  status: ('A' for Active; 'I' for Inactive)
REMARK    1  A    between atoms: C_1  and  C_2
REMARK    2  A    between atoms: C_2  and  C_4
REMARK    3  A    between atoms: C_2  and  S_16
REMARK    4  A    between atoms: N_6  and  C_7
REMARK    5  A    between atoms: C_10  and  C_14
REMARK    6  A    between atoms: S_16  and  C_17
REMARK    7  A    between atoms: C_21  and  C_23
REMARK    8  A    between atoms: C_23  and  C_24
REMARK    9  A    between atoms: C_23  and  C_25
REMARK   10  A    between atoms: C_23  and  C_26
REMARK   11  A    between atoms: N_27  and  C_34
REMARK   12  A    between atoms: N_30  and  C_33
REMARK                            x       y       z     vdW  Elec       q    Type
REMARK                         _______ _______ _______ _____ _____    ______ ____
ROOT
ATOM      1  C   UNL     1      -2.536  10.030  -0.992  0.00  0.00    +0.116 A 
ATOM      2  C   UNL     1      -3.516  10.896  -1.500  0.00  0.00    +0.114 A 
ATOM      3  C   UNL     1      -3.220  12.269  -1.597  0.00  0.00    +0.154 A 
ATOM      4  N   UNL     1      -2.023  12.694  -1.216  0.00  0.00    -0.213 NA
ATOM      5  C   UNL     1      -1.128  11.844  -0.748  0.00  0.00    +0.138 A 
ATOM      6  N   UNL     1      -1.362  10.552  -0.634  0.00  0.00    -0.224 NA
ATOM      7  N   UNL     1      -4.184  13.121  -2.092  0.00  0.00    -0.281 N 
ATOM      8  C   UNL     1      -5.386  12.649  -2.469  0.00  0.00    +0.333 A 
ATOM      9  O   UNL     1      -6.209  13.434  -2.900  0.00  0.00    -0.246 OA
ATOM     10  N   UNL     1      -5.717  11.351  -2.390  0.00  0.00    -0.263 N 
ATOM     11  C   UNL     1      -4.842  10.433  -1.919  0.00  0.00    +0.268 A 
ATOM     12  O   UNL     1      -5.145   9.257  -1.850  0.00  0.00    -0.267 OA
ATOM     13  C   UNL     1      -7.049  10.920  -2.822  0.00  0.00    +0.157 C 
ATOM     14  C   UNL     1      -3.897  14.553  -2.208  0.00  0.00    +0.155 C 
ENDROOT
BRANCH   5  15
ATOM     15  C   UNL     1       0.218  12.374  -0.327  0.00  0.00    +0.022 C 
ATOM     16  C   UNL     1       1.086  11.219   0.178  0.00  0.00    +0.019 C 
ATOM     17  C   UNL     1       0.901  13.039  -1.523  0.00  0.00    +0.019 C 
ATOM     18  C   UNL     1       0.035  13.401   0.792  0.00  0.00    +0.019 C 
ENDBRANCH   5  15
BRANCH   1  19
ATOM     19  S   UNL     1      -2.845   8.302  -0.838  0.00  0.00    -0.093 S 
BRANCH  19  21
ATOM     20  C   UNL     1      -1.061   8.368   1.230  0.00  0.00    +0.029 C 
ATOM     21  C   UNL     1      -1.257   7.758  -0.159  0.00  0.00    +0.136 C 
BRANCH  21  22
ATOM     22  C   UNL     1      -1.245   6.255  -0.054  0.00  0.00    +0.230 C 
ATOM     23  O   UNL     1      -2.289   5.638  -0.048  0.00  0.00    -0.274 OA
ATOM     24  N   UNL     1      -0.072   5.595   0.033  0.00  0.00    -0.285 N 
ATOM     25  H   UNL     1       0.759   6.090   0.095  0.00  0.00    +0.155 HD
BRANCH  24  26
ATOM     26  C   UNL     1      -0.055   4.200   0.034  0.00  0.00    +0.035 A 
ATOM     27  C   UNL     1       0.988   3.518  -0.585  0.00  0.00    +0.024 A 
ATOM     28  C   UNL     1       1.009   2.142  -0.587  0.00  0.00    +0.022 A 
ATOM     29  C   UNL     1      -0.020   1.428   0.035  0.00  0.00    +0.070 A 
ATOM     30  C   UNL     1      -1.070   2.116   0.651  0.00  0.00    +0.060 A 
ATOM     31  C   UNL     1      -1.081   3.494   0.654  0.00  0.00    +0.044 A 
ATOM     32 CL   UNL     1      -2.355   1.235   1.418  0.00  0.00    -0.082 Cl
BRANCH  29  33
ATOM     33  C   UNL     1      -0.001  -0.004   0.035  0.00  0.00    +0.101 C 
ATOM     34  N   UNL     1       0.014  -1.140   0.036  0.00  0.00    -0.191 NA
ENDBRANCH  29  33
ENDBRANCH  24  26
ENDBRANCH  21  22
ENDBRANCH  19  21
ENDBRANCH   1  19
TORSDOF 6
