REMARK  Name = ZINC24798909
REMARK  11 active torsions:
REMARK  status: ('A' for Active; 'I' for Inactive)
REMARK    1  A    between atoms: C_1  and  C_2
REMARK    2  A    between atoms: C_7  and  C_9
REMARK    3  A    between atoms: C_7  and  C_10
REMARK    4  A    between atoms: N_13  and  C_17
REMARK    5  A    between atoms: C_17  and  C_18
REMARK    6  A    between atoms: C_18  and  O_20
REMARK    7  A    between atoms: O_20  and  C_21
REMARK    8  A    between atoms: C_21  and  C_22
REMARK    9  A    between atoms: C_22  and  C_24
REMARK   10  A    between atoms: C_27  and  O_31
REMARK   11  A    between atoms: O_31  and  C_32
REMARK                            x       y       z     vdW  Elec       q    Type
REMARK                         _______ _______ _______ _____ _____    ______ ____
ROOT
ATOM      1  C   UNL     1      -0.159   1.471  -0.048  0.00  0.00    +0.007 C 
ATOM      2  C   UNL     1      -0.085  -0.057  -0.027  0.00  0.00    -0.011 C 
ATOM      3  C   UNL     1      -1.501  -0.636   0.015  0.00  0.00    +0.038 C 
ATOM      4  C   UNL     1      -1.428  -2.159   0.057  0.00  0.00    +0.113 C 
ATOM      5  C   UNL     1      -0.642  -2.627   1.276  0.00  0.00    +0.041 C 
ATOM      6  C   UNL     1       0.772  -2.041   1.230  0.00  0.00    -0.032 C 
ATOM      7  C   UNL     1       0.688  -0.513   1.212  0.00  0.00    +0.009 C 
ATOM      8  C   UNL     1       1.553  -2.495   2.465  0.00  0.00    +0.011 C 
ATOM      9  C   UNL     1       1.485  -2.527  -0.033  0.00  0.00    +0.011 C 
ATOM     10  C   UNL     1      -2.817  -2.754   0.064  0.00  0.00    +0.247 C 
ATOM     11  O   UNL     1      -3.679  -2.595   0.901  0.00  0.00    -0.273 OA
ATOM     12  N   UNL     1      -2.895  -3.499  -1.058  0.00  0.00    -0.213 N 
ATOM     13  C   UNL     1      -1.756  -3.453  -1.761  0.00  0.00    +0.310 C 
ATOM     14  O   UNL     1      -1.585  -4.042  -2.810  0.00  0.00    -0.252 OA
ATOM     15  N   UNL     1      -0.823  -2.679  -1.176  0.00  0.00    -0.285 N 
ATOM     16  H   UNL     1       0.073  -2.500  -1.504  0.00  0.00    +0.151 HD
ENDROOT
BRANCH  12  17
ATOM     17  C   UNL     1      -4.079  -4.264  -1.458  0.00  0.00    +0.238 C 
BRANCH  17  18
ATOM     18  C   UNL     1      -4.972  -3.399  -2.310  0.00  0.00    +0.326 C 
ATOM     19  O   UNL     1      -4.652  -2.260  -2.557  0.00  0.00    -0.249 OA
BRANCH  18  20
ATOM     20  O   UNL     1      -6.122  -3.893  -2.793  0.00  0.00    -0.455 OA
BRANCH  20  21
ATOM     21  C   UNL     1      -6.920  -3.018  -3.593  0.00  0.00    +0.311 C 
BRANCH  21  22
ATOM     22  C   UNL     1      -8.163  -3.741  -4.043  0.00  0.00    +0.200 C 
ATOM     23  O   UNL     1      -8.348  -4.893  -3.712  0.00  0.00    -0.288 OA
BRANCH  22  24
ATOM     24  C   UNL     1      -9.150  -3.050  -4.883  0.00  0.00    +0.022 A 
ATOM     25  C   UNL     1      -8.936  -1.722  -5.271  0.00  0.00    +0.015 A 
ATOM     26  C   UNL     1      -9.864  -1.080  -6.058  0.00  0.00    +0.047 A 
ATOM     27  C   UNL     1     -11.014  -1.747  -6.468  0.00  0.00    +0.134 A 
ATOM     28  C   UNL     1     -11.231  -3.067  -6.085  0.00  0.00    +0.060 A 
ATOM     29  C   UNL     1     -10.306  -3.720  -5.303  0.00  0.00    +0.030 A 
ATOM     30 BR   UNL     1     -12.797  -3.966  -6.646  0.00  0.00    -0.046 Br
BRANCH  27  31
ATOM     31  O   UNL     1     -11.926  -1.109  -7.244  0.00  0.00    -0.494 OA
ATOM     32  C   UNL     1     -11.640   0.245  -7.600  0.00  0.00    +0.277 C 
ENDBRANCH  27  31
ENDBRANCH  22  24
ENDBRANCH  21  22
ENDBRANCH  20  21
ENDBRANCH  18  20
ENDBRANCH  17  18
ENDBRANCH  12  17
TORSDOF 7
