REMARK  Name = ZINC45820051
REMARK  10 active torsions:
REMARK  status: ('A' for Active; 'I' for Inactive)
REMARK    1  A    between atoms: C_1  and  C_2
REMARK    2  A    between atoms: C_4  and  C_15
REMARK    3  A    between atoms: C_6  and  C_12
REMARK    4  A    between atoms: N_9  and  C_11
REMARK    5  A    between atoms: C_12  and  C_13
REMARK    6  A    between atoms: C_12  and  C_14
REMARK    7  A    between atoms: N_17  and  C_18
REMARK    8  A    between atoms: C_18  and  C_19
REMARK    9  A    between atoms: C_19  and  C_21
REMARK   10  A    between atoms: C_19  and  N_26
REMARK                            x       y       z     vdW  Elec       q    Type
REMARK                         _______ _______ _______ _____ _____    ______ ____
ROOT
ATOM      1  C   UNL     1      -0.272   0.636  -3.231  0.00  0.00    +0.245 C 
ATOM      2  O   UNL     1      -0.173   1.551  -2.436  0.00  0.00    -0.270 OA
ATOM      3  N   UNL     1      -0.479   0.898  -4.536  0.00  0.00    -0.312 N 
ATOM      4  H   UNL     1      -0.558   0.168  -5.170  0.00  0.00    +0.149 HD
ENDROOT
BRANCH   1   8
ATOM      5  C   UNL     1      -1.932   0.931  -0.587  0.00  0.00    +0.068 C 
ATOM      6  C   UNL     1      -1.540  -0.524  -0.573  0.00  0.00    +0.070 A 
ATOM      7  C   UNL     1      -0.771  -1.179  -1.558  0.00  0.00    +0.054 A 
ATOM      8  C   UNL     1      -0.164  -0.763  -2.765  0.00  0.00    +0.051 A 
ATOM      9  C   UNL     1       0.538  -1.714  -3.501  0.00  0.00    +0.037 A 
ATOM     10  C   UNL     1       0.615  -3.017  -3.031  0.00  0.00    +0.047 A 
ATOM     11  N   UNL     1       0.042  -3.379  -1.905  0.00  0.00    -0.232 NA
ATOM     12  C   UNL     1      -0.640  -2.523  -1.157  0.00  0.00    +0.159 A 
ATOM     13  N   UNL     1      -1.318  -2.639   0.029  0.00  0.00    -0.249 N 
ATOM     14  N   UNL     1      -1.850  -1.386   0.352  0.00  0.00    -0.174 NA
ATOM     15  C   UNL     1      -1.456  -3.862   0.823  0.00  0.00    +0.174 C 
BRANCH  10  16
ATOM     16  C   UNL     1       1.376  -4.043  -3.831  0.00  0.00    +0.032 C 
ATOM     17  C   UNL     1       0.460  -4.633  -4.905  0.00  0.00    +0.014 C 
ATOM     18  C   UNL     1       2.582  -3.377  -4.498  0.00  0.00    +0.014 C 
ENDBRANCH  10  16
ENDBRANCH   1   8
BRANCH   3  19
ATOM     19  C   UNL     1      -0.585   2.284  -4.998  0.00  0.00    +0.097 C 
BRANCH  19  20
ATOM     20  C   UNL     1      -0.932   2.300  -6.488  0.00  0.00    +0.016 C 
BRANCH  20  21
ATOM     21  N   UNL     1       0.073   1.531  -7.233  0.00  0.00    +0.387 N 
ATOM     22  C   UNL     1       1.404   2.098  -6.984  0.00  0.00    -0.078 C 
ATOM     23  C   UNL     1       2.463   1.251  -7.693  0.00  0.00    -0.019 C 
ATOM     24  C   UNL     1       2.182   1.247  -9.198  0.00  0.00    -0.004 C 
ATOM     25  C   UNL     1       0.764   0.724  -9.441  0.00  0.00    -0.019 C 
ATOM     26  C   UNL     1      -0.233   1.590  -8.668  0.00  0.00    -0.078 C 
ATOM     27  H   UNL     1       0.056   0.570  -6.926  0.00  0.00    -0.081 HD
ENDBRANCH  20  21
BRANCH  20  28
ATOM     28  C   UNL     1      -2.292   1.683  -6.694  0.00  0.00    +0.093 A 
ATOM     29  C   UNL     1      -3.442   2.356  -6.876  0.00  0.00    +0.043 A 
ATOM     30  C   UNL     1      -4.463   1.389  -7.028  0.00  0.00    +0.041 A 
ATOM     31  C   UNL     1      -3.875   0.183  -6.928  0.00  0.00    +0.195 A 
ATOM     32  O   UNL     1      -2.559   0.367  -6.732  0.00  0.00    -0.469 OA
ENDBRANCH  20  28
ENDBRANCH  19  20
ENDBRANCH   3  19
TORSDOF 6
