REMARK  Name = ZINC22797458
REMARK  6 active torsions:
REMARK  status: ('A' for Active; 'I' for Inactive)
REMARK    1  A    between atoms: C_6  and  C_7
REMARK    2  A    between atoms: C_7  and  N_8
REMARK    3  A    between atoms: N_11  and  C_14
REMARK    4  A    between atoms: C_14  and  C_15
REMARK    5  A    between atoms: N_17  and  C_18
REMARK    6  A    between atoms: N_17  and  C_26
REMARK                            x       y       z     vdW  Elec       q    Type
REMARK                         _______ _______ _______ _____ _____    ______ ____
ROOT
ATOM      1  N   UNL     1      -1.745  -0.965  -1.397  0.00  0.00    -0.302 NA
ATOM      2  C   UNL     1      -0.813  -1.884  -2.065  0.00  0.00    +0.066 C 
ATOM      3  C   UNL     1      -1.255  -2.088  -3.516  0.00  0.00    -0.063 C 
ATOM      4  N   UNL     1      -2.616  -2.640  -3.540  0.00  0.00    +0.387 N 
ATOM      5  C   UNL     1      -3.539  -1.700  -2.891  0.00  0.00    -0.063 C 
ATOM      6  C   UNL     1      -3.116  -1.492  -1.435  0.00  0.00    +0.066 C 
ATOM      7  H   UNL     1      -2.631  -3.520  -3.046  0.00  0.00    -0.081 HD
ENDROOT
BRANCH   1   8
ATOM      8  C   UNL     1      -1.321  -0.698  -0.015  0.00  0.00    +0.119 C 
BRANCH   8  14
ATOM      9  C   UNL     1      -0.031   1.445  -0.046  0.00  0.00    +0.009 A 
ATOM     10  C   UNL     1       1.159   2.148  -0.056  0.00  0.00    +0.050 A 
ATOM     11  C   UNL     1       2.366   1.469  -0.047  0.00  0.00    +0.166 A 
ATOM     12  C   UNL     1       2.376   0.076  -0.028  0.00  0.00    +0.167 A 
ATOM     13  C   UNL     1       1.180  -0.622  -0.018  0.00  0.00    +0.054 A 
ATOM     14  C   UNL     1      -0.021   0.063  -0.026  0.00  0.00    -0.030 A 
ATOM     15  O   UNL     1       3.673  -0.351  -0.023  0.00  0.00    -0.453 OA
ATOM     16  C   UNL     1       4.452   0.782  -0.452  0.00  0.00    +0.466 C 
ATOM     17  O   UNL     1       3.656   1.914  -0.055  0.00  0.00    -0.453 OA
ENDBRANCH   8  14
ENDBRANCH   1   8
BRANCH   4  18
ATOM     18  C   UNL     1      -3.033  -2.853  -4.932  0.00  0.00    +0.019 C 
BRANCH  18  19
ATOM     19  C   UNL     1      -4.378  -3.532  -4.956  0.00  0.00    +0.200 C 
ATOM     20  O   UNL     1      -4.884  -3.910  -3.921  0.00  0.00    -0.278 OA
ATOM     21  N   UNL     1      -5.019  -3.719  -6.127  0.00  0.00    -0.295 N 
BRANCH  21  22
ATOM     22  C   UNL     1      -6.369  -4.285  -6.141  0.00  0.00    +0.099 C 
ATOM     23  C   UNL     1      -6.345  -5.679  -5.492  0.00  0.00    +0.046 C 
ATOM     24  C   UNL     1      -7.815  -6.120  -5.235  0.00  0.00    +0.168 C 
ATOM     25  S   UNL     1      -8.544  -4.534  -4.644  0.00  0.00    -0.029 S 
ATOM     26  O   UNL     1      -8.459  -4.486  -3.226  0.00  0.00    -0.174 OA
ATOM     27  O   UNL     1      -9.801  -4.339  -5.277  0.00  0.00    -0.174 OA
ATOM     28  C   UNL     1      -7.325  -3.355  -5.354  0.00  0.00    +0.188 C 
ENDBRANCH  21  22
BRANCH  21  29
ATOM     29  C   UNL     1      -4.364  -3.355  -7.386  0.00  0.00    +0.076 C 
ATOM     30  C   UNL     1      -5.169  -2.251  -8.101  0.00  0.00    +0.022 C 
ATOM     31  C   UNL     1      -5.052  -2.607  -9.603  0.00  0.00    +0.002 C 
ATOM     32  C   UNL     1      -5.129  -4.154  -9.594  0.00  0.00    +0.002 C 
ATOM     33  C   UNL     1      -4.338  -4.565  -8.335  0.00  0.00    +0.022 C 
ENDBRANCH  21  29
ENDBRANCH  18  19
ENDBRANCH   4  18
TORSDOF 6
