REMARK  Name = ZINC40513167
REMARK  6 active torsions:
REMARK  status: ('A' for Active; 'I' for Inactive)
REMARK    1  A    between atoms: C_1  and  C_2
REMARK    2  A    between atoms: C_4  and  C_28
REMARK    3  A    between atoms: C_13  and  C_21
REMARK    4  A    between atoms: N_15  and  C_18
REMARK    5  A    between atoms: C_18  and  C_19
REMARK    6  A    between atoms: C_19  and  O_20
REMARK                            x       y       z     vdW  Elec       q    Type
REMARK                         _______ _______ _______ _____ _____    ______ ____
ROOT
ATOM      1  C   UNL     1      -0.523   1.450   0.038  0.00  0.00    +0.044 C 
ATOM      2  C   UNL     1      -0.237  -0.029   0.015  0.00  0.00    -0.047 A 
ATOM      3  C   UNL     1      -0.233  -0.708  -1.195  0.00  0.00    +0.007 A 
ATOM      4  C   UNL     1       0.027  -2.050  -1.231  0.00  0.00    -0.036 A 
ATOM      5  C   UNL     1       0.289  -2.735  -0.045  0.00  0.00    +0.067 A 
ATOM      6  C   UNL     1       0.282  -2.060   1.186  0.00  0.00    +0.140 A 
ATOM      7  C   UNL     1       0.022  -0.690   1.195  0.00  0.00    +0.050 A 
ATOM      8  O   UNL     1       0.518  -2.692   2.358  0.00  0.00    -0.450 OA
ATOM      9  C   UNL     1       1.001  -3.950   2.351  0.00  0.00    +0.199 A 
ATOM     10  C   UNL     1       1.051  -4.714   1.220  0.00  0.00    +0.072 A 
ATOM     11  C   UNL     1       0.581  -4.191  -0.067  0.00  0.00    +0.199 A 
ATOM     12  O   UNL     1       0.444  -4.884  -1.059  0.00  0.00    -0.287 OA
ATOM     13  C   UNL     1       1.631  -6.039   1.591  0.00  0.00    +0.145 C 
ATOM     14  N   UNL     1       1.915  -5.964   3.033  0.00  0.00    -0.282 N 
ATOM     15  C   UNL     1       1.545  -4.742   3.468  0.00  0.00    +0.283 C 
ATOM     16  O   UNL     1       1.646  -4.351   4.614  0.00  0.00    -0.267 OA
ATOM     17  C   UNL     1       0.031  -2.784  -2.547  0.00  0.00    +0.044 C 
ENDROOT
BRANCH  13  18
ATOM     18  C   UNL     1       0.638  -7.138   1.312  0.00  0.00    -0.022 A 
ATOM     19  C   UNL     1      -0.408  -7.362   2.188  0.00  0.00    +0.007 A 
ATOM     20  C   UNL     1      -1.320  -8.370   1.933  0.00  0.00    +0.020 A 
ATOM     21  C   UNL     1      -1.185  -9.154   0.801  0.00  0.00    +0.041 A 
ATOM     22  C   UNL     1      -0.138  -8.929  -0.075  0.00  0.00    +0.020 A 
ATOM     23  C   UNL     1       0.770  -7.918   0.178  0.00  0.00    +0.007 A 
ATOM     24 CL   UNL     1      -2.328 -10.420   0.480  0.00  0.00    -0.084 Cl
ENDBRANCH  13  18
BRANCH  14  25
ATOM     25  C   UNL     1       2.498  -7.029   3.853  0.00  0.00    +0.137 C 
BRANCH  25  26
ATOM     26  C   UNL     1       4.022  -6.898   3.851  0.00  0.00    +0.175 C 
BRANCH  26  27
ATOM     27  O   UNL     1       4.396  -5.678   4.495  0.00  0.00    -0.393 OA
ATOM     28  H   UNL     1       5.351  -5.528   4.531  0.00  0.00    +0.209 HD
ENDBRANCH  26  27
ENDBRANCH  25  26
ENDBRANCH  14  25
TORSDOF 4
