REMARK  Name = ZINC18206468
REMARK  11 active torsions:
REMARK  status: ('A' for Active; 'I' for Inactive)
REMARK    1  A    between atoms: C_1  and  C_2
REMARK    2  A    between atoms: C_5  and  N_9
REMARK    3  A    between atoms: C_7  and  C_8
REMARK    4  A    between atoms: C_11  and  C_15
REMARK    5  A    between atoms: C_12  and  C_14
REMARK    6  A    between atoms: C_15  and  C_17
REMARK    7  A    between atoms: C_15  and  C_24
REMARK    8  A    between atoms: C_26  and  C_39
REMARK    9  A    between atoms: N_28  and  C_31
REMARK   10  A    between atoms: C_34  and  C_38
REMARK   11  A    between atoms: C_35  and  C_37
REMARK                            x       y       z     vdW  Elec       q    Type
REMARK                         _______ _______ _______ _____ _____    ______ ____
ROOT
ATOM      1  C   UNL     1       0.093  -7.524  -1.554  0.00  0.00    +0.075 C 
ENDROOT
BRANCH   1   4
ATOM      2  N   UNL     1       0.351  -4.479   0.512  0.00  0.00    -0.219 N 
ATOM      3  C   UNL     1       0.156  -5.072  -0.684  0.00  0.00    +0.276 A 
ATOM      4  C   UNL     1       0.247  -6.470  -0.488  0.00  0.00    +0.048 A 
ATOM      5  C   UNL     1       0.495  -6.694   0.818  0.00  0.00    +0.039 A 
ATOM      6  N   UNL     1       0.570  -5.489   1.457  0.00  0.00    -0.294 N 
ATOM      7  C   UNL     1       0.666  -8.046   1.463  0.00  0.00    +0.065 C 
ATOM      8  O   UNL     1      -0.060  -4.506  -1.740  0.00  0.00    -0.266 OA
ATOM      9  H   UNL     1       0.742  -5.356   2.403  0.00  0.00    +0.187 HD
BRANCH   2  14
ATOM     10  C   UNL     1       0.316   1.103   1.525  0.00  0.00    +0.044 C 
ATOM     11  C   UNL     1       0.325  -0.380   1.255  0.00  0.00    -0.047 A 
ATOM     12  C   UNL     1       0.110  -0.850  -0.028  0.00  0.00    +0.006 A 
ATOM     13  C   UNL     1       0.118  -2.208  -0.277  0.00  0.00    +0.028 A 
ATOM     14  C   UNL     1       0.343  -3.103   0.761  0.00  0.00    +0.067 A 
ATOM     15  C   UNL     1       0.559  -2.628   2.048  0.00  0.00    +0.031 A 
ATOM     16  C   UNL     1       0.555  -1.268   2.291  0.00  0.00    -0.046 A 
ATOM     17  C   UNL     1       0.795  -0.751   3.686  0.00  0.00    +0.044 C 
ENDBRANCH   2  14
ENDBRANCH   1   4
BRANCH   1  18
ATOM     18  C   UNL     1       1.251  -7.439  -2.515  0.00  0.00    -0.020 A 
ATOM     19  C   UNL     1       1.394  -6.331  -3.329  0.00  0.00    +0.006 A 
ATOM     20  C   UNL     1       2.456  -6.253  -4.210  0.00  0.00    +0.000 A 
ATOM     21  C   UNL     1       3.375  -7.284  -4.279  0.00  0.00    +0.001 A 
ATOM     22  C   UNL     1       3.233  -8.392  -3.466  0.00  0.00    +0.020 A 
ATOM     23  C   UNL     1       2.174  -8.468  -2.579  0.00  0.00    +0.045 A 
ATOM     24 CL   UNL     1       1.998  -9.857  -1.553  0.00  0.00    -0.083 Cl
ENDBRANCH   1  18
BRANCH   1  25
ATOM     25  C   UNL     1      -1.216  -7.297  -2.311  0.00  0.00    +0.135 C 
ATOM     26  C   UNL     1      -1.422  -8.374  -3.355  0.00  0.00    +0.047 C 
ATOM     27  N   UNL     1      -2.497  -8.992  -3.051  0.00  0.00    -0.181 NA
ATOM     28  N   UNL     1      -3.108  -8.495  -1.904  0.00  0.00    -0.160 N 
ATOM     29  C   UNL     1      -2.405  -7.463  -1.384  0.00  0.00    +0.249 C 
ATOM     30  O   UNL     1      -2.666  -6.812  -0.394  0.00  0.00    -0.273 OA
ATOM     31  C   UNL     1      -0.527  -8.663  -4.532  0.00  0.00    +0.063 C 
BRANCH  28  32
ATOM     32  C   UNL     1      -4.296  -8.997  -1.360  0.00  0.00    +0.060 A 
ATOM     33  C   UNL     1      -4.831  -8.427  -0.211  0.00  0.00    +0.026 A 
ATOM     34  C   UNL     1      -6.003  -8.924   0.323  0.00  0.00    +0.005 A 
ATOM     35  C   UNL     1      -6.644  -9.989  -0.283  0.00  0.00    -0.047 A 
ATOM     36  C   UNL     1      -6.114 -10.559  -1.426  0.00  0.00    -0.046 A 
ATOM     37  C   UNL     1      -4.946 -10.062  -1.970  0.00  0.00    +0.029 A 
ATOM     38  C   UNL     1      -6.816 -11.720  -2.084  0.00  0.00    +0.044 C 
ATOM     39  C   UNL     1      -7.922 -10.530   0.303  0.00  0.00    +0.044 C 
ENDBRANCH  28  32
ENDBRANCH   1  25
TORSDOF 5
