REMARK  Name = ZINC63873912
REMARK  11 active torsions:
REMARK  status: ('A' for Active; 'I' for Inactive)
REMARK    1  A    between atoms: C_1  and  C_2
REMARK    2  A    between atoms: C_5  and  C_9
REMARK    3  A    between atoms: C_6  and  C_8
REMARK    4  A    between atoms: N_11  and  N_12
REMARK    5  A    between atoms: C_13  and  C_15
REMARK    6  A    between atoms: C_15  and  C_17
REMARK    7  A    between atoms: C_15  and  N_27
REMARK    8  A    between atoms: C_17  and  C_18
REMARK    9  A    between atoms: C_28  and  O_30
REMARK   10  A    between atoms: O_30  and  C_31
REMARK   11  A    between atoms: C_31  and  C_32
REMARK                            x       y       z     vdW  Elec       q    Type
REMARK                         _______ _______ _______ _____ _____    ______ ____
ROOT
ATOM      1  C   UNL     1      -6.346  -5.089   0.207  0.00  0.00    +0.168 C 
ENDROOT
BRANCH   1   3
ATOM      2  N   UNL     1      -4.208  -3.937   0.675  0.00  0.00    -0.233 N 
ATOM      3  C   UNL     1      -5.384  -3.945   0.017  0.00  0.00    +0.250 C 
ATOM      4  O   UNL     1      -5.668  -3.031  -0.728  0.00  0.00    -0.272 OA
ATOM      5  H   UNL     1      -3.980  -4.668   1.271  0.00  0.00    +0.173 HD
BRANCH   2   8
ATOM      6  C   UNL     1      -2.137  -2.866   1.155  0.00  0.00    +0.259 C 
ATOM      7  O   UNL     1      -1.851  -3.783   1.903  0.00  0.00    -0.269 OA
ATOM      8  N   UNL     1      -3.313  -2.874   0.497  0.00  0.00    -0.230 N 
ATOM      9  H   UNL     1      -3.541  -2.143  -0.099  0.00  0.00    +0.173 HD
BRANCH   6  13
ATOM     10  C   UNL     1      -0.019   1.526   0.010  0.00  0.00    +0.052 C 
ATOM     11  C   UNL     1       0.002  -0.004   0.002  0.00  0.00    +0.174 C 
ATOM     12  C   UNL     1      -1.434  -0.576   0.084  0.00  0.00    +0.088 C 
ATOM     13  C   UNL     1      -1.231  -1.790   0.976  0.00  0.00    +0.056 C 
ATOM     14  C   UNL     1      -0.031  -1.648   1.562  0.00  0.00    +0.103 C 
ATOM     15  O   UNL     1       0.605  -0.516   1.205  0.00  0.00    -0.493 OA
ATOM     16  C   UNL     1       0.549  -2.656   2.522  0.00  0.00    +0.086 C 
ENDBRANCH   6  13
ENDBRANCH   2   8
ENDBRANCH   1   3
BRANCH   1  17
ATOM     17  N   UNL     1      -7.541  -4.864  -0.610  0.00  0.00    -0.269 N 
ATOM     18  C   UNL     1      -8.713  -5.429  -0.260  0.00  0.00    +0.401 C 
ATOM     19  O   UNL     1      -8.780  -6.126   0.733  0.00  0.00    -0.226 OA
ATOM     20  H   UNL     1      -7.488  -4.308  -1.403  0.00  0.00    +0.153 HD
BRANCH  18  21
ATOM     21  O   UNL     1      -9.812  -5.222  -1.011  0.00  0.00    -0.446 OA
BRANCH  21  22
ATOM     22  C   UNL     1     -11.020  -5.852  -0.581  0.00  0.00    +0.269 C 
BRANCH  22  23
ATOM     23  C   UNL     1     -12.133  -5.508  -1.538  0.00  0.00    -0.010 A 
ATOM     24  C   UNL     1     -12.908  -4.385  -1.321  0.00  0.00    +0.007 A 
ATOM     25  C   UNL     1     -13.929  -4.070  -2.199  0.00  0.00    +0.000 A 
ATOM     26  C   UNL     1     -14.175  -4.879  -3.292  0.00  0.00    +0.000 A 
ATOM     27  C   UNL     1     -13.399  -6.002  -3.509  0.00  0.00    +0.000 A 
ATOM     28  C   UNL     1     -12.375  -6.315  -2.634  0.00  0.00    +0.007 A 
ENDBRANCH  22  23
ENDBRANCH  21  22
ENDBRANCH  18  21
ENDBRANCH   1  17
BRANCH   1  29
ATOM     29  C   UNL     1      -5.676  -6.396  -0.220  0.00  0.00    +0.065 C 
BRANCH  29  30
ATOM     30  C   UNL     1      -6.591  -7.554   0.085  0.00  0.00    -0.039 C 
ATOM     31  C   UNL     1      -7.460  -8.149  -0.764  0.00  0.00    -0.001 A 
ATOM     32  C   UNL     1      -7.799  -7.906  -2.171  0.00  0.00    +0.010 A 
ATOM     33  C   UNL     1      -8.732  -8.685  -2.765  0.00  0.00    +0.001 A 
ATOM     34  C   UNL     1      -9.381  -9.716  -2.072  0.00  0.00    +0.002 A 
ATOM     35  C   UNL     1      -9.122 -10.000  -0.778  0.00  0.00    +0.026 A 
ATOM     36  C   UNL     1      -8.159  -9.244  -0.055  0.00  0.00    +0.043 A 
ATOM     37  N   UNL     1      -7.739  -9.323   1.185  0.00  0.00    -0.380 N 
ATOM     38  C   UNL     1      -6.721  -8.289   1.401  0.00  0.00    +0.144 C 
ATOM     39  H   UNL     1      -8.048  -9.960   1.848  0.00  0.00    +0.160 HD
ENDBRANCH  29  30
ENDBRANCH   1  29
TORSDOF 9
