REMARK  Name = ZINC11997412
REMARK  11 active torsions:
REMARK  status: ('A' for Active; 'I' for Inactive)
REMARK    1  A    between atoms: C_1  and  C_2
REMARK    2  A    between atoms: C_7  and  C_8
REMARK    3  A    between atoms: C_8  and  C_9
REMARK    4  A    between atoms: C_9  and  C_21
REMARK    5  A    between atoms: N_12  and  C_16
REMARK    6  A    between atoms: C_16  and  C_17
REMARK    7  A    between atoms: C_17  and  C_18
REMARK    8  A    between atoms: C_18  and  N_77
REMARK    9  A    between atoms: C_19  and  N_77
REMARK   10  A    between atoms: C_20  and  N_77
REMARK   11  A    between atoms: C_27  and  C_29
REMARK                            x       y       z     vdW  Elec       q    Type
REMARK                         _______ _______ _______ _____ _____    ______ ____
ROOT
ATOM      1  C   UNL     1      -6.319   0.065   4.985  0.00  0.00    +0.119 C 
ATOM      2  C   UNL     1      -5.365  -1.113   4.940  0.00  0.00    +0.247 C 
ATOM      3  O   UNL     1      -4.160  -1.074   4.814  0.00  0.00    -0.273 OA
ATOM      4  N   UNL     1      -6.135  -2.211   5.068  0.00  0.00    -0.224 N 
ATOM      5  C   UNL     1      -7.429  -1.895   5.188  0.00  0.00    +0.309 C 
ATOM      6  O   UNL     1      -8.316  -2.716   5.317  0.00  0.00    -0.252 OA
ATOM      7  N   UNL     1      -7.640  -0.566   5.150  0.00  0.00    -0.284 N 
ATOM      8  H   UNL     1      -8.494  -0.113   5.218  0.00  0.00    +0.151 HD
ENDROOT
BRANCH   1   9
ATOM      9  C   UNL     1      -6.260   0.857   3.678  0.00  0.00    +0.025 C 
ATOM     10  C   UNL     1      -6.512  -0.086   2.499  0.00  0.00    +0.025 C 
ATOM     11  C   UNL     1      -6.487   0.716   1.194  0.00  0.00    +0.108 C 
ATOM     12  N   UNL     1      -5.218   1.452   1.116  0.00  0.00    -0.301 N 
ATOM     13  C   UNL     1      -4.832   2.314   2.242  0.00  0.00    +0.108 C 
ATOM     14  C   UNL     1      -4.878   1.499   3.532  0.00  0.00    +0.025 C 
ATOM     15  C   UNL     1      -4.421   1.335   0.036  0.00  0.00    +0.219 C 
ATOM     16  O   UNL     1      -4.790   0.692  -0.923  0.00  0.00    -0.275 OA
BRANCH  15  17
ATOM     17  C   UNL     1      -3.070   2.003   0.020  0.00  0.00    +0.075 C 
ATOM     18  C   UNL     1      -2.638   2.246  -1.428  0.00  0.00    +0.013 C 
ATOM     19  C   UNL     1      -1.267   2.924  -1.444  0.00  0.00    +0.001 C 
ATOM     20  C   UNL     1      -0.244   2.023  -0.750  0.00  0.00    +0.000 C 
ATOM     21  C   UNL     1      -0.676   1.780   0.697  0.00  0.00    +0.001 C 
ATOM     22  C   UNL     1      -2.047   1.102   0.714  0.00  0.00    +0.013 C 
ENDBRANCH  15  17
ENDBRANCH   1   9
BRANCH   1  23
ATOM     23  C   UNL     1      -5.999   0.971   6.176  0.00  0.00    +0.071 C 
BRANCH  23  30
ATOM     24  C   UNL     1      -8.498   0.661   7.594  0.00  0.00    +0.044 C 
ATOM     25  C   UNL     1      -7.244   0.016   8.127  0.00  0.00    -0.047 A 
ATOM     26  C   UNL     1      -7.290  -0.724   9.293  0.00  0.00    +0.003 A 
ATOM     27  C   UNL     1      -6.140  -1.315   9.782  0.00  0.00    +0.000 A 
ATOM     28  C   UNL     1      -4.945  -1.167   9.104  0.00  0.00    +0.000 A 
ATOM     29  C   UNL     1      -4.900  -0.432   7.934  0.00  0.00    +0.004 A 
ATOM     30  C   UNL     1      -6.049   0.164   7.448  0.00  0.00    -0.042 A 
ENDBRANCH  23  30
ENDBRANCH   1  23
BRANCH   4  31
ATOM     31  C   UNL     1      -5.619  -3.582   5.076  0.00  0.00    +0.116 C 
BRANCH  31  32
ATOM     32  C   UNL     1      -5.290  -3.995   6.512  0.00  0.00    +0.001 C 
BRANCH  32  33
ATOM     33  C   UNL     1      -4.751  -5.427   6.519  0.00  0.00    -0.078 C 
BRANCH  33  36
ATOM     34  C   UNL     1      -5.654  -5.905   8.714  0.00  0.00    -0.097 C 
ATOM     35  C   UNL     1      -3.699  -7.095   7.925  0.00  0.00    -0.097 C 
ATOM     36  N   UNL     1      -4.419  -5.804   7.910  0.00  0.00    +0.376 N 
ATOM     37  H   UNL     1      -3.814  -5.080   8.316  0.00  0.00    -0.083 HD
ENDBRANCH  33  36
ENDBRANCH  32  33
ENDBRANCH  31  32
ENDBRANCH   4  31
TORSDOF 8
