REMARK  Name = ZINC59464615
REMARK  5 active torsions:
REMARK  status: ('A' for Active; 'I' for Inactive)
REMARK    1  A    between atoms: C_1  and  C_2
REMARK    2  A    between atoms: C_2  and  C_3
REMARK    3  A    between atoms: N_9  and  N_10
REMARK    4  A    between atoms: C_11  and  C_12
REMARK    5  A    between atoms: C_11  and  C_13
REMARK                            x       y       z     vdW  Elec       q    Type
REMARK                         _______ _______ _______ _____ _____    ______ ____
ROOT
ATOM      1  N   UNL     1       4.593  -3.567   1.085  0.00  0.00    -0.152 NA
ATOM      2  C   UNL     1       5.826  -3.998   1.069  0.00  0.00    +0.068 C 
ATOM      3  C   UNL     1       6.114  -5.465   1.260  0.00  0.00    +0.068 C 
ENDROOT
BRANCH   2   4
ATOM      4  C   UNL     1       6.933  -3.052   0.867  0.00  0.00    -0.002 A 
ATOM      5  C   UNL     1       8.052  -3.437   0.102  0.00  0.00    +0.010 A 
ATOM      6  C   UNL     1       9.085  -2.581  -0.099  0.00  0.00    +0.009 A 
ATOM      7  C   UNL     1       9.049  -1.290   0.459  0.00  0.00    -0.018 A 
ATOM      8  C   UNL     1      10.107  -0.387   0.264  0.00  0.00    +0.008 A 
ATOM      9  C   UNL     1      10.045   0.856   0.815  0.00  0.00    +0.001 A 
ATOM     10  C   UNL     1       8.944   1.252   1.573  0.00  0.00    +0.001 A 
ATOM     11  C   UNL     1       7.900   0.405   1.784  0.00  0.00    +0.008 A 
ATOM     12  C   UNL     1       7.929  -0.888   1.230  0.00  0.00    -0.017 A 
ATOM     13  C   UNL     1       6.866  -1.782   1.424  0.00  0.00    +0.018 A 
ENDBRANCH   2   4
BRANCH   1  19
ATOM     14  C   UNL     1       0.703  -0.581   0.725  0.00  0.00    +0.140 C 
ATOM     15  C   UNL     1       0.747  -2.056   1.091  0.00  0.00    +0.232 C 
ATOM     16  O   UNL     1      -0.256  -2.687   1.349  0.00  0.00    -0.274 OA
ATOM     17  N   UNL     1       1.948  -2.609   1.109  0.00  0.00    -0.263 N 
ATOM     18  C   UNL     1       3.094  -1.901   0.817  0.00  0.00    +0.183 C 
ATOM     19  N   UNL     1       4.337  -2.335   0.801  0.00  0.00    -0.126 NA
ATOM     20  S   UNL     1       2.495  -0.253   0.464  0.00  0.00    -0.076 S 
ATOM     21  H   UNL     1       2.026  -3.549   1.338  0.00  0.00    +0.157 HD
BRANCH  14  23
ATOM     22  C   UNL     1      -0.138   1.145  -0.874  0.00  0.00    +0.005 C 
ATOM     23  C   UNL     1      -0.095  -0.352  -0.560  0.00  0.00    +0.020 C 
ENDBRANCH  14  23
ENDBRANCH   1  19
TORSDOF 3
