REMARK  Name = ZINC13495972
REMARK  15 active torsions:
REMARK  status: ('A' for Active; 'I' for Inactive)
REMARK    1  A    between atoms: C_1  and  C_2
REMARK    2  A    between atoms: C_2  and  C_3
REMARK    3  A    between atoms: C_3  and  C_5
REMARK    4  A    between atoms: C_3  and  N_77
REMARK    5  A    between atoms: N_9  and  C_10
REMARK    6  A    between atoms: C_15  and  C_16
REMARK    7  A    between atoms: C_15  and  N_77
REMARK    8  A    between atoms: C_16  and  C_17
REMARK    9  A    between atoms: C_20  and  O_25
REMARK   10  A    between atoms: C_21  and  O_23
REMARK   11  A    between atoms: O_23  and  C_24
REMARK   12  A    between atoms: O_25  and  C_26
REMARK   13  A    between atoms: C_27  and  C_28
REMARK   14  A    between atoms: C_27  and  N_77
REMARK   15  A    between atoms: C_32  and  C_40
REMARK                            x       y       z     vdW  Elec       q    Type
REMARK                         _______ _______ _______ _____ _____    ______ ____
ROOT
ATOM      1  N   UNL     1      -4.592   4.877  -1.226  0.00  0.00    +0.389 N 
ATOM      2  H   UNL     1      -5.144   4.341  -0.546  0.00  0.00    -0.080 HD
ENDROOT
BRANCH   1   3
ATOM      3  C   UNL     1      -4.561   6.295  -0.810  0.00  0.00    +0.003 C 
BRANCH   3   4
ATOM      4  C   UNL     1      -4.770   6.360   0.681  0.00  0.00    +0.138 A 
ATOM      5  N   UNL     1      -4.191   5.610   1.586  0.00  0.00    -0.115 NA
ATOM      6  N   UNL     1      -4.630   5.971   2.743  0.00  0.00    -0.023 NA
ATOM      7  N   UNL     1      -5.474   6.932   2.598  0.00  0.00    -0.044 NA
ATOM      8  N   UNL     1      -5.584   7.205   1.342  0.00  0.00    -0.228 N 
BRANCH   8   9
ATOM      9  C   UNL     1      -6.436   8.237   0.747  0.00  0.00    +0.111 C 
ATOM     10  C   UNL     1      -6.074   9.620   1.326  0.00  0.00    +0.027 C 
ATOM     11  C   UNL     1      -7.436  10.348   1.449  0.00  0.00    +0.002 C 
ATOM     12  C   UNL     1      -8.391   9.214   1.898  0.00  0.00    +0.002 C 
ATOM     13  C   UNL     1      -7.909   7.979   1.110  0.00  0.00    +0.027 C 
ENDBRANCH   8   9
ENDBRANCH   3   4
BRANCH   3  15
ATOM     14  C   UNL     1      -3.069   7.004  -2.685  0.00  0.00    +0.002 C 
ATOM     15  C   UNL     1      -3.212   6.924  -1.164  0.00  0.00    -0.011 C 
ENDBRANCH   3  15
ENDBRANCH   1   3
BRANCH   1  16
ATOM     16  C   UNL     1      -3.218   4.332  -1.265  0.00  0.00    -0.073 C 
BRANCH  16  17
ATOM     17  C   UNL     1      -2.715   4.164   0.170  0.00  0.00    +0.017 C 
BRANCH  17  18
ATOM     18  C   UNL     1      -1.385   3.455   0.156  0.00  0.00    -0.045 A 
ATOM     19  C   UNL     1      -1.338   2.075   0.217  0.00  0.00    +0.007 A 
ATOM     20  C   UNL     1      -0.121   1.420   0.210  0.00  0.00    +0.049 A 
ATOM     21  C   UNL     1       1.056   2.147   0.129  0.00  0.00    +0.161 A 
ATOM     22  C   UNL     1       1.009   3.536   0.062  0.00  0.00    +0.162 A 
ATOM     23  C   UNL     1      -0.214   4.186   0.075  0.00  0.00    +0.053 A 
BRANCH  22  24
ATOM     24  O   UNL     1       2.162   4.254  -0.017  0.00  0.00    -0.491 OA
ATOM     25  C   UNL     1       2.037   5.676  -0.083  0.00  0.00    +0.277 C 
ENDBRANCH  22  24
BRANCH  21  26
ATOM     26  O   UNL     1       2.255   1.504   0.116  0.00  0.00    -0.491 OA
ATOM     27  C   UNL     1       2.226   0.077   0.188  0.00  0.00    +0.277 C 
ENDBRANCH  21  26
ENDBRANCH  17  18
ENDBRANCH  16  17
ENDBRANCH   1  16
BRANCH   1  28
ATOM     28  C   UNL     1      -5.221   4.755  -2.558  0.00  0.00    -0.037 C 
BRANCH  28  29
ATOM     29  C   UNL     1      -6.710   4.934  -2.407  0.00  0.00    +0.001 A 
ATOM     30  C   UNL     1      -7.268   6.153  -2.613  0.00  0.00    +0.017 A 
ATOM     31  C   UNL     1      -8.717   6.293  -2.463  0.00  0.00    -0.001 A 
ATOM     32  C   UNL     1      -9.351   7.524  -2.667  0.00  0.00    +0.013 A 
ATOM     33  C   UNL     1     -10.704   7.622  -2.513  0.00  0.00    -0.050 A 
ATOM     34  C   UNL     1     -11.458   6.512  -2.156  0.00  0.00    +0.005 A 
ATOM     35  C   UNL     1     -10.855   5.290  -1.952  0.00  0.00    +0.026 A 
ATOM     36  C   UNL     1      -9.478   5.165  -2.102  0.00  0.00    +0.049 A 
ATOM     37  N   UNL     1      -8.849   3.955  -1.902  0.00  0.00    -0.322 N 
ATOM     38  H   UNL     1      -9.375   3.178  -1.653  0.00  0.00    +0.169 HD
ATOM     39  C   UNL     1      -7.518   3.835  -2.046  0.00  0.00    +0.251 A 
ATOM     40  O   UNL     1      -6.995   2.749  -1.862  0.00  0.00    -0.268 OA
ATOM     41  C   UNL     1     -11.386   8.948  -2.732  0.00  0.00    +0.044 C 
ENDBRANCH  28  29
ENDBRANCH   1  28
TORSDOF 11
