REMARK  Name = ZINC16347216
REMARK  10 active torsions:
REMARK  status: ('A' for Active; 'I' for Inactive)
REMARK    1  A    between atoms: C_1  and  C_2
REMARK    2  A    between atoms: C_7  and  C_23
REMARK    3  A    between atoms: C_9  and  C_13
REMARK    4  A    between atoms: C_10  and  C_12
REMARK    5  A    between atoms: C_13  and  O_15
REMARK    6  A    between atoms: O_15  and  C_16
REMARK    7  A    between atoms: C_16  and  C_17
REMARK    8  A    between atoms: C_34  and  C_36
REMARK    9  A    between atoms: C_36  and  O_38
REMARK   10  A    between atoms: O_38  and  C_39
REMARK                            x       y       z     vdW  Elec       q    Type
REMARK                         _______ _______ _______ _____ _____    ______ ____
ROOT
ATOM      1  C   UNL     1      -2.143   5.435   1.213  0.00  0.00    +0.009 C 
ATOM      2  C   UNL     1      -1.482   4.973   2.513  0.00  0.00    +0.013 C 
ATOM      3  C   UNL     1      -2.268   5.515   3.710  0.00  0.00    +0.055 C 
ATOM      4  C   UNL     1      -3.675   4.971   3.680  0.00  0.00    +0.016 C 
ATOM      5  C   UNL     1      -3.938   3.753   3.160  0.00  0.00    +0.025 C 
ATOM      6  C   UNL     1      -5.343   3.206   3.154  0.00  0.00    +0.092 C 
ATOM      7  C   UNL     1      -6.348   4.301   3.360  0.00  0.00    +0.065 C 
ATOM      8  C   UNL     1      -5.987   5.494   3.864  0.00  0.00    +0.016 C 
ATOM      9  N   UNL     1      -4.684   5.739   4.196  0.00  0.00    -0.321 N 
ATOM     10  C   UNL     1      -7.025   6.567   4.065  0.00  0.00    +0.061 C 
ATOM     11  C   UNL     1      -2.914   2.961   2.613  0.00  0.00    +0.176 C 
ATOM     12  O   UNL     1      -3.184   1.866   2.161  0.00  0.00    -0.291 OA
ATOM     13  C   UNL     1      -1.489   3.443   2.579  0.00  0.00    +0.171 C 
ATOM     14  H   UNL     1      -4.449   6.564   4.885  0.00  0.00    +0.152 HD
ENDROOT
BRANCH   6  15
ATOM     15  C   UNL     1      -5.484   2.191   4.259  0.00  0.00    -0.032 A 
ATOM     16  C   UNL     1      -5.266   2.567   5.572  0.00  0.00    +0.008 A 
ATOM     17  C   UNL     1      -5.399   1.641   6.590  0.00  0.00    +0.050 A 
ATOM     18  C   UNL     1      -5.740   0.330   6.295  0.00  0.00    +0.166 A 
ATOM     19  C   UNL     1      -5.954  -0.049   4.972  0.00  0.00    +0.167 A 
ATOM     20  C   UNL     1      -5.825   0.886   3.958  0.00  0.00    +0.054 A 
ATOM     21  O   UNL     1      -6.274  -1.376   4.945  0.00  0.00    -0.453 OA
ATOM     22  C   UNL     1      -5.854  -1.898   6.219  0.00  0.00    +0.466 C 
ATOM     23  O   UNL     1      -5.925  -0.759   7.096  0.00  0.00    -0.453 OA
ENDBRANCH   6  15
BRANCH   7  24
ATOM     24  C   UNL     1      -7.702   4.074   3.018  0.00  0.00    +0.338 C 
ATOM     25  O   UNL     1      -8.526   4.954   3.180  0.00  0.00    -0.245 OA
BRANCH  24  26
ATOM     26  O   UNL     1      -8.079   2.882   2.510  0.00  0.00    -0.457 OA
BRANCH  26  27
ATOM     27  C   UNL     1      -9.461   2.722   2.187  0.00  0.00    +0.268 C 
BRANCH  27  28
ATOM     28  C   UNL     1      -9.692   1.338   1.638  0.00  0.00    -0.010 A 
ATOM     29  C   UNL     1      -9.591   1.108   0.279  0.00  0.00    +0.007 A 
ATOM     30  C   UNL     1      -9.799  -0.163  -0.224  0.00  0.00    +0.000 A 
ATOM     31  C   UNL     1     -10.117  -1.202   0.631  0.00  0.00    +0.000 A 
ATOM     32  C   UNL     1     -10.223  -0.970   1.990  0.00  0.00    +0.000 A 
ATOM     33  C   UNL     1     -10.011   0.300   2.493  0.00  0.00    +0.007 A 
ENDBRANCH  27  28
ENDBRANCH  26  27
ENDBRANCH  24  26
ENDBRANCH   7  24
BRANCH  13  34
ATOM     34  C   UNL     1      -0.797   2.883   1.363  0.00  0.00    +0.318 C 
ATOM     35  O   UNL     1      -0.336   3.630   0.533  0.00  0.00    -0.250 OA
BRANCH  34  36
ATOM     36  O   UNL     1      -0.692   1.554   1.203  0.00  0.00    -0.467 OA
ATOM     37  C   UNL     1      -0.013   1.086   0.008  0.00  0.00    +0.280 C 
ENDBRANCH  34  36
ENDBRANCH  13  34
TORSDOF 7
