REMARK  Name = ZINC12635779
REMARK  5 active torsions:
REMARK  status: ('A' for Active; 'I' for Inactive)
REMARK    1  A    between atoms: C_5  and  N_7
REMARK    2  A    between atoms: C_12  and  C_14
REMARK    3  A    between atoms: C_12  and  C_26
REMARK    4  A    between atoms: C_12  and  N_62
REMARK    5  A    between atoms: N_30  and  C_31
REMARK                            x       y       z     vdW  Elec       q    Type
REMARK                         _______ _______ _______ _____ _____    ______ ____
ROOT
ATOM      1  C   UNL     1       2.591  -0.626  -0.058  0.00  0.00    +0.040 C 
ENDROOT
BRANCH   1   2
ATOM      2  C   UNL     1       3.010  -1.125   1.301  0.00  0.00    +0.029 A 
ATOM      3  C   UNL     1       4.308  -1.364   1.563  0.00  0.00    +0.201 A 
ATOM      4  O   UNL     1       4.739  -1.807   2.749  0.00  0.00    -0.462 OA
ATOM      5  C   UNL     1       3.901  -2.050   3.778  0.00  0.00    +0.138 A 
ATOM      6  C   UNL     1       4.381  -2.511   4.998  0.00  0.00    +0.048 A 
ATOM      7  C   UNL     1       3.505  -2.753   6.034  0.00  0.00    +0.023 A 
ATOM      8  C   UNL     1       2.142  -2.542   5.875  0.00  0.00    +0.042 A 
ATOM      9  C   UNL     1       1.646  -2.085   4.672  0.00  0.00    +0.035 A 
ATOM     10  C   UNL     1       2.522  -1.836   3.617  0.00  0.00    +0.066 A 
ATOM     11  C   UNL     1       2.038  -1.342   2.313  0.00  0.00    +0.194 A 
ATOM     12  O   UNL     1       0.854  -1.132   2.114  0.00  0.00    -0.287 OA
ATOM     13 CL   UNL     1       1.059  -2.853   7.195  0.00  0.00    -0.084 Cl
ENDBRANCH   1   2
BRANCH   1  19
ATOM     14  N   UNL     1       4.486  -2.324  -3.430  0.00  0.00    -0.331 N 
ATOM     15  C   UNL     1       4.816  -2.871  -2.106  0.00  0.00    +0.086 C 
ATOM     16  C   UNL     1       3.714  -2.494  -1.113  0.00  0.00    -0.058 C 
ATOM     17  C   UNL     1       3.258  -0.483  -2.381  0.00  0.00    -0.058 C 
ATOM     18  C   UNL     1       4.359  -0.860  -3.375  0.00  0.00    +0.086 C 
ATOM     19  N   UNL     1       3.612  -1.020  -1.051  0.00  0.00    +0.391 N 
ATOM     20  H   UNL     1       4.520  -0.634  -0.766  0.00  0.00    -0.080 HD
BRANCH  14  25
ATOM     21  C   UNL     1       6.588  -4.433  -5.585  0.00  0.00    +0.002 A 
ATOM     22  C   UNL     1       7.315  -3.473  -6.265  0.00  0.00    +0.003 A 
ATOM     23  C   UNL     1       7.105  -2.130  -6.007  0.00  0.00    +0.040 A 
ATOM     24  C   UNL     1       6.167  -1.745  -5.066  0.00  0.00    +0.144 A 
ATOM     25  C   UNL     1       5.435  -2.709  -4.382  0.00  0.00    +0.065 A 
ATOM     26  C   UNL     1       5.653  -4.055  -4.641  0.00  0.00    +0.026 A 
ATOM     27  F   UNL     1       5.963  -0.434  -4.813  0.00  0.00    -0.204 F 
ENDBRANCH  14  25
ENDBRANCH   1  19
BRANCH   1  28
ATOM     28  C   UNL     1       2.488   0.878  -0.030  0.00  0.00    +0.143 A 
ATOM     29  N   UNL     1       3.484   1.730  -0.030  0.00  0.00    -0.115 NA
ATOM     30  N   UNL     1       2.990   2.919  -0.003  0.00  0.00    -0.023 NA
ATOM     31  N   UNL     1       1.705   2.848   0.008  0.00  0.00    -0.044 NA
ATOM     32  N   UNL     1       1.357   1.606  -0.002  0.00  0.00    -0.227 N 
BRANCH  32  33
ATOM     33  C   UNL     1      -0.013   1.086   0.008  0.00  0.00    +0.111 C 
ATOM     34  C   UNL     1      -0.763   1.597   1.255  0.00  0.00    +0.027 C 
ATOM     35  C   UNL     1      -1.531   2.845   0.750  0.00  0.00    +0.002 C 
ATOM     36  C   UNL     1      -1.978   2.421  -0.670  0.00  0.00    +0.002 C 
ATOM     37  C   UNL     1      -0.784   1.609  -1.216  0.00  0.00    +0.027 C 
ENDBRANCH  32  33
ENDBRANCH   1  28
TORSDOF 5
