REMARK  Name = ZINC12390555
REMARK  3 active torsions:
REMARK  status: ('A' for Active; 'I' for Inactive)
REMARK    1  A    between atoms: C_1  and  O_2
REMARK    2  A    between atoms: O_2  and  C_3
REMARK    3  A    between atoms: C_7  and  C_9
REMARK                            x       y       z     vdW  Elec       q    Type
REMARK                         _______ _______ _______ _____ _____    ______ ____
ROOT
ATOM      1  C   UNL     1      -0.013   1.086   0.008  0.00  0.00    +0.137 C 
ATOM      2  C   UNL     1      -0.828   1.628  -1.147  0.00  0.00    +0.036 C 
ATOM      3  C   UNL     1      -0.547   2.603  -2.025  0.00  0.00    +0.018 C 
ATOM      4  C   UNL     1      -1.546   3.011  -3.094  0.00  0.00    +0.051 C 
ATOM      5  C   UNL     1      -2.971   2.818  -2.579  0.00  0.00    +0.014 C 
ATOM      6  C   UNL     1      -3.131   1.330  -2.243  0.00  0.00    +0.080 C 
ATOM      7  C   UNL     1      -2.075   0.947  -1.256  0.00  0.00    +0.163 C 
ATOM      8  O   UNL     1      -2.289   0.011  -0.512  0.00  0.00    -0.292 OA
ATOM      9  N   UNL     1       0.623   3.303  -2.068  0.00  0.00    -0.297 N 
ATOM     10  C   UNL     1       1.261   3.778  -0.931  0.00  0.00    +0.208 A 
ATOM     11  C   UNL     1       1.695   2.845   0.100  0.00  0.00    +0.205 A 
ATOM     12  N   UNL     1       2.355   3.500   1.002  0.00  0.00    -0.032 NA
ATOM     13  O   UNL     1       2.333   4.872   0.631  0.00  0.00    -0.239 OA
ATOM     14  N   UNL     1       1.620   4.974  -0.595  0.00  0.00    -0.032 NA
ATOM     15  N   UNL     1       1.382   1.488   0.034  0.00  0.00    -0.313 N 
ATOM     16  H   UNL     1       1.027   3.477  -2.933  0.00  0.00    +0.153 HD
ATOM     17  H   UNL     1       2.086   0.822   0.006  0.00  0.00    +0.149 HD
ENDROOT
BRANCH   1  22
ATOM     18  C   UNL     1      -1.847   1.034   3.312  0.00  0.00    +0.120 A 
ATOM     19  C   UNL     1      -1.844   2.380   3.648  0.00  0.00    +0.045 A 
ATOM     20  C   UNL     1      -1.250   3.300   2.806  0.00  0.00    +0.004 A 
ATOM     21  C   UNL     1      -0.653   2.880   1.632  0.00  0.00    +0.006 A 
ATOM     22  C   UNL     1      -0.659   1.540   1.292  0.00  0.00    -0.019 A 
ATOM     23  C   UNL     1      -1.252   0.616   2.130  0.00  0.00    +0.051 A 
BRANCH  18  25
ATOM     24  C   UNL     1      -3.023   0.629   5.338  0.00  0.00    +0.277 C 
ATOM     25  O   UNL     1      -2.430   0.127   4.138  0.00  0.00    -0.495 OA
ENDBRANCH  18  25
ENDBRANCH   1  22
TORSDOF 2
