REMARK  Name = ZINC09330097
REMARK  3 active torsions:
REMARK  status: ('A' for Active; 'I' for Inactive)
REMARK    1  A    between atoms: C_1  and  C_2
REMARK    2  A    between atoms: C_4  and  C_34
REMARK    3  A    between atoms: N_20  and  C_23
REMARK                            x       y       z     vdW  Elec       q    Type
REMARK                         _______ _______ _______ _____ _____    ______ ____
ROOT
ATOM      1  C   UNL     1      -2.516   0.981   0.020  0.00  0.00    +0.044 C 
ATOM      2  C   UNL     1      -1.220   1.751   0.017  0.00  0.00    -0.050 A 
ATOM      3  C   UNL     1      -1.236   3.134   0.029  0.00  0.00    +0.008 A 
ATOM      4  C   UNL     1      -0.053   3.843   0.022  0.00  0.00    -0.029 A 
ATOM      5  C   UNL     1       1.167   3.172   0.009  0.00  0.00    +0.039 A 
ATOM      6  C   UNL     1       1.171   1.780   0.000  0.00  0.00    -0.027 A 
ATOM      7  C   UNL     1      -0.013   1.076   0.008  0.00  0.00    +0.008 A 
ATOM      8  C   UNL     1       2.617   1.377  -0.017  0.00  0.00    +0.053 C 
ATOM      9  C   UNL     1       2.963   0.479  -1.186  0.00  0.00    +0.089 C 
ATOM     10  C   UNL     1       4.359  -0.011  -0.649  0.00  0.00    +0.074 C 
ATOM     11  C   UNL     1       4.188  -0.243   0.790  0.00  0.00    -0.054 C 
ATOM     12  C   UNL     1       3.282   1.386   2.331  0.00  0.00    -0.076 C 
ATOM     13  C   UNL     1       4.652   0.924   2.865  0.00  0.00    -0.020 C 
ATOM     14  C   UNL     1       5.349   0.390   1.593  0.00  0.00    -0.016 C 
ATOM     15  C   UNL     1       4.957  -0.571  -1.844  0.00  0.00    +0.228 C 
ATOM     16  O   UNL     1       5.678  -1.542  -1.923  0.00  0.00    -0.275 OA
ATOM     17  N   UNL     1       4.507   0.237  -2.865  0.00  0.00    -0.210 N 
ATOM     18  C   UNL     1       3.458   1.029  -2.488  0.00  0.00    +0.229 C 
ATOM     19  O   UNL     1       3.015   1.984  -3.089  0.00  0.00    -0.275 OA
ATOM     20  C   UNL     1       3.386   2.663  -0.006  0.00  0.00    +0.212 C 
ATOM     21  O   UNL     1       4.593   2.785  -0.005  0.00  0.00    -0.277 OA
ATOM     22  N   UNL     1       2.477   3.659   0.002  0.00  0.00    -0.286 N 
ATOM     23  C   UNL     1      -0.082   5.350   0.029  0.00  0.00    +0.045 C 
ATOM     24  H   UNL     1       2.705   4.601   0.003  0.00  0.00    +0.155 HD
ATOM     25  N   UNL     1       2.977   0.526   1.145  0.00  0.00    +0.395 N 
ATOM     26  H   UNL     1       2.203  -0.112   1.366  0.00  0.00    -0.079 HD
ENDROOT
BRANCH  17  27
ATOM     27  C   UNL     1       5.065   0.247  -4.151  0.00  0.00    +0.047 A 
ATOM     28  C   UNL     1       4.548   1.088  -5.127  0.00  0.00    +0.044 A 
ATOM     29  C   UNL     1       5.102   1.099  -6.393  0.00  0.00    +0.044 A 
ATOM     30  C   UNL     1       6.165   0.265  -6.691  0.00  0.00    +0.040 A 
ATOM     31  C   UNL     1       6.679  -0.578  -5.722  0.00  0.00    +0.044 A 
ATOM     32  C   UNL     1       6.131  -0.589  -4.453  0.00  0.00    +0.044 A 
ATOM     33 CL   UNL     1       8.012  -1.624  -6.100  0.00  0.00    -0.083 Cl
ATOM     34 CL   UNL     1       4.460   2.156  -7.612  0.00  0.00    -0.083 Cl
ENDBRANCH  17  27
TORSDOF 1
