REMARK  Name = ZINC11491278
REMARK  7 active torsions:
REMARK  status: ('A' for Active; 'I' for Inactive)
REMARK    1  A    between atoms: C_1  and  N_2
REMARK    2  A    between atoms: N_2  and  C_3
REMARK    3  A    between atoms: C_8  and  C_9
REMARK    4  A    between atoms: C_9  and  O_11
REMARK    5  A    between atoms: O_11  and  C_12
REMARK    6  A    between atoms: C_12  and  N_13
REMARK    7  A    between atoms: C_24  and  C_26
REMARK                            x       y       z     vdW  Elec       q    Type
REMARK                         _______ _______ _______ _____ _____    ______ ____
ROOT
ATOM      1  C   UNL     1      -2.342   1.373   0.100  0.00  0.00    +0.050 A 
ATOM      2  C   UNL     1      -2.912   1.153   1.348  0.00  0.00    +0.024 A 
ATOM      3  C   UNL     1      -4.155   0.563   1.445  0.00  0.00    +0.002 A 
ATOM      4  C   UNL     1      -4.841   0.177   0.304  0.00  0.00    +0.001 A 
ATOM      5  C   UNL     1      -4.289   0.383  -0.942  0.00  0.00    +0.017 A 
ATOM      6  C   UNL     1      -3.033   0.984  -1.057  0.00  0.00    +0.080 A 
ENDROOT
BRANCH   1   8
ATOM      7  C   UNL     1      -0.982   3.429  -0.110  0.00  0.00    +0.138 C 
ATOM      8  N   UNL     1      -1.090   1.972  -0.001  0.00  0.00    -0.269 N 
ATOM      9  C   UNL     1       0.023   1.212   0.002  0.00  0.00    +0.257 C 
ATOM     10  O   UNL     1       1.120   1.739  -0.001  0.00  0.00    -0.269 OA
BRANCH   9  11
ATOM     11  C   UNL     1      -0.088  -0.249   0.014  0.00  0.00    +0.074 A 
ATOM     12  C   UNL     1       0.914  -1.202  -0.082  0.00  0.00    +0.021 A 
ATOM     13  C   UNL     1       0.529  -2.519  -0.044  0.00  0.00    +0.008 A 
ATOM     14  C   UNL     1      -0.789  -2.822   0.083  0.00  0.00    +0.046 A 
ATOM     15  S   UNL     1      -1.547  -1.265   0.162  0.00  0.00    -0.092 S 
ENDBRANCH   9  11
ENDBRANCH   1   8
BRANCH   6  16
ATOM     16  C   UNL     1      -2.437   1.206  -2.387  0.00  0.00    +0.343 C 
ATOM     17  O   UNL     1      -1.344   1.728  -2.483  0.00  0.00    -0.245 OA
BRANCH  16  18
ATOM     18  O   UNL     1      -3.104   0.830  -3.496  0.00  0.00    -0.441 OA
BRANCH  18  19
ATOM     19  C   UNL     1      -2.457   1.080  -4.771  0.00  0.00    +0.353 C 
BRANCH  19  20
ATOM     20  N   UNL     1      -1.461   0.036  -5.026  0.00  0.00    -0.199 N 
ATOM     21  C   UNL     1      -0.263  -0.037  -4.419  0.00  0.00    +0.256 C 
ATOM     22  O   UNL     1       0.158   0.739  -3.585  0.00  0.00    -0.269 OA
ATOM     23  C   UNL     1       0.455  -1.222  -4.934  0.00  0.00    +0.049 A 
ATOM     24  C   UNL     1       1.694  -1.789  -4.682  0.00  0.00    +0.014 A 
ATOM     25  C   UNL     1       2.076  -2.935  -5.362  0.00  0.00    +0.001 A 
ATOM     26  C   UNL     1       1.230  -3.516  -6.288  0.00  0.00    +0.001 A 
ATOM     27  C   UNL     1      -0.012  -2.960  -6.551  0.00  0.00    +0.014 A 
ATOM     28  C   UNL     1      -0.408  -1.814  -5.879  0.00  0.00    +0.049 A 
ATOM     29  C   UNL     1      -1.622  -0.972  -5.902  0.00  0.00    +0.256 C 
ATOM     30  O   UNL     1      -2.601  -1.158  -6.596  0.00  0.00    -0.269 OA
ENDBRANCH  19  20
ENDBRANCH  18  19
ENDBRANCH  16  18
ENDBRANCH   6  16
TORSDOF 6
