REMARK  Name = ZINC19691986
REMARK  13 active torsions:
REMARK  status: ('A' for Active; 'I' for Inactive)
REMARK    1  A    between atoms: C_1  and  C_2
REMARK    2  A    between atoms: C_2  and  O_3
REMARK    3  A    between atoms: O_3  and  C_4
REMARK    4  A    between atoms: C_6  and  C_14
REMARK    5  A    between atoms: C_9  and  O_10
REMARK    6  A    between atoms: O_10  and  C_11
REMARK    7  A    between atoms: C_11  and  C_12
REMARK    8  A    between atoms: C_14  and  C_15
REMARK    9  A    between atoms: C_14  and  C_23
REMARK   10  A    between atoms: C_16  and  C_22
REMARK   11  A    between atoms: C_20  and  O_21
REMARK   12  A    between atoms: C_24  and  C_30
REMARK   13  A    between atoms: C_28  and  O_29
REMARK                            x       y       z     vdW  Elec       q    Type
REMARK                         _______ _______ _______ _____ _____    ______ ____
ROOT
ATOM      1  C   UNL     1      -0.220  -4.923   0.497  0.00  0.00    +0.093 C 
ENDROOT
BRANCH   1   4
ATOM      2  C   UNL     1       0.946  -1.516  -0.646  0.00  0.00    +0.163 A 
ATOM      3  C   UNL     1       0.300  -2.514   0.066  0.00  0.00    +0.054 A 
ATOM      4  C   UNL     1       0.484  -3.840  -0.279  0.00  0.00    -0.031 A 
ATOM      5  C   UNL     1       1.312  -4.174  -1.334  0.00  0.00    +0.022 A 
ATOM      6  C   UNL     1       1.960  -3.184  -2.049  0.00  0.00    +0.059 A 
ATOM      7  C   UNL     1       1.775  -1.852  -1.712  0.00  0.00    +0.175 A 
ATOM      8  I   UNL     1       3.215  -3.696  -3.647  0.00  0.00    -0.040 I 
BRANCH   2   9
ATOM      9  O   UNL     1       0.766  -0.211  -0.308  0.00  0.00    -0.489 OA
BRANCH   9  11
ATOM     10  C   UNL     1      -0.176   1.570   1.026  0.00  0.00    +0.048 C 
ATOM     11  C   UNL     1      -0.098   0.059   0.797  0.00  0.00    +0.226 C 
ENDBRANCH   9  11
ENDBRANCH   2   9
BRANCH   7  12
ATOM     12  O   UNL     1       2.407  -0.876  -2.418  0.00  0.00    -0.488 OA
BRANCH  12  13
ATOM     13  C   UNL     1       3.702  -0.480  -1.961  0.00  0.00    +0.226 C 
ATOM     14  C   UNL     1       4.250   0.620  -2.873  0.00  0.00    +0.048 C 
ENDBRANCH  12  13
ENDBRANCH   7  12
ENDBRANCH   1   4
BRANCH   1  15
ATOM     15  C   UNL     1      -1.296  -5.537  -0.361  0.00  0.00    +0.048 A 
ATOM     16  C   UNL     1      -2.675  -5.438  -0.151  0.00  0.00    +0.068 A 
ATOM     17  N   UNL     1      -3.284  -6.099  -1.101  0.00  0.00    -0.176 NA
ATOM     18  N   UNL     1      -2.313  -6.644  -1.951  0.00  0.00    -0.247 N 
ATOM     19  H   UNL     1      -2.483  -7.183  -2.740  0.00  0.00    +0.192 HD
ATOM     20  C   UNL     1      -1.099  -6.283  -1.481  0.00  0.00    +0.213 A 
ATOM     21  C   UNL     1      -3.344  -4.696   0.977  0.00  0.00    +0.068 C 
BRANCH  20  22
ATOM     22  O   UNL     1       0.101  -6.607  -2.027  0.00  0.00    -0.492 OA
ATOM     23  H   UNL     1       0.507  -7.397  -1.643  0.00  0.00    +0.294 HD
ENDBRANCH  20  22
ENDBRANCH   1  15
BRANCH   1  24
ATOM     24  C   UNL     1       0.774  -5.984   0.893  0.00  0.00    +0.048 A 
ATOM     25  C   UNL     1       0.490  -7.277   1.172  0.00  0.00    +0.041 A 
ATOM     26  N   UNL     1       1.648  -7.897   1.481  0.00  0.00    -0.278 N 
ATOM     27  N   UNL     1       2.681  -6.955   1.390  0.00  0.00    -0.136 NA
ATOM     28  H   UNL     1       1.748  -8.831   1.724  0.00  0.00    +0.189 HD
ATOM     29  C   UNL     1       2.159  -5.808   1.031  0.00  0.00    +0.236 A 
ATOM     30  C   UNL     1      -0.877  -7.912   1.143  0.00  0.00    +0.065 C 
BRANCH  29  31
ATOM     31  O   UNL     1       2.840  -4.648   0.831  0.00  0.00    -0.491 OA
ATOM     32  H   UNL     1       2.992  -4.137   1.638  0.00  0.00    +0.294 HD
ENDBRANCH  29  31
ENDBRANCH   1  24
TORSDOF 9
