REMARK  Name = ZINC19534797
REMARK  14 active torsions:
REMARK  status: ('A' for Active; 'I' for Inactive)
REMARK    1  A    between atoms: C_1  and  C_2
REMARK    2  A    between atoms: C_2  and  O_3
REMARK    3  A    between atoms: O_3  and  C_4
REMARK    4  A    between atoms: C_4  and  C_6
REMARK    5  A    between atoms: C_7  and  C_22
REMARK    6  A    between atoms: C_12  and  C_14
REMARK    7  A    between atoms: C_17  and  O_20
REMARK    8  A    between atoms: O_20  and  C_21
REMARK    9  A    between atoms: C_22  and  N_23
REMARK   10  A    between atoms: N_23  and  C_24
REMARK   11  A    between atoms: N_23  and  C_25
REMARK   12  A    between atoms: C_25  and  C_26
REMARK   13  A    between atoms: C_29  and  S_32
REMARK   14  A    between atoms: S_32  and  C_33
REMARK                            x       y       z     vdW  Elec       q    Type
REMARK                         _______ _______ _______ _____ _____    ______ ____
ROOT
ATOM      1  C   UNL     1      -0.953   1.505  -1.130  0.00  0.00    +0.076 C 
ATOM      2  C   UNL     1      -0.344   2.265  -2.065  0.00  0.00    +0.008 C 
ATOM      3  N   UNL     1       0.977   2.592  -1.957  0.00  0.00    -0.274 N 
ATOM      4  C   UNL     1       1.759   2.200  -0.943  0.00  0.00    +0.304 C 
ATOM      5  O   UNL     1       2.925   2.542  -0.933  0.00  0.00    -0.252 OA
ATOM      6  N   UNL     1       1.294   1.438   0.067  0.00  0.00    -0.288 N 
ATOM      7  C   UNL     1      -0.121   1.030   0.044  0.00  0.00    +0.143 C 
ATOM      8  H   UNL     1       1.456   3.211  -2.730  0.00  0.00    +0.156 HD
ATOM      9  H   UNL     1       1.944   1.121   0.896  0.00  0.00    +0.151 HD
ENDROOT
BRANCH   7  10
ATOM     10  C   UNL     1      -0.770   1.532   1.307  0.00  0.00    -0.022 A 
ATOM     11  C   UNL     1      -0.506   2.813   1.757  0.00  0.00    +0.009 A 
ATOM     12  C   UNL     1      -1.104   3.279   2.912  0.00  0.00    +0.046 A 
ATOM     13  C   UNL     1      -1.962   2.456   3.627  0.00  0.00    +0.120 A 
ATOM     14  C   UNL     1      -2.221   1.169   3.177  0.00  0.00    +0.046 A 
ATOM     15  C   UNL     1      -1.625   0.711   2.018  0.00  0.00    +0.009 A 
BRANCH  13  16
ATOM     16  O   UNL     1      -2.547   2.909   4.767  0.00  0.00    -0.495 OA
ATOM     17  C   UNL     1      -2.234   4.244   5.170  0.00  0.00    +0.277 C 
ENDBRANCH  13  16
ENDBRANCH   7  10
BRANCH   1  18
ATOM     18  C   UNL     1      -2.321   1.165  -1.241  0.00  0.00    +0.339 C 
ATOM     19  O   UNL     1      -3.001   1.655  -2.123  0.00  0.00    -0.245 OA
BRANCH  18  20
ATOM     20  O   UNL     1      -2.874   0.295  -0.369  0.00  0.00    -0.462 OA
BRANCH  20  22
ATOM     21  C   UNL     1      -4.705  -0.998   0.533  0.00  0.00    +0.048 C 
ATOM     22  C   UNL     1      -4.261  -0.003  -0.541  0.00  0.00    +0.229 C 
ENDBRANCH  20  22
ENDBRANCH  18  20
ENDBRANCH   1  18
BRANCH   2  23
ATOM     23  C   UNL     1      -1.135   2.759  -3.249  0.00  0.00    -0.026 C 
BRANCH  23  24
ATOM     24  N   UNL     1      -1.816   4.011  -2.894  0.00  0.00    +0.384 N 
ATOM     25  C   UNL     1      -0.858   5.120  -2.790  0.00  0.00    -0.095 C 
ATOM     26  H   UNL     1      -2.284   3.874  -1.908  0.00  0.00    -0.081 HD
BRANCH  24  27
ATOM     27  C   UNL     1      -2.880   4.323  -3.859  0.00  0.00    -0.043 C 
BRANCH  27  28
ATOM     28  C   UNL     1      -3.711   5.467  -3.337  0.00  0.00    -0.064 A 
ATOM     29  C   UNL     1      -4.821   5.212  -2.554  0.00  0.00    +0.003 A 
ATOM     30  C   UNL     1      -5.582   6.258  -2.070  0.00  0.00    +0.015 A 
ATOM     31  C   UNL     1      -5.237   7.567  -2.380  0.00  0.00    +0.008 A 
ATOM     32  C   UNL     1      -4.123   7.820  -3.172  0.00  0.00    +0.015 A 
ATOM     33  C   UNL     1      -3.364   6.770  -3.648  0.00  0.00    +0.003 A 
BRANCH  31  34
ATOM     34  S   UNL     1      -6.208   8.905  -1.769  0.00  0.00    -0.129 S 
ATOM     35  C   UNL     1      -7.518   8.094  -0.811  0.00  0.00    +0.090 C 
ENDBRANCH  31  34
ENDBRANCH  27  28
ENDBRANCH  24  27
ENDBRANCH  23  24
ENDBRANCH   2  23
TORSDOF 10
