REMARK  Name = ZINC12732207
REMARK  6 active torsions:
REMARK  status: ('A' for Active; 'I' for Inactive)
REMARK    1  A    between atoms: C_3  and  C_9
REMARK    2  A    between atoms: C_9  and  N_10
REMARK    3  A    between atoms: C_11  and  N_15
REMARK    4  A    between atoms: C_16  and  C_18
REMARK    5  A    between atoms: N_23  and  S_25
REMARK    6  A    between atoms: S_25  and  C_28
REMARK                            x       y       z     vdW  Elec       q    Type
REMARK                         _______ _______ _______ _____ _____    ______ ____
ROOT
ATOM      1  N   UNL     1       1.579   4.570  -0.241  0.00  0.00    -0.270 N 
ATOM      2  C   UNL     1       2.926   4.530  -0.250  0.00  0.00    +0.223 C 
ATOM      3  O   UNL     1       3.502   3.469  -0.138  0.00  0.00    -0.275 OA
ATOM      4  H   UNL     1       1.119   5.419  -0.330  0.00  0.00    +0.156 HD
ENDROOT
BRANCH   2   5
ATOM      5  C   UNL     1       3.717   5.804  -0.399  0.00  0.00    +0.091 C 
ATOM      6  C   UNL     1       3.384   6.751   0.756  0.00  0.00    +0.015 C 
ATOM      7  C   UNL     1       4.161   8.058   0.588  0.00  0.00    +0.018 C 
ATOM      8  C   UNL     1       5.664   7.762   0.624  0.00  0.00    +0.109 C 
ATOM      9  N   UNL     1       5.970   6.743  -0.390  0.00  0.00    -0.175 NA
ATOM     10  C   UNL     1       5.215   5.483  -0.374  0.00  0.00    +0.122 C 
BRANCH   9  11
ATOM     11  S   UNL     1       7.143   7.010  -1.528  0.00  0.00    +0.067 S 
ATOM     12  O   UNL     1       6.833   6.174  -2.634  0.00  0.00    -0.152 OA
ATOM     13  O   UNL     1       7.276   8.419  -1.651  0.00  0.00    -0.152 OA
BRANCH  11  14
ATOM     14  C   UNL     1       8.661   6.418  -0.859  0.00  0.00    +0.143 A 
ATOM     15  C   UNL     1       9.207   5.180  -0.946  0.00  0.00    +0.036 A 
ATOM     16  C   UNL     1      10.426   4.940  -0.338  0.00  0.00    +0.010 A 
ATOM     17  C   UNL     1      11.033   5.947   0.336  0.00  0.00    +0.047 A 
ATOM     18  S   UNL     1       9.877   7.289   0.116  0.00  0.00    -0.077 S 
ENDBRANCH  11  14
ENDBRANCH   9  11
ENDBRANCH   2   5
BRANCH   1  20
ATOM     19  N   UNL     1      -0.494   3.295   0.040  0.00  0.00    -0.246 N 
ATOM     20  C   UNL     1       0.847   3.391  -0.102  0.00  0.00    +0.123 A 
ATOM     21  C   UNL     1       1.353   2.128  -0.086  0.00  0.00    +0.065 A 
ATOM     22  C   UNL     1       0.285   1.241   0.071  0.00  0.00    +0.136 A 
ATOM     23  N   UNL     1      -0.821   1.937   0.142  0.00  0.00    -0.178 NA
BRANCH  19  24
ATOM     24  C   UNL     1      -1.439   4.414   0.077  0.00  0.00    +0.182 C 
BRANCH  24  27
ATOM     25  C   UNL     1      -0.876   6.571   3.124  0.00  0.00    +0.002 A 
ATOM     26  C   UNL     1      -0.798   6.075   1.836  0.00  0.00    +0.007 A 
ATOM     27  C   UNL     1      -1.525   4.954   1.481  0.00  0.00    -0.006 A 
ATOM     28  C   UNL     1      -2.335   4.331   2.414  0.00  0.00    +0.064 A 
ATOM     29  C   UNL     1      -2.409   4.824   3.705  0.00  0.00    +0.060 A 
ATOM     30  C   UNL     1      -1.681   5.947   4.059  0.00  0.00    +0.021 A 
ATOM     31 CL   UNL     1      -3.420   4.040   4.878  0.00  0.00    -0.082 Cl
ATOM     32 CL   UNL     1      -3.253   2.927   1.967  0.00  0.00    -0.082 Cl
ENDBRANCH  24  27
ENDBRANCH  19  24
ENDBRANCH   1  20
TORSDOF 6
