REMARK  Name = ZINC16802218
REMARK  10 active torsions:
REMARK  status: ('A' for Active; 'I' for Inactive)
REMARK    1  A    between atoms: C_1  and  C_2
REMARK    2  A    between atoms: C_2  and  C_24
REMARK    3  A    between atoms: N_5  and  C_9
REMARK    4  A    between atoms: C_9  and  C_10
REMARK    5  A    between atoms: C_10  and  C_12
REMARK    6  A    between atoms: C_15  and  C_17
REMARK    7  A    between atoms: C_17  and  C_18
REMARK    8  A    between atoms: C_18  and  N_19
REMARK    9  A    between atoms: N_19  and  S_20
REMARK   10  A    between atoms: S_20  and  C_23
REMARK                            x       y       z     vdW  Elec       q    Type
REMARK                         _______ _______ _______ _____ _____    ______ ____
ROOT
ATOM      1  C   UNL     1      -2.076   1.921  -1.246  0.00  0.00    +0.047 C 
ATOM      2  C   UNL     1      -1.235   2.107   0.018  0.00  0.00    +0.136 C 
ATOM      3  C   UNL     1      -0.017   1.205  -0.014  0.00  0.00    +0.251 C 
ATOM      4  O   UNL     1      -0.004  -0.006  -0.056  0.00  0.00    -0.272 OA
ATOM      5  N   UNL     1       1.048   2.030   0.009  0.00  0.00    -0.216 N 
ATOM      6  C   UNL     1       0.677   3.315   0.055  0.00  0.00    +0.310 C 
ATOM      7  O   UNL     1       1.460   4.244   0.082  0.00  0.00    -0.252 OA
ATOM      8  N   UNL     1      -0.660   3.463   0.067  0.00  0.00    -0.281 N 
ATOM      9  H   UNL     1      -1.151   4.299   0.098  0.00  0.00    +0.152 HD
ENDROOT
BRANCH   2  10
ATOM     10  C   UNL     1      -2.061   1.839   1.250  0.00  0.00    -0.008 A 
ATOM     11  C   UNL     1      -2.225   2.812   2.188  0.00  0.00    +0.007 A 
ATOM     12  C   UNL     1      -2.990   2.585   3.331  0.00  0.00    +0.001 A 
ATOM     13  C   UNL     1      -3.586   1.380   3.547  0.00  0.00    +0.008 A 
ATOM     14  C   UNL     1      -3.433   0.350   2.604  0.00  0.00    -0.018 A 
ATOM     15  C   UNL     1      -2.660   0.583   1.439  0.00  0.00    -0.012 A 
ATOM     16  C   UNL     1      -2.507  -0.448   0.496  0.00  0.00    +0.009 A 
ATOM     17  C   UNL     1      -3.102  -1.653   0.713  0.00  0.00    +0.001 A 
ATOM     18  C   UNL     1      -3.863  -1.882   1.858  0.00  0.00    +0.001 A 
ATOM     19  C   UNL     1      -4.032  -0.908   2.793  0.00  0.00    +0.008 A 
ENDBRANCH   2  10
BRANCH   5  20
ATOM     20  C   UNL     1       2.441   1.577  -0.014  0.00  0.00    +0.198 C 
BRANCH  20  21
ATOM     21  C   UNL     1       2.911   1.469  -1.442  0.00  0.00    +0.187 C 
ATOM     22  O   UNL     1       2.156   1.745  -2.352  0.00  0.00    -0.290 OA
BRANCH  21  23
ATOM     23  C   UNL     1       4.230   1.048  -1.721  0.00  0.00    +0.056 A 
ATOM     24  C   UNL     1       4.856   0.883  -2.953  0.00  0.00    +0.019 A 
ATOM     25  C   UNL     1       6.158   0.459  -2.938  0.00  0.00    +0.012 A 
ATOM     26  C   UNL     1       6.767   0.223  -1.744  0.00  0.00    -0.008 A 
ATOM     27  S   UNL     1       5.531   0.596  -0.587  0.00  0.00    -0.090 S 
BRANCH  26  28
ATOM     28  C   UNL     1       8.177  -0.244  -1.488  0.00  0.00    +0.059 C 
BRANCH  28  29
ATOM     29  C   UNL     1       9.100   0.970  -1.358  0.00  0.00    +0.110 C 
BRANCH  29  30
ATOM     30  N   UNL     1      10.471   0.516  -1.110  0.00  0.00    -0.194 NA
ATOM     31  H   UNL     1      10.637  -0.400  -0.838  0.00  0.00    +0.148 HD
BRANCH  30  32
ATOM     32  S   UNL     1      11.737   1.567  -1.293  0.00  0.00    +0.027 S 
ATOM     33  O   UNL     1      12.894   0.796  -1.001  0.00  0.00    -0.158 OA
ATOM     34  O   UNL     1      11.552   2.136  -2.583  0.00  0.00    -0.158 OA
ATOM     35  C   UNL     1      11.486   2.828  -0.013  0.00  0.00    +0.214 C 
ENDBRANCH  30  32
ENDBRANCH  29  30
ENDBRANCH  28  29
ENDBRANCH  26  28
ENDBRANCH  21  23
ENDBRANCH  20  21
ENDBRANCH   5  20
TORSDOF 8
