REMARK  Name = ZINC09347822
REMARK  5 active torsions:
REMARK  status: ('A' for Active; 'I' for Inactive)
REMARK    1  A    between atoms: C_4  and  C_7
REMARK    2  A    between atoms: C_7  and  S_8
REMARK    3  A    between atoms: S_8  and  C_9
REMARK    4  A    between atoms: C_14  and  C_24
REMARK    5  A    between atoms: C_28  and  N_30
REMARK                            x       y       z     vdW  Elec       q    Type
REMARK                         _______ _______ _______ _____ _____    ______ ____
ROOT
ATOM      1  C   UNL     1       5.786  -1.866   1.477  0.00  0.00    +0.211 A 
ATOM      2  N   UNL     1       6.362  -2.183   0.308  0.00  0.00    -0.187 NA
ATOM      3  C   UNL     1       7.482  -2.814   0.532  0.00  0.00    +0.219 A 
ATOM      4  N   UNL     1       7.652  -2.911   1.873  0.00  0.00    -0.220 N 
ATOM      5  N   UNL     1       6.549  -2.292   2.461  0.00  0.00    -0.141 NA
ATOM      6  C   UNL     1       8.806  -3.550   2.492  0.00  0.00    +0.176 C 
ATOM      7  C   UNL     1       9.565  -4.357   1.462  0.00  0.00    +0.041 C 
ATOM      8  C   UNL     1      10.525  -5.267   1.942  0.00  0.00    +0.163 C 
ATOM      9  C   UNL     1      11.354  -6.099   1.005  0.00  0.00    +0.080 C 
ATOM     10  C   UNL     1      11.510  -5.348  -0.322  0.00  0.00    +0.014 C 
ATOM     11  C   UNL     1      10.115  -5.042  -0.869  0.00  0.00    +0.052 C 
ATOM     12  C   UNL     1       9.343  -4.221   0.137  0.00  0.00    +0.020 C 
ATOM     13  N   UNL     1       8.408  -3.341  -0.353  0.00  0.00    -0.287 N 
ATOM     14  O   UNL     1      10.688  -5.381   3.141  0.00  0.00    -0.292 OA
ATOM     15  H   UNL     1       8.397  -3.095  -1.292  0.00  0.00    +0.155 HD
ENDROOT
BRANCH   6  16
ATOM     16  C   UNL     1       9.716  -2.493   3.064  0.00  0.00    -0.016 A 
ATOM     17  C   UNL     1      10.263  -1.530   2.237  0.00  0.00    +0.006 A 
ATOM     18  C   UNL     1      11.097  -0.561   2.763  0.00  0.00    +0.003 A 
ATOM     19  C   UNL     1      11.383  -0.554   4.115  0.00  0.00    +0.033 A 
ATOM     20  C   UNL     1      10.836  -1.517   4.942  0.00  0.00    +0.127 A 
ATOM     21  C   UNL     1       9.998  -2.484   4.417  0.00  0.00    +0.038 A 
BRANCH  20  22
ATOM     22  N   UNL     1      11.143  -1.511   6.390  0.00  0.00    +0.056 N 
ATOM     23  O   UNL     1      11.873  -0.663   6.849  0.00  0.00    -0.126 OA
ATOM     24  O   UNL     1      10.665  -2.353   7.113  0.00  0.00    -0.126 OA
ENDBRANCH  20  22
ENDBRANCH   6  16
BRANCH   1  25
ATOM     25  S   UNL     1       4.257  -1.011   1.666  0.00  0.00    -0.080 S 
BRANCH  25  26
ATOM     26  C   UNL     1       3.711  -0.707  -0.038  0.00  0.00    +0.112 C 
BRANCH  26  30
ATOM     27  C   UNL     1      -0.017   1.378   0.010  0.00  0.00    +0.000 A 
ATOM     28  C   UNL     1       1.171   2.086   0.002  0.00  0.00    +0.000 A 
ATOM     29  C   UNL     1       2.377   1.411  -0.013  0.00  0.00    +0.004 A 
ATOM     30  C   UNL     1       2.396   0.029  -0.020  0.00  0.00    -0.037 A 
ATOM     31  C   UNL     1       1.208  -0.679  -0.012  0.00  0.00    +0.004 A 
ATOM     32  C   UNL     1       0.002  -0.004   0.002  0.00  0.00    +0.000 A 
ENDBRANCH  26  30
ENDBRANCH  25  26
ENDBRANCH   1  25
TORSDOF 5
