REMARK  Name = ZINC63375076
REMARK  10 active torsions:
REMARK  status: ('A' for Active; 'I' for Inactive)
REMARK    1  A    between atoms: C_1  and  C_2
REMARK    2  A    between atoms: C_2  and  O_3
REMARK    3  A    between atoms: O_3  and  C_4
REMARK    4  A    between atoms: C_5  and  C_12
REMARK    5  A    between atoms: C_9  and  O_10
REMARK    6  A    between atoms: O_10  and  C_11
REMARK    7  A    between atoms: N_19  and  C_34
REMARK    8  A    between atoms: C_22  and  C_33
REMARK    9  A    between atoms: C_34  and  C_35
REMARK   10  A    between atoms: C_35  and  O_36
REMARK                            x       y       z     vdW  Elec       q    Type
REMARK                         _______ _______ _______ _____ _____    ______ ____
ROOT
ATOM      1  C   UNL     1      -1.340  -1.807   2.614  0.00  0.00    +0.069 C 
ATOM      2  C   UNL     1      -1.448  -2.056   4.121  0.00  0.00    +0.121 C 
ATOM      3  N   UNL     1      -2.781  -1.831   4.652  0.00  0.00    -0.283 N 
ATOM      4  C   UNL     1      -2.899  -1.727   6.018  0.00  0.00    +0.234 C 
ATOM      5  O   UNL     1      -1.924  -1.682   6.738  0.00  0.00    -0.274 OA
ATOM      6  C   UNL     1      -4.304  -1.671   6.580  0.00  0.00    +0.203 C 
ATOM      7  N   UNL     1      -5.126  -2.682   5.888  0.00  0.00    -0.289 N 
ATOM      8  C   UNL     1      -5.022  -2.724   4.525  0.00  0.00    +0.242 C 
ATOM      9  O   UNL     1      -5.678  -3.487   3.848  0.00  0.00    -0.273 OA
ATOM     10  C   UNL     1      -4.035  -1.756   3.924  0.00  0.00    +0.135 C 
ATOM     11  C   UNL     1      -3.965  -1.807   2.430  0.00  0.00    +0.139 C 
ATOM     12  C   UNL     1      -2.609  -2.350   2.007  0.00  0.00    -0.027 C 
ATOM     13  C   UNL     1      -2.846  -3.300   1.115  0.00  0.00    -0.000 A 
ATOM     14  C   UNL     1      -1.947  -4.114   0.282  0.00  0.00    +0.010 A 
ATOM     15  C   UNL     1      -2.542  -5.032  -0.525  0.00  0.00    +0.001 A 
ATOM     16  C   UNL     1      -3.927  -5.219  -0.586  0.00  0.00    +0.002 A 
ATOM     17  C   UNL     1      -4.829  -4.509   0.137  0.00  0.00    +0.026 A 
ATOM     18  C   UNL     1      -4.324  -3.508   1.016  0.00  0.00    +0.043 A 
ATOM     19  N   UNL     1      -4.943  -2.694   1.802  0.00  0.00    -0.375 N 
ATOM     20  C   UNL     1      -4.599  -0.369   4.238  0.00  0.00    +0.044 C 
ATOM     21  H   UNL     1      -5.903  -2.672   1.941  0.00  0.00    +0.160 HD
ENDROOT
BRANCH   1  23
ATOM     22  C   UNL     1       0.851  -1.826   1.398  0.00  0.00    +0.166 A 
ATOM     23  C   UNL     1      -0.145  -2.533   2.053  0.00  0.00    +0.007 A 
ATOM     24  C   UNL     1      -0.042  -3.905   2.192  0.00  0.00    +0.008 A 
ATOM     25  C   UNL     1       1.054  -4.574   1.679  0.00  0.00    +0.004 A 
ATOM     26  C   UNL     1       2.051  -3.874   1.025  0.00  0.00    +0.049 A 
ATOM     27  C   UNL     1       1.951  -2.500   0.877  0.00  0.00    +0.162 A 
BRANCH  27  28
ATOM     28  O   UNL     1       2.928  -1.812   0.229  0.00  0.00    -0.491 OA
ATOM     29  C   UNL     1       4.028  -2.569  -0.280  0.00  0.00    +0.277 C 
ENDBRANCH  27  28
BRANCH  22  30
ATOM     30  O   UNL     1       0.751  -0.477   1.261  0.00  0.00    -0.488 OA
BRANCH  30  32
ATOM     31  C   UNL     1       0.070   1.538   0.114  0.00  0.00    +0.048 C 
ATOM     32  C   UNL     1       0.084   0.009   0.094  0.00  0.00    +0.226 C 
ENDBRANCH  30  32
ENDBRANCH  22  30
ENDBRANCH   1  23
BRANCH   7  33
ATOM     33  C   UNL     1      -6.009  -3.592   6.622  0.00  0.00    +0.136 C 
BRANCH  33  34
ATOM     34  C   UNL     1      -7.393  -2.955   6.766  0.00  0.00    +0.174 C 
BRANCH  34  35
ATOM     35  O   UNL     1      -7.987  -2.812   5.475  0.00  0.00    -0.393 OA
ATOM     36  H   UNL     1      -8.869  -2.414   5.490  0.00  0.00    +0.209 HD
ENDBRANCH  34  35
ENDBRANCH  33  34
ENDBRANCH   7  33
TORSDOF 7
