REMARK  Name = ZINC13001434
REMARK  7 active torsions:
REMARK  status: ('A' for Active; 'I' for Inactive)
REMARK    1  A    between atoms: C_1  and  C_2
REMARK    2  A    between atoms: C_3  and  C_24
REMARK    3  A    between atoms: C_7  and  S_17
REMARK    4  A    between atoms: C_9  and  C_11
REMARK    5  A    between atoms: C_11  and  N_46
REMARK    6  A    between atoms: S_17  and  C_18
REMARK    7  A    between atoms: N_22  and  C_23
REMARK                            x       y       z     vdW  Elec       q    Type
REMARK                         _______ _______ _______ _____ _____    ______ ____
ROOT
ATOM      1  C   UNL     1       9.187   1.887   1.750  0.00  0.00    +0.045 C 
ATOM      2  C   UNL     1       8.444   0.673   1.254  0.00  0.00    -0.029 A 
ATOM      3  C   UNL     1       9.062  -0.232   0.481  0.00  0.00    -0.008 A 
ATOM      4  S   UNL     1       7.794  -1.445   0.164  0.00  0.00    -0.074 S 
ATOM      5  C   UNL     1       6.468  -0.703   1.077  0.00  0.00    +0.113 A 
ATOM      6  C   UNL     1       7.050   0.471   1.605  0.00  0.00    +0.043 A 
ATOM      7  C   UNL     1       6.186   1.276   2.398  0.00  0.00    +0.116 A 
ATOM      8  N   UNL     1       4.934   0.888   2.586  0.00  0.00    -0.227 NA
ATOM      9  C   UNL     1       4.457  -0.226   2.060  0.00  0.00    +0.115 A 
ATOM     10  N   UNL     1       5.210  -1.016   1.319  0.00  0.00    -0.227 NA
ATOM     11  C   UNL     1      10.489  -0.226  -0.004  0.00  0.00    +0.052 C 
ENDROOT
BRANCH   9  12
ATOM     12  C   UNL     1       3.021  -0.605   2.316  0.00  0.00    -0.001 C 
BRANCH  12  18
ATOM     13  C   UNL     1       0.803  -0.566   1.345  0.00  0.00    -0.078 C 
ATOM     14  C   UNL     1      -0.015  -0.057   0.157  0.00  0.00    -0.019 C 
ATOM     15  C   UNL     1      -0.048   1.474   0.184  0.00  0.00    -0.004 C 
ATOM     16  C   UNL     1       1.387   2.007   0.151  0.00  0.00    -0.019 C 
ATOM     17  C   UNL     1       2.165   1.439   1.340  0.00  0.00    -0.078 C 
ATOM     18  N   UNL     1       2.180  -0.037   1.242  0.00  0.00    +0.384 N 
ATOM     19  H   UNL     1       2.573  -0.306   0.333  0.00  0.00    -0.081 HD
ENDBRANCH  12  18
ENDBRANCH   9  12
BRANCH   7  20
ATOM     20  S   UNL     1       6.774   2.770   3.123  0.00  0.00    -0.028 S 
BRANCH  20  21
ATOM     21  C   UNL     1       5.314   3.304   3.953  0.00  0.00    +0.215 A 
ATOM     22  N   UNL     1       4.154   2.685   3.967  0.00  0.00    -0.101 NA
ATOM     23  N   UNL     1       3.302   3.344   4.667  0.00  0.00    -0.022 NA
ATOM     24  N   UNL     1       3.843   4.412   5.143  0.00  0.00    -0.043 NA
ATOM     25  N   UNL     1       5.178   4.424   4.700  0.00  0.00    -0.223 N 
ATOM     26  C   UNL     1       6.200   5.434   4.984  0.00  0.00    +0.177 C 
ENDBRANCH  20  21
ENDBRANCH   7  20
TORSDOF 4
