REMARK  Name = ZINC38651754
REMARK  9 active torsions:
REMARK  status: ('A' for Active; 'I' for Inactive)
REMARK    1  A    between atoms: C_1  and  C_2
REMARK    2  A    between atoms: C_2  and  O_3
REMARK    3  A    between atoms: O_3  and  C_4
REMARK    4  A    between atoms: C_8  and  C_10
REMARK    5  A    between atoms: C_10  and  O_12
REMARK    6  A    between atoms: O_12  and  C_13
REMARK    7  A    between atoms: C_20  and  N_33
REMARK    8  A    between atoms: C_21  and  C_31
REMARK    9  A    between atoms: C_22  and  C_24
REMARK                            x       y       z     vdW  Elec       q    Type
REMARK                         _______ _______ _______ _____ _____    ______ ____
ROOT
ATOM      1  C   UNL     1       2.897  -6.157  -5.043  0.00  0.00    +0.135 A 
ATOM      2  C   UNL     1       3.488  -5.350  -6.005  0.00  0.00    +0.047 A 
ATOM      3  C   UNL     1       4.086  -5.920  -7.112  0.00  0.00    +0.012 A 
ATOM      4  C   UNL     1       4.098  -7.295  -7.267  0.00  0.00    +0.008 A 
ATOM      5  C   UNL     1       3.510  -8.106  -6.309  0.00  0.00    +0.138 A 
ATOM      6  C   UNL     1       2.914  -7.534  -5.192  0.00  0.00    +0.093 A 
ATOM      7  O   UNL     1       3.512  -9.455  -6.443  0.00  0.00    -0.441 OA
ATOM      8  C   UNL     1       4.390 -10.044  -7.272  0.00  0.00    +0.199 C 
ATOM      9  C   UNL     1       5.015  -9.360  -8.259  0.00  0.00    +0.098 C 
ATOM     10  C   UNL     1       4.755  -7.897  -8.481  0.00  0.00    +0.098 C 
ENDROOT
BRANCH  10  11
ATOM     11  C   UNL     1       3.849  -7.726  -9.674  0.00  0.00    -0.035 A 
ATOM     12  C   UNL     1       2.581  -8.276  -9.664  0.00  0.00    +0.005 A 
ATOM     13  C   UNL     1       1.751  -8.120 -10.757  0.00  0.00    +0.015 A 
ATOM     14  C   UNL     1       2.188  -7.412 -11.862  0.00  0.00    +0.018 A 
ATOM     15  C   UNL     1       3.457  -6.861 -11.872  0.00  0.00    +0.015 A 
ATOM     16  C   UNL     1       4.285  -7.014 -10.776  0.00  0.00    +0.005 A 
ATOM     17 BR   UNL     1       1.053  -7.197 -13.359  0.00  0.00    -0.050 Br
ENDBRANCH  10  11
BRANCH   8  18
ATOM     18  N   UNL     1       4.663 -11.380  -7.112  0.00  0.00    -0.328 N 
ATOM     19  H   UNL     1       4.224 -11.884  -6.409  0.00  0.00    +0.145 HD
ATOM     20  H   UNL     1       5.294 -11.820  -7.702  0.00  0.00    +0.145 HD
ENDBRANCH   8  18
BRANCH   9  21
ATOM     21  C   UNL     1       5.941 -10.045  -9.110  0.00  0.00    +0.101 C 
ATOM     22  N   UNL     1       6.676 -10.588  -9.784  0.00  0.00    -0.191 NA
ENDBRANCH   9  21
BRANCH   1  23
ATOM     23  O   UNL     1       2.309  -5.597  -3.953  0.00  0.00    -0.422 OA
BRANCH  23  24
ATOM     24  C   UNL     1       1.091  -5.042  -4.108  0.00  0.00    +0.345 C 
ATOM     25  O   UNL     1       0.591  -4.971  -5.213  0.00  0.00    -0.245 OA
BRANCH  24  30
ATOM     26  C   UNL     1      -1.574  -3.455  -1.985  0.00  0.00    +0.121 A 
ATOM     27  C   UNL     1      -0.997  -3.539  -0.725  0.00  0.00    +0.046 A 
ATOM     28  C   UNL     1       0.253  -4.109  -0.567  0.00  0.00    +0.004 A 
ATOM     29  C   UNL     1       0.935  -4.599  -1.662  0.00  0.00    +0.015 A 
ATOM     30  C   UNL     1       0.363  -4.519  -2.933  0.00  0.00    +0.063 A 
ATOM     31  C   UNL     1      -0.901  -3.948  -3.089  0.00  0.00    +0.060 A 
BRANCH  26  32
ATOM     32  O   UNL     1      -2.802  -2.893  -2.133  0.00  0.00    -0.492 OA
BRANCH  32  34
ATOM     33  C   UNL     1      -4.803  -1.812  -1.313  0.00  0.00    +0.048 C 
ATOM     34  C   UNL     1      -3.440  -2.405  -0.951  0.00  0.00    +0.225 C 
ENDBRANCH  32  34
ENDBRANCH  26  32
ENDBRANCH  24  30
ENDBRANCH  23  24
ENDBRANCH   1  23
TORSDOF 8
