REMARK  Name = ZINC09046736
REMARK  12 active torsions:
REMARK  status: ('A' for Active; 'I' for Inactive)
REMARK    1  A    between atoms: C_1  and  C_2
REMARK    2  A    between atoms: C_2  and  C_3
REMARK    3  A    between atoms: C_3  and  C_4
REMARK    4  A    between atoms: C_4  and  C_5
REMARK    5  A    between atoms: C_5  and  C_6
REMARK    6  A    between atoms: C_18  and  C_37
REMARK    7  A    between atoms: C_23  and  C_25
REMARK    8  A    between atoms: C_28  and  N_31
REMARK    9  A    between atoms: N_31  and  C_32
REMARK   10  A    between atoms: N_31  and  C_34
REMARK   11  A    between atoms: C_32  and  C_33
REMARK   12  A    between atoms: C_34  and  C_35
REMARK                            x       y       z     vdW  Elec       q    Type
REMARK                         _______ _______ _______ _____ _____    ______ ____
ROOT
ATOM      1  C   UNL     1       1.008  -3.652  -2.745  0.00  0.00    +0.221 C 
ATOM      2  O   UNL     1       0.509  -4.254  -1.818  0.00  0.00    -0.275 OA
ATOM      3  N   UNL     1       1.669  -4.326  -3.708  0.00  0.00    -0.258 N 
ATOM      4  C   UNL     1       2.244  -3.621  -4.766  0.00  0.00    +0.058 A 
ATOM      5  C   UNL     1       1.468  -2.926  -5.680  0.00  0.00    +0.025 A 
ATOM      6  C   UNL     1       2.080  -2.279  -6.739  0.00  0.00    +0.002 A 
ATOM      7  C   UNL     1       3.455  -2.325  -6.888  0.00  0.00    +0.002 A 
ATOM      8  C   UNL     1       4.234  -3.004  -5.968  0.00  0.00    +0.025 A 
ATOM      9  C   UNL     1       3.625  -3.635  -4.897  0.00  0.00    +0.053 A 
ATOM     10  N   UNL     1       4.354  -4.242  -3.882  0.00  0.00    -0.316 N 
ATOM     11  C   UNL     1       4.306  -5.564  -3.580  0.00  0.00    +0.017 C 
ATOM     12  C   UNL     1       5.664  -6.225  -3.407  0.00  0.00    +0.063 C 
ATOM     13  C   UNL     1       5.572  -7.334  -2.360  0.00  0.00    +0.068 C 
ATOM     14  C   UNL     1       4.546  -8.359  -2.854  0.00  0.00    +0.091 C 
ATOM     15  C   UNL     1       3.246  -7.655  -3.104  0.00  0.00    +0.163 C 
ATOM     16  C   UNL     1       3.180  -6.284  -3.446  0.00  0.00    +0.037 C 
ATOM     17  C   UNL     1       1.776  -5.767  -3.623  0.00  0.00    +0.147 C 
ATOM     18  O   UNL     1       2.211  -8.285  -3.009  0.00  0.00    -0.292 OA
ATOM     19  H   UNL     1       4.939  -3.680  -3.351  0.00  0.00    +0.152 HD
ENDROOT
BRANCH  17  20
ATOM     20  C   UNL     1       1.207  -6.364  -4.884  0.00  0.00    -0.022 A 
ATOM     21  C   UNL     1       1.757  -6.043  -6.111  0.00  0.00    +0.007 A 
ATOM     22  C   UNL     1       1.234  -6.590  -7.267  0.00  0.00    +0.022 A 
ATOM     23  C   UNL     1       0.162  -7.459  -7.197  0.00  0.00    +0.013 A 
ATOM     24  C   UNL     1      -0.388  -7.781  -5.970  0.00  0.00    +0.022 A 
ATOM     25  C   UNL     1       0.137  -7.237  -4.813  0.00  0.00    +0.007 A 
BRANCH  23  26
ATOM     26  N   UNL     1      -0.368  -8.012  -8.367  0.00  0.00    -0.394 NA
ATOM     27  H   UNL     1       0.150  -7.672  -9.164  0.00  0.00    +0.126 HD
BRANCH  26  28
ATOM     28  C   UNL     1      -0.266  -9.476  -8.306  0.00  0.00    +0.081 C 
ATOM     29  C   UNL     1       1.208  -9.886  -8.307  0.00  0.00    +0.022 C 
ENDBRANCH  26  28
BRANCH  26  30
ATOM     30  C   UNL     1      -1.778  -7.624  -8.497  0.00  0.00    +0.081 C 
ATOM     31  C   UNL     1      -1.875  -6.109  -8.685  0.00  0.00    +0.022 C 
ENDBRANCH  26  30
ENDBRANCH  23  26
ENDBRANCH  17  20
BRANCH  13  32
ATOM     32  C   UNL     1       6.917  -7.994  -2.195  0.00  0.00    +0.109 A 
ATOM     33  C   UNL     1       7.628  -8.056  -1.055  0.00  0.00    +0.045 A 
ATOM     34  C   UNL     1       8.818  -8.760  -1.353  0.00  0.00    +0.041 A 
ATOM     35  C   UNL     1       8.762  -9.086  -2.657  0.00  0.00    +0.195 A 
ATOM     36  O   UNL     1       7.606  -8.624  -3.160  0.00  0.00    -0.468 OA
ENDBRANCH  13  32
BRANCH   1  37
ATOM     37  C   UNL     1       0.889  -2.152  -2.821  0.00  0.00    +0.096 C 
BRANCH  37  38
ATOM     38  C   UNL     1       0.098  -1.642  -1.615  0.00  0.00    +0.009 C 
BRANCH  38  39
ATOM     39  C   UNL     1      -0.023  -0.118  -1.692  0.00  0.00    +0.000 C 
BRANCH  39  41
ATOM     40  C   UNL     1      -0.936   1.915  -0.564  0.00  0.00    +0.004 C 
ATOM     41  C   UNL     1      -0.815   0.392  -0.487  0.00  0.00    -0.003 C 
ENDBRANCH  39  41
ENDBRANCH  38  39
ENDBRANCH  37  38
ENDBRANCH   1  37
TORSDOF 9
