REMARK  Name = ZINC20738039
REMARK  10 active torsions:
REMARK  status: ('A' for Active; 'I' for Inactive)
REMARK    1  A    between atoms: C_1  and  O_2
REMARK    2  A    between atoms: O_2  and  C_3
REMARK    3  A    between atoms: C_3  and  C_5
REMARK    4  A    between atoms: C_5  and  C_6
REMARK    5  A    between atoms: C_6  and  C_7
REMARK    6  A    between atoms: C_7  and  C_9
REMARK    7  A    between atoms: C_7  and  N_13
REMARK    8  A    between atoms: C_9  and  O_11
REMARK    9  A    between atoms: O_11  and  C_12
REMARK   10  A    between atoms: C_25  and  C_27
REMARK                            x       y       z     vdW  Elec       q    Type
REMARK                         _______ _______ _______ _____ _____    ______ ____
ROOT
ATOM      1  N   UNL     1       1.016  -6.976  -1.545  0.00  0.00    -0.286 N 
ATOM      2  C   UNL     1       1.854  -6.035  -1.067  0.00  0.00    +0.304 C 
ATOM      3  O   UNL     1       1.946  -4.961  -1.629  0.00  0.00    -0.253 OA
ATOM      4  N   UNL     1       2.590  -6.285   0.034  0.00  0.00    -0.273 N 
ATOM      5  C   UNL     1       3.419  -5.233   0.640  0.00  0.00    +0.116 C 
ATOM      6  C   UNL     1       4.896  -5.636   0.538  0.00  0.00    +0.074 C 
ATOM      7  C   UNL     1       5.033  -7.082   0.938  0.00  0.00    +0.040 A 
ATOM      8  C   UNL     1       4.015  -7.968   0.990  0.00  0.00    +0.062 A 
ATOM      9  N   UNL     1       4.509  -9.146   1.378  0.00  0.00    -0.348 N 
ATOM     10  C   UNL     1       5.797  -9.026   1.572  0.00  0.00    +0.171 A 
ATOM     11  N   UNL     1       6.161  -7.750   1.308  0.00  0.00    -0.349 N 
ATOM     12  H   UNL     1       7.056  -7.381   1.371  0.00  0.00    +0.166 HD
ATOM     13  C   UNL     1       2.579  -7.618   0.663  0.00  0.00    +0.156 C 
ATOM     14  H   UNL     1       0.995  -7.858  -1.141  0.00  0.00    +0.151 HD
ATOM     15  H   UNL     1       3.995  -9.960   1.496  0.00  0.00    +0.167 HD
ENDROOT
BRANCH  13  16
ATOM     16  C   UNL     1       1.755  -7.583   1.925  0.00  0.00    -0.021 A 
ATOM     17  C   UNL     1       2.151  -6.791   2.986  0.00  0.00    +0.007 A 
ATOM     18  C   UNL     1       1.396  -6.758   4.143  0.00  0.00    +0.015 A 
ATOM     19  C   UNL     1       0.244  -7.518   4.239  0.00  0.00    +0.018 A 
ATOM     20  C   UNL     1      -0.152  -8.309   3.176  0.00  0.00    +0.015 A 
ATOM     21  C   UNL     1       0.601  -8.338   2.018  0.00  0.00    +0.007 A 
ATOM     22 BR   UNL     1      -0.789  -7.473   5.822  0.00  0.00    -0.050 Br
ENDBRANCH  13  16
BRANCH   1  23
ATOM     23  C   UNL     1       0.136  -6.668  -2.675  0.00  0.00    +0.184 C 
BRANCH  23  24
ATOM     24  C   UNL     1      -1.122  -6.011  -2.168  0.00  0.00    +0.327 C 
ATOM     25  O   UNL     1      -1.268  -5.820  -0.984  0.00  0.00    -0.249 OA
BRANCH  24  26
ATOM     26  O   UNL     1      -2.079  -5.638  -3.032  0.00  0.00    -0.467 OA
ATOM     27  C   UNL     1      -3.245  -5.021  -2.482  0.00  0.00    +0.280 C 
ENDBRANCH  24  26
ENDBRANCH  23  24
BRANCH  23  28
ATOM     28  C   UNL     1      -0.224  -7.961  -3.409  0.00  0.00    +0.045 C 
BRANCH  28  29
ATOM     29  C   UNL     1       1.037  -8.563  -4.030  0.00  0.00    +0.123 C 
BRANCH  29  30
ATOM     30  C   UNL     1       0.682  -9.837  -4.753  0.00  0.00    +0.307 C 
ATOM     31  O   UNL     1      -0.462 -10.224  -4.769  0.00  0.00    -0.251 OA
BRANCH  30  33
ATOM     32  C   UNL     1       1.230 -11.740  -6.043  0.00  0.00    +0.280 C 
ATOM     33  O   UNL     1       1.638 -10.543  -5.379  0.00  0.00    -0.468 OA
ENDBRANCH  30  33
ENDBRANCH  29  30
ENDBRANCH  28  29
ENDBRANCH  23  28
ENDBRANCH   1  23
TORSDOF 8
