REMARK  Name = ZINC39326705
REMARK  13 active torsions:
REMARK  status: ('A' for Active; 'I' for Inactive)
REMARK    1  A    between atoms: C_1  and  C_2
REMARK    2  A    between atoms: C_7  and  C_8
REMARK    3  A    between atoms: C_11  and  O_16
REMARK    4  A    between atoms: C_13  and  O_14
REMARK    5  A    between atoms: O_14  and  C_15
REMARK    6  A    between atoms: O_16  and  C_17
REMARK    7  A    between atoms: C_21  and  C_29
REMARK    8  A    between atoms: C_23  and  C_27
REMARK    9  A    between atoms: C_24  and  N_26
REMARK   10  A    between atoms: C_32  and  O_37
REMARK   11  A    between atoms: C_34  and  O_35
REMARK   12  A    between atoms: O_35  and  C_36
REMARK   13  A    between atoms: O_37  and  C_38
REMARK                            x       y       z     vdW  Elec       q    Type
REMARK                         _______ _______ _______ _____ _____    ______ ____
ROOT
ATOM      1  C   UNL     1       0.222   1.707  -0.805  0.00  0.00    +0.109 C 
ATOM      2  C   UNL     1       0.295   0.203  -0.749  0.00  0.00    +0.213 C 
ATOM      3  O   UNL     1       1.354  -0.361  -0.929  0.00  0.00    -0.276 OA
ATOM      4  N   UNL     1      -0.817  -0.517  -0.497  0.00  0.00    -0.293 N 
ATOM      5  C   UNL     1      -2.119   0.142  -0.280  0.00  0.00    +0.147 C 
ATOM      6  C   UNL     1      -3.062  -0.441  -1.311  0.00  0.00    +0.013 C 
ATOM      7  C   UNL     1      -3.981   0.332  -1.920  0.00  0.00    +0.020 C 
ATOM      8  C   UNL     1      -2.950  -1.877  -1.633  0.00  0.00    +0.136 C 
ATOM      9  C   UNL     1      -1.895  -2.588  -1.238  0.00  0.00    +0.003 C 
ATOM     10  C   UNL     1      -0.775  -1.979  -0.436  0.00  0.00    +0.143 C 
ATOM     11  C   UNL     1      -1.786  -4.054  -1.591  0.00  0.00    +0.099 C 
ATOM     12  C   UNL     1      -2.709  -4.391  -2.726  0.00  0.00    +0.098 C 
ATOM     13  C   UNL     1      -3.744  -3.571  -3.040  0.00  0.00    +0.199 C 
ATOM     14  O   UNL     1      -3.959  -2.443  -2.345  0.00  0.00    -0.441 OA
ENDROOT
BRANCH   7  15
ATOM     15  C   UNL     1      -4.186   1.720  -1.475  0.00  0.00    +0.017 A 
ATOM     16  C   UNL     1      -4.059   2.049  -0.122  0.00  0.00    +0.015 A 
ATOM     17  C   UNL     1      -4.253   3.349   0.290  0.00  0.00    +0.046 A 
ATOM     18  C   UNL     1      -4.574   4.336  -0.634  0.00  0.00    +0.124 A 
ATOM     19  C   UNL     1      -4.703   4.020  -1.979  0.00  0.00    +0.091 A 
ATOM     20  C   UNL     1      -4.505   2.719  -2.407  0.00  0.00    +0.131 A 
BRANCH  20  21
ATOM     21  O   UNL     1      -4.625   2.409  -3.724  0.00  0.00    -0.494 OA
ATOM     22  C   UNL     1      -4.952   3.478  -4.614  0.00  0.00    +0.277 C 
ENDBRANCH  20  21
BRANCH  18  23
ATOM     23  O   UNL     1      -4.764   5.615  -0.219  0.00  0.00    -0.495 OA
ATOM     24  C   UNL     1      -4.617   5.872   1.179  0.00  0.00    +0.277 C 
ENDBRANCH  18  23
ENDBRANCH   7  15
BRANCH  11  25
ATOM     25  C   UNL     1      -2.155  -4.884  -0.388  0.00  0.00    +0.007 A 
ATOM     26  C   UNL     1      -3.414  -4.768   0.171  0.00  0.00    +0.012 A 
ATOM     27  C   UNL     1      -3.755  -5.527   1.274  0.00  0.00    +0.046 A 
ATOM     28  C   UNL     1      -2.834  -6.408   1.823  0.00  0.00    +0.124 A 
ATOM     29  C   UNL     1      -1.571  -6.526   1.264  0.00  0.00    +0.091 A 
ATOM     30  C   UNL     1      -1.233  -5.767   0.154  0.00  0.00    +0.128 A 
BRANCH  30  31
ATOM     31  O   UNL     1       0.003  -5.885  -0.399  0.00  0.00    -0.495 OA
ATOM     32  C   UNL     1       0.901  -6.813   0.211  0.00  0.00    +0.277 C 
ENDBRANCH  30  31
BRANCH  28  33
ATOM     33  O   UNL     1      -3.170  -7.154   2.908  0.00  0.00    -0.495 OA
ATOM     34  C   UNL     1      -4.488  -6.981   3.432  0.00  0.00    +0.277 C 
ENDBRANCH  28  33
ENDBRANCH  11  25
BRANCH  13  35
ATOM     35  N   UNL     1      -4.577  -3.897  -4.081  0.00  0.00    -0.328 N 
ATOM     36  H   UNL     1      -4.425  -4.710  -4.588  0.00  0.00    +0.145 HD
ATOM     37  H   UNL     1      -5.318  -3.314  -4.310  0.00  0.00    +0.145 HD
ENDBRANCH  13  35
BRANCH  12  38
ATOM     38  C   UNL     1      -2.497  -5.588  -3.483  0.00  0.00    +0.101 C 
ATOM     39  N   UNL     1      -2.328  -6.538  -4.083  0.00  0.00    -0.191 NA
ENDBRANCH  12  38
TORSDOF 8
