REMARK  Name = ZINC20080855
REMARK  6 active torsions:
REMARK  status: ('A' for Active; 'I' for Inactive)
REMARK    1  A    between atoms: C_12  and  C_13
REMARK    2  A    between atoms: C_13  and  C_15
REMARK    3  A    between atoms: C_13  and  N_27
REMARK    4  A    between atoms: N_19  and  C_20
REMARK    5  A    between atoms: C_20  and  C_21
REMARK    6  A    between atoms: N_30  and  C_33
REMARK                            x       y       z     vdW  Elec       q    Type
REMARK                         _______ _______ _______ _____ _____    ______ ____
ROOT
ATOM      1  C   UNL     1       2.849   4.725   1.886  0.00  0.00    +0.162 C 
ENDROOT
BRANCH   1  13
ATOM      2  C   UNL     1       3.591   2.740   3.173  0.00  0.00    +0.021 A 
ATOM      3  C   UNL     1       3.589   1.949   4.403  0.00  0.00    +0.003 A 
ATOM      4  C   UNL     1       4.319   0.757   4.497  0.00  0.00    +0.059 A 
ATOM      5  C   UNL     1       4.297   0.034   5.669  0.00  0.00    +0.167 A 
ATOM      6  C   UNL     1       3.549   0.486   6.764  0.00  0.00    +0.168 A 
ATOM      7  C   UNL     1       2.826   1.661   6.680  0.00  0.00    +0.075 A 
ATOM      8  C   UNL     1       2.838   2.402   5.505  0.00  0.00    +0.053 A 
ATOM      9  N   UNL     1       2.123   3.579   5.404  0.00  0.00    -0.322 N 
ATOM     10  H   UNL     1       1.530   3.937   6.258  0.00  0.00    +0.169 HD
ATOM     11  C   UNL     1       2.137   4.301   4.270  0.00  0.00    +0.254 A 
ATOM     12  O   UNL     1       1.498   5.338   4.219  0.00  0.00    -0.268 OA
ATOM     13  C   UNL     1       2.867   3.887   3.138  0.00  0.00    +0.042 A 
ATOM     14  O   UNL     1       3.698  -0.405   7.787  0.00  0.00    -0.453 OA
ATOM     15  C   UNL     1       4.862  -1.184   7.454  0.00  0.00    +0.466 C 
ATOM     16  O   UNL     1       4.909  -1.138   6.016  0.00  0.00    -0.453 OA
ENDBRANCH   1  13
BRANCH   1  17
ATOM     17  N   UNL     1       3.232   6.105   2.214  0.00  0.00    -0.292 NA
ATOM     18  C   UNL     1       3.160   6.968   1.027  0.00  0.00    +0.067 C 
ATOM     19  C   UNL     1       3.488   8.409   1.426  0.00  0.00    -0.063 C 
ATOM     20  N   UNL     1       4.829   8.455   2.027  0.00  0.00    +0.383 N 
ATOM     21  C   UNL     1       4.900   7.591   3.215  0.00  0.00    -0.063 C 
ATOM     22  C   UNL     1       4.572   6.151   2.815  0.00  0.00    +0.067 C 
ATOM     23  H   UNL     1       5.547   8.073   1.286  0.00  0.00    -0.081 HD
BRANCH  20  24
ATOM     24  C   UNL     1       5.211   9.834   2.356  0.00  0.00    -0.068 C 
ATOM     25  C   UNL     1       4.263  10.387   3.422  0.00  0.00    -0.015 C 
ATOM     26  C   UNL     1       4.661  11.824   3.764  0.00  0.00    -0.002 C 
ATOM     27  C   UNL     1       4.575  12.690   2.506  0.00  0.00    -0.000 C 
ATOM     28  C   UNL     1       5.523  12.138   1.440  0.00  0.00    -0.002 C 
ATOM     29  C   UNL     1       5.125  10.701   1.098  0.00  0.00    -0.015 C 
ENDBRANCH  20  24
ENDBRANCH   1  17
BRANCH   1  30
ATOM     30  C   UNL     1       1.463   4.715   1.295  0.00  0.00    +0.173 A 
ATOM     31  N   UNL     1       0.417   5.368   1.741  0.00  0.00    -0.111 NA
ATOM     32  N   UNL     1      -0.578   5.103   0.966  0.00  0.00    -0.023 NA
ATOM     33  N   UNL     1      -0.193   4.302   0.035  0.00  0.00    -0.044 NA
ATOM     34  N   UNL     1       1.058   4.035   0.206  0.00  0.00    -0.225 N 
BRANCH  34  35
ATOM     35  C   UNL     1       1.884   3.161  -0.630  0.00  0.00    +0.179 C 
BRANCH  35  36
ATOM     36  C   UNL     1       1.823   1.731  -0.089  0.00  0.00    +0.140 C 
ATOM     37  C   UNL     1       2.700   0.785  -0.949  0.00  0.00    +0.035 C 
ATOM     38  C   UNL     1       2.040  -0.592  -0.691  0.00  0.00    +0.031 C 
ATOM     39  C   UNL     1       0.621  -0.244  -0.202  0.00  0.00    +0.160 C 
ATOM     40  O   UNL     1       0.494   1.187  -0.238  0.00  0.00    -0.375 OA
ENDBRANCH  35  36
ENDBRANCH  34  35
ENDBRANCH   1  30
TORSDOF 6
