REMARK  Name = ZINC63869592
REMARK  6 active torsions:
REMARK  status: ('A' for Active; 'I' for Inactive)
REMARK    1  A    between atoms: C_4  and  N_9
REMARK    2  A    between atoms: C_5  and  C_7
REMARK    3  A    between atoms: C_10  and  C_12
REMARK    4  A    between atoms: C_12  and  N_13
REMARK    5  A    between atoms: C_16  and  C_21
REMARK    6  A    between atoms: C_21  and  C_22
REMARK                            x       y       z     vdW  Elec       q    Type
REMARK                         _______ _______ _______ _____ _____    ______ ____
ROOT
ATOM      1  N   UNL     1       7.195   0.328  -0.381  0.00  0.00    -0.216 N 
ATOM      2  C   UNL     1       7.645   0.841  -1.543  0.00  0.00    +0.244 C 
ATOM      3  O   UNL     1       7.242   0.591  -2.658  0.00  0.00    -0.273 OA
ATOM      4  C   UNL     1       8.760   1.796  -1.165  0.00  0.00    +0.165 C 
ATOM      5  N   UNL     1       8.813   1.702   0.304  0.00  0.00    -0.287 N 
ATOM      6  C   UNL     1       7.860   0.826   0.668  0.00  0.00    +0.310 C 
ATOM      7  O   UNL     1       7.631   0.517   1.822  0.00  0.00    -0.252 OA
ATOM      8  H   UNL     1       9.416   2.181   0.894  0.00  0.00    +0.151 HD
ENDROOT
BRANCH   1   9
ATOM      9  C   UNL     1       6.107  -0.648  -0.278  0.00  0.00    +0.214 C 
BRANCH   9  11
ATOM     10  N   UNL     1       3.646  -0.623  -0.037  0.00  0.00    -0.283 N 
ATOM     11  C   UNL     1       4.792   0.077  -0.147  0.00  0.00    +0.235 C 
ATOM     12  O   UNL     1       4.766   1.289  -0.140  0.00  0.00    -0.274 OA
ATOM     13  H   UNL     1       3.672  -1.589   0.037  0.00  0.00    +0.155 HD
BRANCH  10  17
ATOM     14  C   UNL     1      -0.019   1.371  -0.024  0.00  0.00    +0.001 A 
ATOM     15  C   UNL     1       1.088   1.947  -0.626  0.00  0.00    +0.002 A 
ATOM     16  C   UNL     1       2.302   1.289  -0.632  0.00  0.00    +0.024 A 
ATOM     17  C   UNL     1       2.421   0.043  -0.032  0.00  0.00    +0.051 A 
ATOM     18  C   UNL     1       1.302  -0.543   0.578  0.00  0.00    +0.073 A 
ATOM     19  C   UNL     1       0.081   0.134   0.576  0.00  0.00    +0.021 A 
BRANCH  18  20
ATOM     20  C   UNL     1       1.412  -1.829   1.199  0.00  0.00    +0.101 C 
ATOM     21  N   UNL     1       1.499  -2.849   1.692  0.00  0.00    -0.191 NA
ENDBRANCH  18  20
ENDBRANCH  10  17
ENDBRANCH   9  11
ENDBRANCH   1   9
BRANCH   4  22
ATOM     22  C   UNL     1      10.085   1.349  -1.785  0.00  0.00    +0.065 C 
BRANCH  22  23
ATOM     23  C   UNL     1      11.147   2.378  -1.497  0.00  0.00    -0.039 C 
ATOM     24  C   UNL     1      12.039   2.364  -0.480  0.00  0.00    -0.001 A 
ATOM     25  C   UNL     1      12.278   1.422   0.620  0.00  0.00    +0.010 A 
ATOM     26  C   UNL     1      13.267   1.683   1.504  0.00  0.00    +0.001 A 
ATOM     27  C   UNL     1      14.068   2.828   1.397  0.00  0.00    +0.002 A 
ATOM     28  C   UNL     1      13.910   3.740   0.414  0.00  0.00    +0.026 A 
ATOM     29  C   UNL     1      12.899   3.565  -0.572  0.00  0.00    +0.043 A 
ATOM     30  N   UNL     1      12.552   4.294  -1.605  0.00  0.00    -0.380 N 
ATOM     31  C   UNL     1      11.435   3.634  -2.289  0.00  0.00    +0.144 C 
ATOM     32  H   UNL     1      12.967   5.129  -1.873  0.00  0.00    +0.160 HD
ENDBRANCH  22  23
ENDBRANCH   4  22
TORSDOF 6
