REMARK  Name = ZINC16290381
REMARK  9 active torsions:
REMARK  status: ('A' for Active; 'I' for Inactive)
REMARK    1  A    between atoms: C_1  and  C_2
REMARK    2  A    between atoms: C_2  and  C_3
REMARK    3  A    between atoms: C_2  and  C_4
REMARK    4  A    between atoms: C_2  and  N_5
REMARK    5  A    between atoms: C_6  and  S_10
REMARK    6  A    between atoms: S_10  and  C_11
REMARK    7  A    between atoms: C_11  and  C_12
REMARK    8  A    between atoms: C_15  and  C_27
REMARK    9  A    between atoms: C_18  and  C_20
REMARK                            x       y       z     vdW  Elec       q    Type
REMARK                         _______ _______ _______ _____ _____    ______ ____
ROOT
ATOM      1  C   UNL     1      -4.063  -0.543   0.037  0.00  0.00    +0.246 C 
ATOM      2  O   UNL     1      -4.110  -1.755   0.031  0.00  0.00    -0.273 OA
ATOM      3  N   UNL     1      -5.203   0.176   0.052  0.00  0.00    -0.181 N 
ATOM      4  C   UNL     1      -6.565  -0.380   0.056  0.00  0.00    +0.173 C 
ATOM      5  C   UNL     1      -7.466   0.871   0.076  0.00  0.00    +0.090 C 
ATOM      6  C   UNL     1      -6.488   2.024   0.074  0.00  0.00    +0.069 C 
ATOM      7  N   UNL     1      -5.284   1.567   0.060  0.00  0.00    -0.181 NA
ENDROOT
BRANCH   6   8
ATOM      8  C   UNL     1      -6.856   3.452   0.085  0.00  0.00    -0.002 A 
ATOM      9  C   UNL     1      -8.201   3.830   0.094  0.00  0.00    +0.011 A 
ATOM     10  C   UNL     1      -8.538   5.167   0.111  0.00  0.00    +0.020 A 
ATOM     11  C   UNL     1      -7.547   6.134   0.107  0.00  0.00    +0.041 A 
ATOM     12  C   UNL     1      -6.212   5.766   0.092  0.00  0.00    +0.020 A 
ATOM     13  C   UNL     1      -5.861   4.433   0.082  0.00  0.00    +0.011 A 
ATOM     14 CL   UNL     1      -7.980   7.815   0.121  0.00  0.00    -0.084 Cl
ENDBRANCH   6   8
BRANCH   4  15
ATOM     15  C   UNL     1      -6.794  -1.215   1.289  0.00  0.00    +0.128 A 
ATOM     16  C   UNL     1      -7.485  -2.368   1.341  0.00  0.00    +0.046 A 
ATOM     17  C   UNL     1      -7.447  -2.808   2.685  0.00  0.00    +0.041 A 
ATOM     18  C   UNL     1      -6.735  -1.897   3.373  0.00  0.00    +0.195 A 
ATOM     19  O   UNL     1      -6.337  -0.938   2.521  0.00  0.00    -0.466 OA
ENDBRANCH   4  15
BRANCH   1  20
ATOM     20  C   UNL     1      -2.729   0.159   0.029  0.00  0.00    +0.175 C 
BRANCH  20  21
ATOM     21  S   UNL     1      -1.401  -1.070   0.009  0.00  0.00    -0.075 S 
BRANCH  21  23
ATOM     22  N   UNL     1       1.302  -0.384  -0.012  0.00  0.00    -0.215 N 
ATOM     23  C   UNL     1       0.002  -0.004   0.002  0.00  0.00    +0.210 A 
ATOM     24  N   UNL     1      -0.016   1.311   0.009  0.00  0.00    -0.101 NA
ATOM     25  N   UNL     1       1.181   1.777   0.000  0.00  0.00    -0.022 NA
ATOM     26  N   UNL     1       2.037   0.814  -0.013  0.00  0.00    -0.043 NA
BRANCH  22  28
ATOM     27  C   UNL     1       1.327  -2.479  -1.274  0.00  0.00    +0.036 C 
ATOM     28  C   UNL     1       1.828  -1.751  -0.025  0.00  0.00    +0.060 C 
ATOM     29  C   UNL     1       3.357  -1.709  -0.039  0.00  0.00    +0.036 C 
ATOM     30  C   UNL     1       1.350  -2.494   1.224  0.00  0.00    +0.036 C 
ENDBRANCH  22  28
ENDBRANCH  21  23
ENDBRANCH  20  21
ENDBRANCH   1  20
TORSDOF 6
