REMARK  Name = ZINC34831340
REMARK  12 active torsions:
REMARK  status: ('A' for Active; 'I' for Inactive)
REMARK    1  A    between atoms: C_1  and  C_2
REMARK    2  A    between atoms: C_2  and  N_3
REMARK    3  A    between atoms: N_6  and  C_9
REMARK    4  A    between atoms: C_10  and  C_22
REMARK    5  A    between atoms: C_11  and  C_21
REMARK    6  A    between atoms: N_13  and  C_14
REMARK    7  A    between atoms: C_22  and  N_23
REMARK    8  A    between atoms: N_23  and  C_24
REMARK    9  A    between atoms: C_24  and  C_25
REMARK   10  A    between atoms: C_25  and  C_26
REMARK   11  A    between atoms: C_25  and  C_27
REMARK   12  A    between atoms: C_28  and  C_30
REMARK                            x       y       z     vdW  Elec       q    Type
REMARK                         _______ _______ _______ _____ _____    ______ ____
ROOT
ATOM      1  C   UNL     1      -3.607  -2.944  -2.905  0.00  0.00    +0.130 A 
ATOM      2  C   UNL     1      -4.117  -4.108  -2.416  0.00  0.00    +0.032 A 
ATOM      3  C   UNL     1      -5.366  -4.313  -3.008  0.00  0.00    +0.067 A 
ATOM      4  N   UNL     1      -5.607  -3.317  -3.823  0.00  0.00    -0.170 NA
ATOM      5  N   UNL     1      -4.521  -2.434  -3.776  0.00  0.00    -0.218 N 
ATOM      6  C   UNL     1      -6.281  -5.483  -2.753  0.00  0.00    +0.068 C 
ENDROOT
BRANCH   1  10
ATOM      7  N   UNL     1      -0.186  -0.648  -2.621  0.00  0.00    +0.382 N 
ATOM      8  C   UNL     1      -1.483  -0.151  -2.145  0.00  0.00    -0.060 C 
ATOM      9  C   UNL     1      -2.290  -1.314  -1.558  0.00  0.00    +0.088 C 
ATOM     10  N   UNL     1      -2.381  -2.377  -2.572  0.00  0.00    -0.318 N 
ATOM     11  C   UNL     1      -1.139  -2.823  -3.222  0.00  0.00    +0.088 C 
ATOM     12  C   UNL     1      -0.387  -1.589  -3.730  0.00  0.00    -0.060 C 
ATOM     13  H   UNL     1       0.289  -1.118  -1.865  0.00  0.00    -0.082 HD
BRANCH   7  15
ATOM     14  C   UNL     1       0.945   1.401  -1.899  0.00  0.00    -0.017 C 
ATOM     15  C   UNL     1       0.630   0.483  -3.082  0.00  0.00    -0.082 C 
ENDBRANCH   7  15
ENDBRANCH   1  10
BRANCH   5  16
ATOM     16  C   UNL     1      -4.395  -1.240  -4.499  0.00  0.00    +0.070 A 
ATOM     17  C   UNL     1      -4.121  -0.051  -3.837  0.00  0.00    +0.028 A 
ATOM     18  C   UNL     1      -3.997   1.125  -4.551  0.00  0.00    +0.005 A 
ATOM     19  C   UNL     1      -4.146   1.120  -5.925  0.00  0.00    +0.038 A 
ATOM     20  C   UNL     1      -4.420  -0.064  -6.590  0.00  0.00    +0.125 A 
ATOM     21  C   UNL     1      -4.539  -1.245  -5.880  0.00  0.00    +0.066 A 
ATOM     22  F   UNL     1      -4.566  -0.066  -7.933  0.00  0.00    -0.205 F 
ENDBRANCH   5  16
BRANCH   2  23
ATOM     23  C   UNL     1      -3.451  -5.016  -1.414  0.00  0.00    +0.148 C 
BRANCH  23  24
ATOM     24  N   UNL     1      -3.983  -4.741  -0.077  0.00  0.00    -0.293 N 
ATOM     25  C   UNL     1      -3.337  -3.890   0.744  0.00  0.00    +0.247 C 
ATOM     26  O   UNL     1      -2.299  -3.369   0.385  0.00  0.00    -0.270 OA
BRANCH  25  27
ATOM     27  C   UNL     1      -3.890  -3.589   2.079  0.00  0.00    +0.041 A 
ATOM     28  C   UNL     1      -4.716  -4.516   2.720  0.00  0.00    +0.017 A 
ATOM     29  C   UNL     1      -5.231  -4.234   3.966  0.00  0.00    +0.050 A 
ATOM     30  C   UNL     1      -4.932  -3.030   4.590  0.00  0.00    +0.166 A 
ATOM     31  C   UNL     1      -4.108  -2.100   3.955  0.00  0.00    +0.167 A 
ATOM     32  C   UNL     1      -3.584  -2.380   2.708  0.00  0.00    +0.062 A 
ATOM     33  O   UNL     1      -3.970  -1.013   4.770  0.00  0.00    -0.453 OA
ATOM     34  C   UNL     1      -5.044  -1.111   5.725  0.00  0.00    +0.466 C 
ATOM     35  O   UNL     1      -5.308  -2.524   5.799  0.00  0.00    -0.453 OA
ENDBRANCH  25  27
BRANCH  24  36
ATOM     36  C   UNL     1      -5.218  -5.392   0.367  0.00  0.00    +0.111 C 
BRANCH  36  37
ATOM     37  C   UNL     1      -4.901  -6.804   0.863  0.00  0.00    +0.000 C 
ATOM     38  C   UNL     1      -6.167  -7.438   1.442  0.00  0.00    +0.009 C 
ATOM     39  C   UNL     1      -4.394  -7.653  -0.305  0.00  0.00    +0.009 C 
ENDBRANCH  36  37
ENDBRANCH  24  36
ENDBRANCH  23  24
ENDBRANCH   2  23
TORSDOF 8
