REMARK  Name = ZINC09311045
REMARK  10 active torsions:
REMARK  status: ('A' for Active; 'I' for Inactive)
REMARK    1  A    between atoms: C_1  and  C_2
REMARK    2  A    between atoms: C_7  and  N_8
REMARK    3  A    between atoms: C_9  and  C_11
REMARK    4  A    between atoms: C_12  and  C_37
REMARK    5  A    between atoms: C_14  and  S_27
REMARK    6  A    between atoms: C_15  and  C_25
REMARK    7  A    between atoms: C_16  and  C_18
REMARK    8  A    between atoms: S_27  and  C_28
REMARK    9  A    between atoms: C_28  and  C_29
REMARK   10  A    between atoms: C_29  and  C_31
REMARK                            x       y       z     vdW  Elec       q    Type
REMARK                         _______ _______ _______ _____ _____    ______ ____
ROOT
ATOM      1  C   UNL     1       1.155   1.888  -0.496  0.00  0.00    +0.044 C 
ATOM      2  C   UNL     1       0.180   0.968  -0.414  0.00  0.00    +0.014 C 
ATOM      3  N   UNL     1       0.472  -0.368  -0.397  0.00  0.00    -0.312 N 
ATOM      4  C   UNL     1       1.747  -0.795  -0.101  0.00  0.00    +0.080 C 
ATOM      5  C   UNL     1       2.797   0.067  -0.171  0.00  0.00    +0.069 C 
ATOM      6  C   UNL     1       2.603   1.500  -0.581  0.00  0.00    +0.100 C 
ATOM      7  C   UNL     1      -1.257   1.415  -0.347  0.00  0.00    +0.061 C 
ATOM      8  H   UNL     1      -0.313  -1.106  -0.621  0.00  0.00    +0.152 HD
ENDROOT
BRANCH   6   9
ATOM      9  C   UNL     1       3.082   1.679  -1.998  0.00  0.00    -0.016 A 
ATOM     10  C   UNL     1       2.424   1.045  -3.036  0.00  0.00    +0.006 A 
ATOM     11  C   UNL     1       2.860   1.214  -4.336  0.00  0.00    +0.000 A 
ATOM     12  C   UNL     1       3.961   2.008  -4.600  0.00  0.00    +0.001 A 
ATOM     13  C   UNL     1       4.622   2.639  -3.563  0.00  0.00    +0.020 A 
ATOM     14  C   UNL     1       4.183   2.474  -2.261  0.00  0.00    +0.045 A 
ATOM     15 CL   UNL     1       5.013   3.266  -0.958  0.00  0.00    -0.083 Cl
ENDBRANCH   6   9
BRANCH   1  17
ATOM     16  N   UNL     1       1.774   4.200  -0.458  0.00  0.00    -0.281 N 
ATOM     17  C   UNL     1       0.808   3.261  -0.501  0.00  0.00    +0.247 C 
ATOM     18  O   UNL     1      -0.362   3.593  -0.545  0.00  0.00    -0.270 OA
ATOM     19  H   UNL     1       2.832   3.902  -0.498  0.00  0.00    +0.155 HD
BRANCH  16  26
ATOM     20  C   UNL     1       3.510   5.927   0.992  0.00  0.00    +0.045 C 
ATOM     21  C   UNL     1       2.249   6.430   0.336  0.00  0.00    -0.029 A 
ATOM     22  C   UNL     1       1.910   7.766   0.423  0.00  0.00    +0.005 A 
ATOM     23  C   UNL     1       0.751   8.228  -0.173  0.00  0.00    +0.000 A 
ATOM     24  C   UNL     1      -0.069   7.354  -0.865  0.00  0.00    +0.002 A 
ATOM     25  C   UNL     1       0.267   6.019  -0.961  0.00  0.00    +0.023 A 
ATOM     26  C   UNL     1       1.431   5.552  -0.362  0.00  0.00    +0.037 A 
ENDBRANCH  16  26
ENDBRANCH   1  17
BRANCH   5  27
ATOM     27  C   UNL     1       4.112  -0.399   0.151  0.00  0.00    +0.098 C 
ATOM     28  N   UNL     1       5.155  -0.769   0.406  0.00  0.00    -0.191 NA
ENDBRANCH   5  27
BRANCH   4  29
ATOM     29  S   UNL     1       2.022  -2.470   0.373  0.00  0.00    -0.101 S 
BRANCH  29  30
ATOM     30  C   UNL     1       0.327  -3.101   0.290  0.00  0.00    +0.155 C 
BRANCH  30  31
ATOM     31  C   UNL     1       0.316  -4.560   0.667  0.00  0.00    +0.173 C 
ATOM     32  O   UNL     1       1.351  -5.118   0.962  0.00  0.00    -0.291 OA
BRANCH  31  33
ATOM     33  C   UNL     1      -0.951  -5.308   0.676  0.00  0.00    +0.018 A 
ATOM     34  C   UNL     1      -2.148  -4.667   0.341  0.00  0.00    +0.011 A 
ATOM     35  C   UNL     1      -3.331  -5.376   0.347  0.00  0.00    +0.001 A 
ATOM     36  C   UNL     1      -3.337  -6.716   0.693  0.00  0.00    +0.000 A 
ATOM     37  C   UNL     1      -2.157  -7.356   1.031  0.00  0.00    +0.001 A 
ATOM     38  C   UNL     1      -0.966  -6.662   1.024  0.00  0.00    +0.011 A 
ENDBRANCH  31  33
ENDBRANCH  30  31
ENDBRANCH  29  30
ENDBRANCH   4  29
TORSDOF 8
