REMARK  Name = ZINC00893375
REMARK  6 active torsions:
REMARK  status: ('A' for Active; 'I' for Inactive)
REMARK    1  A    between atoms: C_1  and  C_2
REMARK    2  A    between atoms: C_2  and  C_3
REMARK    3  A    between atoms: C_10  and  C_15
REMARK    4  A    between atoms: C_15  and  C_17
REMARK    5  A    between atoms: C_15  and  N_60
REMARK    6  A    between atoms: N_21  and  C_22
REMARK                            x       y       z     vdW  Elec       q    Type
REMARK                         _______ _______ _______ _____ _____    ______ ____
ROOT
ATOM      1  C   UNL     1       3.512   0.638  -0.029  0.00  0.00    +0.039 C 
ENDROOT
BRANCH   1   9
ATOM      2  C   UNL     1       6.273   1.320  -5.524  0.00  0.00    -0.047 A 
ATOM      3  C   UNL     1       5.996   0.045  -5.997  0.00  0.00    +0.005 A 
ATOM      4  C   UNL     1       5.298  -0.856  -5.222  0.00  0.00    +0.026 A 
ATOM      5  C   UNL     1       4.864  -0.485  -3.953  0.00  0.00    +0.049 A 
ATOM      6  C   UNL     1       5.147   0.809  -3.477  0.00  0.00    -0.001 A 
ATOM      7  C   UNL     1       5.858   1.706  -4.281  0.00  0.00    +0.013 A 
ATOM      8  C   UNL     1       4.681   1.192  -2.143  0.00  0.00    +0.017 A 
ATOM      9  C   UNL     1       4.001   0.278  -1.408  0.00  0.00    +0.011 A 
ATOM     10  C   UNL     1       3.744  -1.007  -1.932  0.00  0.00    +0.251 A 
ATOM     11  O   UNL     1       3.126  -1.812  -1.256  0.00  0.00    -0.268 OA
ATOM     12  N   UNL     1       4.163  -1.366  -3.158  0.00  0.00    -0.322 N 
ATOM     13  H   UNL     1       3.963  -2.285  -3.497  0.00  0.00    +0.169 HD
BRANCH   2  15
ATOM     14  C   UNL     1       8.537   2.138  -6.119  0.00  0.00    +0.009 C 
ATOM     15  C   UNL     1       7.039   2.288  -6.389  0.00  0.00    +0.032 C 
ENDBRANCH   2  15
ENDBRANCH   1   9
BRANCH   1  20
ATOM     16  C   UNL     1       5.495  -0.414   0.913  0.00  0.00    -0.077 C 
ATOM     17  C   UNL     1       5.847  -1.047   2.283  0.00  0.00    -0.020 C 
ATOM     18  C   UNL     1       4.806  -0.414   3.234  0.00  0.00    -0.020 C 
ATOM     19  C   UNL     1       3.651   0.041   2.322  0.00  0.00    -0.077 C 
ATOM     20  N   UNL     1       4.026  -0.353   0.963  0.00  0.00    +0.389 N 
ATOM     21  H   UNL     1       3.633  -1.278   0.750  0.00  0.00    -0.080 HD
ENDBRANCH   1  20
BRANCH   1  22
ATOM     22  C   UNL     1       2.005   0.637  -0.014  0.00  0.00    +0.143 A 
ATOM     23  N   UNL     1       1.223  -0.415  -0.012  0.00  0.00    -0.115 NA
ATOM     24  N   UNL     1       0.002  -0.004   0.002  0.00  0.00    -0.023 NA
ATOM     25  N   UNL     1      -0.015   1.283   0.009  0.00  0.00    -0.044 NA
ATOM     26  N   UNL     1       1.200   1.716  -0.000  0.00  0.00    -0.227 N 
BRANCH  26  27
ATOM     27  C   UNL     1       1.625   3.118   0.003  0.00  0.00    +0.111 C 
ATOM     28  C   UNL     1       1.095   3.808   1.261  0.00  0.00    +0.027 C 
ATOM     29  C   UNL     1       1.538   5.273   1.264  0.00  0.00    +0.002 C 
ATOM     30  C   UNL     1       0.984   5.976   0.024  0.00  0.00    +0.000 C 
ATOM     31  C   UNL     1       1.514   5.286  -1.234  0.00  0.00    +0.002 C 
ATOM     32  C   UNL     1       1.070   3.821  -1.237  0.00  0.00    +0.027 C 
ENDBRANCH  26  27
ENDBRANCH   1  22
TORSDOF 5
