REMARK  Name = ZINC23357817
REMARK  11 active torsions:
REMARK  status: ('A' for Active; 'I' for Inactive)
REMARK    1  A    between atoms: C_1  and  C_2
REMARK    2  A    between atoms: C_2  and  C_3
REMARK    3  A    between atoms: C_7  and  C_29
REMARK    4  A    between atoms: C_8  and  N_9
REMARK    5  A    between atoms: C_10  and  C_12
REMARK    6  A    between atoms: C_12  and  C_14
REMARK    7  A    between atoms: C_12  and  S_15
REMARK    8  A    between atoms: S_15  and  C_16
REMARK    9  A    between atoms: C_19  and  C_22
REMARK   10  A    between atoms: N_20  and  N_21
REMARK   11  A    between atoms: C_25  and  C_28
REMARK                            x       y       z     vdW  Elec       q    Type
REMARK                         _______ _______ _______ _____ _____    ______ ____
ROOT
ATOM      1  S   UNL     1       5.468   4.995  -1.763  0.00  0.00    -0.072 S 
ENDROOT
BRANCH   1   2
ATOM      2  C   UNL     1       7.190   5.254  -2.029  0.00  0.00    +0.209 A 
ATOM      3  N   UNL     1       8.169   4.492  -1.593  0.00  0.00    -0.121 NA
ATOM      4  N   UNL     1       9.301   4.972  -1.968  0.00  0.00    -0.127 NA
ATOM      5  C   UNL     1       9.114   6.068  -2.666  0.00  0.00    +0.182 A 
ATOM      6  N   UNL     1       7.756   6.279  -2.731  0.00  0.00    -0.224 N 
BRANCH   5   7
ATOM      7  C   UNL     1      10.165   6.913  -3.273  0.00  0.00    +0.021 A 
ATOM      8  C   UNL     1       9.858   8.198  -3.721  0.00  0.00    +0.012 A 
ATOM      9  C   UNL     1      10.845   8.984  -4.282  0.00  0.00    +0.004 A 
ATOM     10  C   UNL     1      12.133   8.496  -4.409  0.00  0.00    -0.050 A 
ATOM     11  C   UNL     1      12.442   7.220  -3.972  0.00  0.00    +0.004 A 
ATOM     12  C   UNL     1      11.466   6.426  -3.405  0.00  0.00    +0.012 A 
ATOM     13  C   UNL     1      13.204   9.357  -5.027  0.00  0.00    +0.044 C 
ENDBRANCH   5   7
BRANCH   6  14
ATOM     14  N   UNL     1       7.109   7.302  -3.364  0.00  0.00    -0.295 N 
ATOM     15  H   UNL     1       7.687   8.070  -3.899  0.00  0.00    +0.163 HD
ATOM     16  H   UNL     1       6.011   7.358  -3.338  0.00  0.00    +0.163 HD
ENDBRANCH   6  14
ENDBRANCH   1   2
BRANCH   1  17
ATOM     17  C   UNL     1       5.526   3.475  -0.782  0.00  0.00    +0.137 C 
ATOM     18  C   UNL     1       6.214   3.756   0.555  0.00  0.00    +0.029 C 
BRANCH  17  20
ATOM     19  N   UNL     1       3.910   1.698  -0.190  0.00  0.00    -0.284 N 
ATOM     20  C   UNL     1       4.123   2.984  -0.532  0.00  0.00    +0.230 C 
ATOM     21  O   UNL     1       3.186   3.747  -0.638  0.00  0.00    -0.274 OA
ATOM     22  H   UNL     1       4.763   1.028  -0.012  0.00  0.00    +0.155 HD
BRANCH  19  28
ATOM     23  C   UNL     1       2.196   0.618   1.125  0.00  0.00    -0.026 A 
ATOM     24  C   UNL     1       0.905   0.144   1.250  0.00  0.00    +0.005 A 
ATOM     25  C   UNL     1       0.017   0.264   0.197  0.00  0.00    +0.001 A 
ATOM     26  C   UNL     1       0.419   0.861  -0.985  0.00  0.00    +0.005 A 
ATOM     27  C   UNL     1       1.708   1.337  -1.116  0.00  0.00    -0.029 A 
ATOM     28  C   UNL     1       2.602   1.217  -0.060  0.00  0.00    +0.040 A 
ATOM     29  C   UNL     1       2.145   1.986  -2.404  0.00  0.00    +0.045 C 
BRANCH  23  31
ATOM     30  C   UNL     1       3.158   1.777   3.095  0.00  0.00    +0.009 C 
ATOM     31  C   UNL     1       3.163   0.486   2.274  0.00  0.00    +0.033 C 
ENDBRANCH  23  31
ENDBRANCH  19  28
ENDBRANCH  17  20
ENDBRANCH   1  17
TORSDOF 7
