REMARK  Name = ZINC12833045
REMARK  10 active torsions:
REMARK  status: ('A' for Active; 'I' for Inactive)
REMARK    1  A    between atoms: C_1  and  C_2
REMARK    2  A    between atoms: C_4  and  C_34
REMARK    3  A    between atoms: C_9  and  C_14
REMARK    4  A    between atoms: C_14  and  N_60
REMARK    5  A    between atoms: C_15  and  C_16
REMARK    6  A    between atoms: C_15  and  N_60
REMARK    7  A    between atoms: C_21  and  C_22
REMARK    8  A    between atoms: C_21  and  N_60
REMARK    9  A    between atoms: N_26  and  C_27
REMARK   10  A    between atoms: C_27  and  C_28
REMARK                            x       y       z     vdW  Elec       q    Type
REMARK                         _______ _______ _______ _____ _____    ______ ____
ROOT
ATOM      1  N   UNL     1      -5.379   1.018   1.457  0.00  0.00    +0.392 N 
ATOM      2  H   UNL     1      -5.362   1.977   1.824  0.00  0.00    -0.080 HD
ENDROOT
BRANCH   1   3
ATOM      3  C   UNL     1      -4.995   1.043   0.030  0.00  0.00    -0.036 C 
BRANCH   3  12
ATOM      4  C   UNL     1      -5.116   8.147  -2.235  0.00  0.00    +0.044 C 
ATOM      5  C   UNL     1      -5.776   6.799  -2.102  0.00  0.00    -0.050 A 
ATOM      6  C   UNL     1      -7.055   6.606  -2.606  0.00  0.00    +0.008 A 
ATOM      7  C   UNL     1      -7.677   5.381  -2.496  0.00  0.00    -0.026 A 
ATOM      8  C   UNL     1      -7.019   4.326  -1.872  0.00  0.00    +0.052 A 
ATOM      9  C   UNL     1      -5.721   4.524  -1.366  0.00  0.00    -0.001 A 
ATOM     10  C   UNL     1      -5.111   5.777  -1.485  0.00  0.00    +0.013 A 
ATOM     11  C   UNL     1      -5.034   3.406  -0.717  0.00  0.00    +0.017 A 
ATOM     12  C   UNL     1      -5.674   2.214  -0.632  0.00  0.00    +0.001 A 
ATOM     13  C   UNL     1      -6.974   2.066  -1.161  0.00  0.00    +0.251 A 
ATOM     14  O   UNL     1      -7.532   0.986  -1.073  0.00  0.00    -0.268 OA
ATOM     15  N   UNL     1      -7.618   3.090  -1.748  0.00  0.00    -0.322 N 
ATOM     16  H   UNL     1      -8.511   2.955  -2.101  0.00  0.00    +0.169 HD
ATOM     17  C   UNL     1      -9.066   5.186  -3.048  0.00  0.00    +0.046 C 
ENDBRANCH   3  12
ENDBRANCH   1   3
BRANCH   1  18
ATOM     18  C   UNL     1      -4.420   0.194   2.224  0.00  0.00    -0.002 C 
BRANCH  18  19
ATOM     19  C   UNL     1      -3.160   0.993   2.437  0.00  0.00    +0.089 A 
ATOM     20  C   UNL     1      -2.952   1.887   3.420  0.00  0.00    +0.042 A 
ATOM     21  C   UNL     1      -1.645   2.395   3.243  0.00  0.00    +0.041 A 
ATOM     22  C   UNL     1      -1.131   1.780   2.162  0.00  0.00    +0.195 A 
ATOM     23  O   UNL     1      -2.051   0.928   1.681  0.00  0.00    -0.470 OA
ENDBRANCH  18  19
ENDBRANCH   1  18
BRANCH   1  24
ATOM     24  C   UNL     1      -6.744   0.471   1.604  0.00  0.00    +0.001 C 
BRANCH  24  25
ATOM     25  C   UNL     1      -7.192   0.661   3.031  0.00  0.00    +0.135 A 
ATOM     26  N   UNL     1      -7.042  -0.189   4.018  0.00  0.00    -0.115 NA
ATOM     27  N   UNL     1      -7.553   0.337   5.077  0.00  0.00    -0.023 NA
ATOM     28  N   UNL     1      -8.033   1.497   4.790  0.00  0.00    -0.044 NA
ATOM     29  N   UNL     1      -7.830   1.732   3.537  0.00  0.00    -0.227 N 
BRANCH  29  30
ATOM     30  C   UNL     1      -8.220   2.939   2.805  0.00  0.00    +0.182 C 
BRANCH  30  31
ATOM     31  C   UNL     1      -9.605   2.758   2.238  0.00  0.00    -0.026 A 
ATOM     32  C   UNL     1      -9.770   2.224   0.974  0.00  0.00    +0.005 A 
ATOM     33  C   UNL     1     -11.040   2.053   0.456  0.00  0.00    +0.000 A 
ATOM     34  C   UNL     1     -12.145   2.426   1.198  0.00  0.00    +0.000 A 
ATOM     35  C   UNL     1     -11.979   2.965   2.460  0.00  0.00    +0.000 A 
ATOM     36  C   UNL     1     -10.710   3.131   2.980  0.00  0.00    +0.005 A 
ENDBRANCH  30  31
ENDBRANCH  29  30
ENDBRANCH  24  25
ENDBRANCH   1  24
TORSDOF 8
