REMARK  Name = ZINC01324627
REMARK  9 active torsions:
REMARK  status: ('A' for Active; 'I' for Inactive)
REMARK    1  A    between atoms: C_1  and  C_2
REMARK    2  A    between atoms: C_5  and  C_8
REMARK    3  A    between atoms: C_8  and  N_9
REMARK    4  A    between atoms: C_14  and  C_16
REMARK    5  A    between atoms: C_22  and  C_24
REMARK    6  A    between atoms: C_27  and  C_30
REMARK    7  A    between atoms: C_30  and  C_31
REMARK    8  A    between atoms: C_30  and  C_32
REMARK    9  A    between atoms: C_30  and  C_33
REMARK                            x       y       z     vdW  Elec       q    Type
REMARK                         _______ _______ _______ _____ _____    ______ ____
ROOT
ATOM      1  N   UNL     1      -0.371  -4.028   0.070  0.00  0.00    -0.222 N 
ATOM      2  C   UNL     1       0.663  -4.286  -0.778  0.00  0.00    +0.186 A 
ATOM      3  C   UNL     1       1.776  -4.543   0.033  0.00  0.00    +0.195 A 
ATOM      4  C   UNL     1       3.045  -4.855  -0.627  0.00  0.00    +0.281 A 
ATOM      5  N   UNL     1       3.060  -4.875  -1.980  0.00  0.00    -0.309 N 
ATOM      6  C   UNL     1       1.929  -4.614  -2.682  0.00  0.00    +0.115 A 
ATOM      7  N   UNL     1       0.793  -4.335  -2.112  0.00  0.00    -0.213 NA
ATOM      8  O   UNL     1       4.052  -5.088   0.018  0.00  0.00    -0.265 OA
ATOM      9  N   UNL     1       1.391  -4.434   1.313  0.00  0.00    -0.122 NA
ATOM     10  N   UNL     1       0.142  -4.128   1.373  0.00  0.00    -0.063 NA
ATOM     11  H   UNL     1       3.884  -5.078  -2.451  0.00  0.00    +0.170 HD
ENDROOT
BRANCH   6  12
ATOM     12  C   UNL     1       1.991  -4.647  -4.187  0.00  0.00    +0.058 C 
ATOM     13  C   UNL     1       2.470  -3.290  -4.707  0.00  0.00    +0.030 C 
ATOM     14  C   UNL     1       2.565  -3.338  -6.236  0.00  0.00    +0.109 C 
ATOM     15  N   UNL     1       1.269  -3.768  -6.777  0.00  0.00    -0.297 N 
ATOM     16  C   UNL     1       0.673  -5.015  -6.277  0.00  0.00    +0.109 C 
ATOM     17  C   UNL     1       0.600  -4.948  -4.748  0.00  0.00    +0.030 C 
ATOM     18  C   UNL     1       0.638  -3.033  -7.713  0.00  0.00    +0.247 C 
ATOM     19  O   UNL     1      -0.400  -3.434  -8.203  0.00  0.00    -0.270 OA
BRANCH  18  20
ATOM     20  C   UNL     1       1.208  -1.739  -8.145  0.00  0.00    +0.037 A 
ATOM     21  C   UNL     1       2.545  -1.658  -8.536  0.00  0.00    +0.013 A 
ATOM     22  C   UNL     1       3.070  -0.447  -8.939  0.00  0.00    +0.005 A 
ATOM     23  C   UNL     1       2.275   0.684  -8.955  0.00  0.00    -0.042 A 
ATOM     24  C   UNL     1       0.948   0.611  -8.568  0.00  0.00    +0.005 A 
ATOM     25  C   UNL     1       0.409  -0.595  -8.169  0.00  0.00    +0.013 A 
BRANCH  23  26
ATOM     26  C   UNL     1       2.856   2.003  -9.395  0.00  0.00    -0.013 C 
ATOM     27  C   UNL     1       3.360   1.883 -10.835  0.00  0.00    +0.015 C 
ATOM     28  C   UNL     1       1.777   3.086  -9.322  0.00  0.00    +0.015 C 
ATOM     29  C   UNL     1       4.019   2.380  -8.476  0.00  0.00    +0.015 C 
ENDBRANCH  23  26
ENDBRANCH  18  20
ENDBRANCH   6  12
BRANCH   1  30
ATOM     30  C   UNL     1      -1.750  -3.703  -0.304  0.00  0.00    +0.182 C 
BRANCH  30  35
ATOM     31  C   UNL     1      -2.290   2.021  -0.891  0.00  0.00    +0.044 C 
ATOM     32  C   UNL     1      -2.149   0.528  -0.738  0.00  0.00    -0.050 A 
ATOM     33  C   UNL     1      -1.790  -0.247  -1.825  0.00  0.00    +0.004 A 
ATOM     34  C   UNL     1      -1.661  -1.616  -1.684  0.00  0.00    +0.006 A 
ATOM     35  C   UNL     1      -1.890  -2.210  -0.457  0.00  0.00    -0.026 A 
ATOM     36  C   UNL     1      -2.247  -1.434   0.630  0.00  0.00    +0.006 A 
ATOM     37  C   UNL     1      -2.372  -0.065   0.491  0.00  0.00    +0.004 A 
ENDBRANCH  30  35
ENDBRANCH   1  30
TORSDOF 5
