REMARK  Name = ZINC16034514
REMARK  8 active torsions:
REMARK  status: ('A' for Active; 'I' for Inactive)
REMARK    1  A    between atoms: C_4  and  C_7
REMARK    2  A    between atoms: C_7  and  N_8
REMARK    3  A    between atoms: C_15  and  C_27
REMARK    4  A    between atoms: C_17  and  C_23
REMARK    5  A    between atoms: C_17  and  C_25
REMARK    6  A    between atoms: C_18  and  N_22
REMARK    7  A    between atoms: C_19  and  C_20
REMARK    8  A    between atoms: C_32  and  N_33
REMARK                            x       y       z     vdW  Elec       q    Type
REMARK                         _______ _______ _______ _____ _____    ______ ____
ROOT
ATOM      1  N   UNL     1       1.787   0.573  -1.303  0.00  0.00    -0.294 NA
ATOM      2  C   UNL     1       0.504  -0.142  -1.423  0.00  0.00    +0.112 C 
ATOM      3  C   UNL     1       0.684  -1.507  -0.806  0.00  0.00    -0.006 C 
ATOM      4  C   UNL     1       1.851  -2.118  -0.885  0.00  0.00    -0.026 C 
ATOM      5  C   UNL     1       3.028  -1.539  -1.618  0.00  0.00    +0.044 C 
ATOM      6  C   UNL     1       2.823  -0.114  -2.079  0.00  0.00    +0.094 C 
ATOM      7  C   UNL     1       4.261  -1.683  -0.726  0.00  0.00    +0.070 C 
ATOM      8  C   UNL     1       4.537  -3.170  -0.498  0.00  0.00    +0.188 C 
ATOM      9  C   UNL     1       3.309  -3.901  -0.046  0.00  0.00    +0.054 C 
ATOM     10  C   UNL     1       2.047  -3.434  -0.228  0.00  0.00    +0.074 C 
ENDROOT
BRANCH   7  11
ATOM     11  C   UNL     1       4.009  -1.009   0.598  0.00  0.00    -0.011 A 
ATOM     12  C   UNL     1       3.051  -1.513   1.459  0.00  0.00    +0.007 A 
ATOM     13  C   UNL     1       2.823  -0.898   2.675  0.00  0.00    +0.020 A 
ATOM     14  C   UNL     1       3.545   0.229   3.027  0.00  0.00    +0.043 A 
ATOM     15  C   UNL     1       4.498   0.736   2.163  0.00  0.00    +0.053 A 
ATOM     16  C   UNL     1       4.730   0.117   0.949  0.00  0.00    +0.131 A 
ATOM     17 CL   UNL     1       3.253   1.006   4.551  0.00  0.00    -0.083 Cl
BRANCH  16  18
ATOM     18  N   UNL     1       5.751   0.659   0.024  0.00  0.00    +0.057 N 
ATOM     19  O   UNL     1       6.798   1.100   0.464  0.00  0.00    -0.126 OA
ATOM     20  O   UNL     1       5.543   0.665  -1.176  0.00  0.00    -0.126 OA
ENDBRANCH  16  18
ENDBRANCH   7  11
BRANCH   9  21
ATOM     21  N   UNL     1       3.468  -5.104   0.582  0.00  0.00    -0.358 N 
ATOM     22  H   UNL     1       2.587  -5.666   0.926  0.00  0.00    +0.142 HD
ATOM     23  H   UNL     1       4.477  -5.511   0.745  0.00  0.00    +0.142 HD
ENDBRANCH   9  21
BRANCH  10  24
ATOM     24  C   UNL     1       0.920  -4.201   0.209  0.00  0.00    +0.101 C 
ATOM     25  N   UNL     1       0.025  -4.810   0.555  0.00  0.00    -0.191 NA
ENDBRANCH  10  24
BRANCH   8  26
ATOM     26  C   UNL     1       5.584  -3.313   0.526  0.00  0.00    +0.091 C 
ATOM     27  N   UNL     1       6.392  -3.423   1.317  0.00  0.00    -0.194 NA
ENDBRANCH   8  26
BRANCH   8  28
ATOM     28  C   UNL     1       5.014  -3.767  -1.756  0.00  0.00    +0.091 C 
ATOM     29  N   UNL     1       5.383  -4.228  -2.727  0.00  0.00    -0.194 NA
ENDBRANCH   8  28
BRANCH   1  30
ATOM     30  C   UNL     1       1.652   1.972  -1.728  0.00  0.00    +0.120 C 
BRANCH  30  34
ATOM     31  C   UNL     1      -0.920   4.043   0.982  0.00  0.00    +0.000 A 
ATOM     32  C   UNL     1       0.442   4.003   1.215  0.00  0.00    +0.000 A 
ATOM     33  C   UNL     1       1.274   3.333   0.338  0.00  0.00    +0.005 A 
ATOM     34  C   UNL     1       0.745   2.703  -0.772  0.00  0.00    -0.033 A 
ATOM     35  C   UNL     1      -0.617   2.747  -1.008  0.00  0.00    +0.005 A 
ATOM     36  C   UNL     1      -1.450   3.413  -0.129  0.00  0.00    +0.000 A 
ENDBRANCH  30  34
ENDBRANCH   1  30
TORSDOF 8
