REMARK  Name = ZINC13638013
REMARK  6 active torsions:
REMARK  status: ('A' for Active; 'I' for Inactive)
REMARK    1  A    between atoms: C_3  and  O_34
REMARK    2  A    between atoms: C_6  and  C_7
REMARK    3  A    between atoms: C_18  and  S_23
REMARK    4  A    between atoms: S_23  and  N_26
REMARK    5  A    between atoms: N_26  and  C_27
REMARK    6  A    between atoms: C_27  and  C_28
REMARK                            x       y       z     vdW  Elec       q    Type
REMARK                         _______ _______ _______ _____ _____    ______ ____
ROOT
ATOM      1  C   UNL     1      -0.013   1.086   0.008  0.00  0.00    +0.105 C 
ATOM      2  C   UNL     1       1.495   1.300   0.165  0.00  0.00    +0.029 C 
ATOM      3  C   UNL     1       1.891   0.795   1.583  0.00  0.00    +0.033 C 
ATOM      4  C   UNL     1       1.548   1.968   2.482  0.00  0.00    -0.030 C 
ATOM      5  C   UNL     1       1.501   3.079   1.788  0.00  0.00    -0.023 C 
ATOM      6  C   UNL     1       1.799   2.801   0.334  0.00  0.00    +0.049 C 
ATOM      7  C   UNL     1       0.980   3.668  -0.567  0.00  0.00    -0.018 A 
ATOM      8  C   UNL     1       1.324   5.007  -0.698  0.00  0.00    +0.034 A 
ATOM      9  C   UNL     1       0.595   5.842  -1.520  0.00  0.00    +0.106 A 
ATOM     10  C   UNL     1      -0.490   5.353  -2.225  0.00  0.00    +0.030 A 
ATOM     11  C   UNL     1      -0.842   4.024  -2.103  0.00  0.00    +0.025 A 
ATOM     12  C   UNL     1      -0.109   3.183  -1.275  0.00  0.00    +0.031 A 
ATOM     13  N   UNL     1      -0.481   1.839  -1.160  0.00  0.00    -0.336 N 
ATOM     14  H   UNL     1      -1.034   1.417  -1.835  0.00  0.00    +0.147 HD
ENDROOT
BRANCH   1  20
ATOM     15  C   UNL     1      -0.956   0.706   2.294  0.00  0.00    +0.009 A 
ATOM     16  C   UNL     1      -1.602   1.152   3.431  0.00  0.00    +0.046 A 
ATOM     17  C   UNL     1      -2.026   2.470   3.514  0.00  0.00    +0.117 A 
ATOM     18  C   UNL     1      -1.796   3.338   2.457  0.00  0.00    +0.046 A 
ATOM     19  C   UNL     1      -1.145   2.889   1.324  0.00  0.00    +0.009 A 
ATOM     20  C   UNL     1      -0.723   1.574   1.244  0.00  0.00    -0.027 A 
BRANCH  17  21
ATOM     21  O   UNL     1      -2.666   2.911   4.629  0.00  0.00    -0.507 OA
ATOM     22  H   UNL     1      -3.627   2.811   4.596  0.00  0.00    +0.292 HD
ENDBRANCH  17  21
ENDBRANCH   1  20
BRANCH   9  23
ATOM     23  S   UNL     1       1.047   7.538  -1.671  0.00  0.00    +0.058 S 
ATOM     24  O   UNL     1       2.425   7.622  -1.335  0.00  0.00    -0.153 OA
ATOM     25  O   UNL     1       0.540   7.984  -2.921  0.00  0.00    -0.153 OA
BRANCH  23  26
ATOM     26  N   UNL     1       0.223   8.371  -0.501  0.00  0.00    -0.187 NA
ATOM     27  H   UNL     1      -0.445   9.028  -0.753  0.00  0.00    +0.148 HD
BRANCH  26  28
ATOM     28  C   UNL     1       0.501   8.116   0.914  0.00  0.00    +0.137 C 
BRANCH  28  29
ATOM     29  C   UNL     1      -0.093   9.242   1.762  0.00  0.00    +0.134 C 
ATOM     30  C   UNL     1       0.295   9.060   3.246  0.00  0.00    +0.035 C 
ATOM     31  C   UNL     1      -0.963   9.510   4.021  0.00  0.00    +0.031 C 
ATOM     32  C   UNL     1      -1.963   9.910   2.914  0.00  0.00    +0.160 C 
ATOM     33  O   UNL     1      -1.536   9.174   1.747  0.00  0.00    -0.375 OA
ENDBRANCH  28  29
ENDBRANCH  26  28
ENDBRANCH  23  26
ENDBRANCH   9  23
TORSDOF 6
