REMARK  Name = ZINC25512861
REMARK  4 active torsions:
REMARK  status: ('A' for Active; 'I' for Inactive)
REMARK    1  A    between atoms: C_1  and  C_2
REMARK    2  A    between atoms: C_3  and  N_9
REMARK    3  A    between atoms: C_4  and  C_8
REMARK    4  A    between atoms: N_5  and  C_7
REMARK                            x       y       z     vdW  Elec       q    Type
REMARK                         _______ _______ _______ _____ _____    ______ ____
ROOT
ATOM      1  N   UNL     1       2.552  -0.194  -0.098  0.00  0.00    -0.296 N 
ATOM      2  C   UNL     1       2.193   0.554   1.002  0.00  0.00    +0.134 A 
ATOM      3  C   UNL     1       0.873   1.047   1.147  0.00  0.00    +0.041 A 
ATOM      4  C   UNL     1      -0.121   0.803   0.192  0.00  0.00    +0.015 A 
ATOM      5  C   UNL     1      -1.374   1.307   0.382  0.00  0.00    +0.021 A 
ATOM      6  C   UNL     1      -1.679   2.053   1.519  0.00  0.00    +0.043 A 
ATOM      7  C   UNL     1      -0.732   2.308   2.467  0.00  0.00    +0.048 A 
ATOM      8  C   UNL     1       0.566   1.809   2.300  0.00  0.00    +0.077 A 
ATOM      9  N   UNL     1       1.534   2.031   3.202  0.00  0.00    -0.235 NA
ATOM     10  C   UNL     1       2.740   1.550   3.016  0.00  0.00    +0.223 A 
ATOM     11  N   UNL     1       3.074   0.833   1.954  0.00  0.00    -0.220 NA
ATOM     12 CL   UNL     1      -3.288   2.673   1.728  0.00  0.00    -0.083 Cl
ATOM     13  H   UNL     1       1.839  -0.337  -0.923  0.00  0.00    +0.154 HD
ENDROOT
BRANCH   1  16
ATOM     14  C   UNL     1       5.201   1.282   0.615  0.00  0.00    +0.069 C 
ATOM     15  C   UNL     1       5.044  -0.142   0.147  0.00  0.00    +0.081 A 
ATOM     16  C   UNL     1       3.832  -0.775  -0.166  0.00  0.00    +0.076 A 
ATOM     17  C   UNL     1       4.113  -2.050  -0.540  0.00  0.00    +0.057 A 
ATOM     18  N   UNL     1       5.461  -2.209  -0.473  0.00  0.00    -0.270 N 
ATOM     19  N   UNL     1       6.016  -0.999  -0.037  0.00  0.00    -0.175 NA
ATOM     20  C   UNL     1       6.201  -3.431  -0.794  0.00  0.00    +0.172 C 
ATOM     21  C   UNL     1       3.112  -3.096  -0.956  0.00  0.00    +0.067 C 
ENDBRANCH   1  16
TORSDOF 1
