REMARK  Name = ZINC19755042
REMARK  3 active torsions:
REMARK  status: ('A' for Active; 'I' for Inactive)
REMARK    1  A    between atoms: C_1  and  C_2
REMARK    2  A    between atoms: C_9  and  C_13
REMARK    3  A    between atoms: C_10  and  C_11
REMARK                            x       y       z     vdW  Elec       q    Type
REMARK                         _______ _______ _______ _____ _____    ______ ____
ROOT
ATOM      1  C   UNL     1      -2.625   1.660  -0.635  0.00  0.00    +0.044 C 
ATOM      2  C   UNL     1      -1.237   2.225  -0.477  0.00  0.00    -0.046 A 
ATOM      3  C   UNL     1      -1.024   3.607  -0.570  0.00  0.00    +0.021 A 
ATOM      4  C   UNL     1       0.224   4.112  -0.432  0.00  0.00    +0.093 A 
ATOM      5  N   UNL     1       1.282   3.291  -0.200  0.00  0.00    -0.297 N 
ATOM      6  C   UNL     1       1.108   1.940  -0.100  0.00  0.00    +0.139 A 
ATOM      7  C   UNL     1      -0.182   1.395  -0.239  0.00  0.00    +0.050 A 
ATOM      8  N   UNL     1       2.288   1.367   0.128  0.00  0.00    -0.227 NA
ATOM      9  C   UNL     1       3.239   2.294   0.181  0.00  0.00    +0.100 A 
ATOM     10  C   UNL     1       2.633   3.542  -0.024  0.00  0.00    +0.113 A 
ENDROOT
BRANCH   9  11
ATOM     11  C   UNL     1       4.681   2.052   0.416  0.00  0.00    +0.005 A 
ATOM     12  C   UNL     1       5.387   2.856   1.312  0.00  0.00    +0.014 A 
ATOM     13  C   UNL     1       6.731   2.632   1.532  0.00  0.00    +0.048 A 
ATOM     14  C   UNL     1       7.382   1.607   0.865  0.00  0.00    +0.142 A 
ATOM     15  C   UNL     1       6.681   0.799  -0.033  0.00  0.00    +0.076 A 
ATOM     16  C   UNL     1       5.334   1.016  -0.253  0.00  0.00    +0.037 A 
ATOM     17  N   UNL     1       7.357  -0.233  -0.700  0.00  0.00    -0.280 N 
ATOM     18  C   UNL     1       8.564  -0.628  -0.239  0.00  0.00    +0.255 C 
ATOM     19  O   UNL     1       9.181  -1.498  -0.817  0.00  0.00    -0.272 OA
ATOM     20  C   UNL     1       9.141   0.016   0.995  0.00  0.00    +0.325 C 
ATOM     21  O   UNL     1       8.705   1.375   1.077  0.00  0.00    -0.481 OA
ATOM     22  H   UNL     1       6.904  -0.706  -1.583  0.00  0.00    +0.155 HD
ENDBRANCH   9  11
BRANCH  10  23
ATOM     23  C   UNL     1       3.267   4.792  -0.047  0.00  0.00    +0.279 C 
ATOM     24  O   UNL     1       4.479   4.860   0.019  0.00  0.00    -0.294 OA
ENDBRANCH  10  23
TORSDOF 2
