REMARK  Name = ZINC65374274
REMARK  6 active torsions:
REMARK  status: ('A' for Active; 'I' for Inactive)
REMARK    1  A    between atoms: C_1  and  C_2
REMARK    2  A    between atoms: C_2  and  C_4
REMARK    3  A    between atoms: C_2  and  N_15
REMARK    4  A    between atoms: C_4  and  C_5
REMARK    5  A    between atoms: C_5  and  C_6
REMARK    6  A    between atoms: C_24  and  C_26
REMARK                            x       y       z     vdW  Elec       q    Type
REMARK                         _______ _______ _______ _____ _____    ______ ____
ROOT
ATOM      1  N   UNL     1       0.993  -0.289   0.827  0.00  0.00    +0.383 N 
ATOM      2  C   UNL     1       0.480   0.097   2.128  0.00  0.00    -0.077 C 
ATOM      3  C   UNL     1       1.013  -0.874   3.231  0.00  0.00    -0.002 C 
ATOM      4  C   UNL     1       2.385  -1.407   2.794  0.00  0.00    +0.104 C 
ATOM      5  N   UNL     1       3.255  -0.257   2.530  0.00  0.00    -0.224 NA
ATOM      6  C   UNL     1       3.453  -0.252   1.036  0.00  0.00    +0.084 C 
ATOM      7  C   UNL     1       2.233   0.401   0.478  0.00  0.00    -0.053 C 
ATOM      8  C   UNL     1       4.741   0.512   0.904  0.00  0.00    +0.023 C 
ATOM      9  C   UNL     1       5.329   0.442   2.115  0.00  0.00    +0.128 C 
ATOM     10  N   UNL     1       4.530  -0.320   2.990  0.00  0.00    -0.272 N 
ATOM     11  H   UNL     1       4.835  -0.801   3.776  0.00  0.00    +0.167 HD
ATOM     12  H   UNL     1       1.163  -1.283   0.827  0.00  0.00    -0.081 HD
ENDROOT
BRANCH   9  13
ATOM     13  C   UNL     1       6.613   1.069   2.469  0.00  0.00    +0.401 C 
ATOM     14  O   UNL     1       7.230   1.714   1.633  0.00  0.00    -0.239 OA
ATOM     15  O   UNL     1       7.062   0.946   3.601  0.00  0.00    -0.239 OA
ENDBRANCH   9  13
BRANCH   1  17
ATOM     16  C   UNL     1      -0.382   1.502  -0.122  0.00  0.00    -0.013 C 
ATOM     17  C   UNL     1      -0.021   0.017  -0.192  0.00  0.00    -0.071 C 
BRANCH  17  18
ATOM     18  C   UNL     1      -1.273  -0.824   0.066  0.00  0.00    -0.011 C 
BRANCH  18  19
ATOM     19  C   UNL     1      -0.925  -2.308  -0.064  0.00  0.00    +0.031 C 
BRANCH  19  20
ATOM     20  C   UNL     1      -2.172  -3.135   0.121  0.00  0.00    -0.042 C 
ATOM     21  C   UNL     1      -2.981  -3.615  -0.850  0.00  0.00    -0.001 A 
ATOM     22  C   UNL     1      -2.944  -3.516  -2.314  0.00  0.00    +0.010 A 
ATOM     23  C   UNL     1      -3.917  -4.116  -3.037  0.00  0.00    +0.001 A 
ATOM     24  C   UNL     1      -4.957  -4.828  -2.425  0.00  0.00    +0.002 A 
ATOM     25  C   UNL     1      -5.058  -4.964  -1.085  0.00  0.00    +0.026 A 
ATOM     26  C   UNL     1      -4.089  -4.374  -0.228  0.00  0.00    +0.043 A 
ATOM     27  N   UNL     1      -3.970  -4.362   1.077  0.00  0.00    -0.380 N 
ATOM     28  C   UNL     1      -2.768  -3.600   1.431  0.00  0.00    +0.144 C 
ATOM     29  H   UNL     1      -4.574  -4.790   1.705  0.00  0.00    +0.160 HD
ENDBRANCH  19  20
ENDBRANCH  18  19
ENDBRANCH  17  18
ENDBRANCH   1  17
TORSDOF 5
