REMARK  Name = ZINC09033772
REMARK  7 active torsions:
REMARK  status: ('A' for Active; 'I' for Inactive)
REMARK    1  A    between atoms: C_1  and  N_62
REMARK    2  A    between atoms: C_8  and  O_33
REMARK    3  A    between atoms: C_10  and  C_12
REMARK    4  A    between atoms: C_13  and  O_32
REMARK    5  A    between atoms: N_14  and  C_26
REMARK    6  A    between atoms: N_17  and  C_20
REMARK    7  A    between atoms: O_33  and  C_34
REMARK                            x       y       z     vdW  Elec       q    Type
REMARK                         _______ _______ _______ _____ _____    ______ ____
ROOT
ATOM      1  C   UNL     1       4.625   1.185   0.473  0.00  0.00    +0.068 A 
ATOM      2  C   UNL     1       3.584   1.810  -0.148  0.00  0.00    +0.208 A 
ATOM      3  N   UNL     1       2.549   1.060  -0.650  0.00  0.00    -0.232 N 
ATOM      4  C   UNL     1       2.562  -0.281  -0.538  0.00  0.00    +0.344 A 
ATOM      5  O   UNL     1       1.639  -0.929  -0.992  0.00  0.00    -0.245 OA
ATOM      6  N   UNL     1       3.583  -0.915   0.068  0.00  0.00    -0.228 N 
ATOM      7  C   UNL     1       4.616  -0.217   0.578  0.00  0.00    +0.267 A 
ATOM      8  O   UNL     1       5.538  -0.797   1.125  0.00  0.00    -0.267 OA
ENDROOT
BRANCH   1  18
ATOM      9  C   UNL     1       7.061   1.728  -0.993  0.00  0.00    -0.095 C 
ATOM     10  C   UNL     1       8.173   2.153   1.119  0.00  0.00    -0.073 C 
ATOM     11  C   UNL     1       8.297   1.593   2.536  0.00  0.00    +0.017 C 
ATOM     12  C   UNL     1       6.963   1.660   3.235  0.00  0.00    -0.040 A 
ATOM     13  C   UNL     1       6.935   1.534   4.616  0.00  0.00    +0.053 A 
ATOM     14  C   UNL     1       5.734   1.586   5.303  0.00  0.00    +0.170 A 
ATOM     15  C   UNL     1       4.546   1.766   4.601  0.00  0.00    +0.208 A 
ATOM     16  C   UNL     1       4.578   1.893   3.220  0.00  0.00    +0.167 A 
ATOM     17  C   UNL     1       5.789   1.840   2.536  0.00  0.00    -0.008 A 
ATOM     18  C   UNL     1       5.770   1.986   1.037  0.00  0.00    +0.007 C 
ATOM     19  O   UNL     1       3.511   1.782   5.492  0.00  0.00    -0.449 OA
ATOM     20  C   UNL     1       4.035   1.202   6.701  0.00  0.00    +0.467 C 
ATOM     21  O   UNL     1       5.445   1.489   6.633  0.00  0.00    -0.452 OA
ATOM     22  N   UNL     1       7.030   1.481   0.466  0.00  0.00    +0.386 N 
ATOM     23  H   UNL     1       7.093   0.470   0.634  0.00  0.00    -0.081 HD
BRANCH  16  24
ATOM     24  O   UNL     1       3.419   2.070   2.531  0.00  0.00    -0.491 OA
ATOM     25  C   UNL     1       2.987   3.416   2.321  0.00  0.00    +0.277 C 
ENDBRANCH  16  24
ENDBRANCH   1  18
BRANCH   6  26
ATOM     26  C   UNL     1       3.570  -2.313   0.169  0.00  0.00    +0.054 A 
ATOM     27  C   UNL     1       4.104  -3.089  -0.851  0.00  0.00    +0.026 A 
ATOM     28  C   UNL     1       4.095  -4.466  -0.746  0.00  0.00    +0.002 A 
ATOM     29  C   UNL     1       3.545  -5.072   0.369  0.00  0.00    +0.000 A 
ATOM     30  C   UNL     1       3.008  -4.302   1.385  0.00  0.00    +0.002 A 
ATOM     31  C   UNL     1       3.019  -2.925   1.288  0.00  0.00    +0.026 A 
ENDBRANCH   6  26
BRANCH   3  32
ATOM     32  C   UNL     1       1.474   1.694  -1.286  0.00  0.00    +0.054 A 
ATOM     33  C   UNL     1       0.391   2.143  -0.542  0.00  0.00    +0.026 A 
ATOM     34  C   UNL     1      -0.670   2.763  -1.173  0.00  0.00    +0.002 A 
ATOM     35  C   UNL     1      -0.649   2.947  -2.543  0.00  0.00    +0.000 A 
ATOM     36  C   UNL     1       0.428   2.501  -3.287  0.00  0.00    +0.002 A 
ATOM     37  C   UNL     1       1.489   1.876  -2.663  0.00  0.00    +0.026 A 
ENDBRANCH   3  32
BRANCH   2  38
ATOM     38  O   UNL     1       3.570   3.155  -0.266  0.00  0.00    -0.493 OA
ATOM     39  H   UNL     1       2.789   3.501  -0.719  0.00  0.00    +0.294 HD
ENDBRANCH   2  38
TORSDOF 5
