REMARK  Name = ZINC35871996
REMARK  4 active torsions:
REMARK  status: ('A' for Active; 'I' for Inactive)
REMARK    1  A    between atoms: C_6  and  C_7
REMARK    2  A    between atoms: C_12  and  C_30
REMARK    3  A    between atoms: N_19  and  C_21
REMARK    4  A    between atoms: C_21  and  C_22
REMARK                            x       y       z     vdW  Elec       q    Type
REMARK                         _______ _______ _______ _____ _____    ______ ____
ROOT
ATOM      1  C   UNL     1      -0.017   1.378   0.010  0.00  0.00    +0.014 A 
ATOM      2  C   UNL     1       1.169   2.085   0.002  0.00  0.00    +0.024 A 
ATOM      3  C   UNL     1       2.383   1.407  -0.013  0.00  0.00    +0.033 A 
ATOM      4  C   UNL     1       2.399   0.020  -0.024  0.00  0.00    -0.025 A 
ATOM      5  C   UNL     1       1.207  -0.681  -0.015  0.00  0.00    +0.017 A 
ATOM      6  C   UNL     1       0.002  -0.004   0.002  0.00  0.00    +0.055 A 
ATOM      7  C   UNL     1       3.702  -0.725  -0.049  0.00  0.00    +0.051 C 
ATOM      8  C   UNL     1       4.814   0.052   0.623  0.00  0.00    +0.098 C 
ATOM      9  C   UNL     1       4.869   1.510   0.259  0.00  0.00    +0.069 C 
ATOM     10  N   UNL     1       3.575   2.120  -0.016  0.00  0.00    -0.329 N 
ATOM     11  C   UNL     1       3.570   3.558  -0.355  0.00  0.00    +0.087 C 
ATOM     12  C   UNL     1       4.547   3.751  -1.524  0.00  0.00    -0.059 C 
ATOM     13  N   UNL     1       5.868   3.228  -1.158  0.00  0.00    +0.388 N 
ATOM     14  C   UNL     1       5.803   1.778  -0.922  0.00  0.00    -0.055 C 
ATOM     15  H   UNL     1       6.188   3.688  -0.319  0.00  0.00    -0.081 HD
ENDROOT
BRANCH   8  16
ATOM     16  C   UNL     1       4.639  -0.058   2.116  0.00  0.00    +0.221 C 
ATOM     17  O   UNL     1       4.478   0.942   2.782  0.00  0.00    -0.275 OA
ATOM     18  N   UNL     1       4.661  -1.268   2.710  0.00  0.00    -0.297 N 
ATOM     19  C   UNL     1       4.861  -2.495   1.922  0.00  0.00    +0.136 C 
ATOM     20  C   UNL     1       5.979  -3.313   2.578  0.00  0.00    +0.179 C 
ATOM     21  O   UNL     1       5.682  -3.490   3.965  0.00  0.00    -0.377 OA
ATOM     22  C   UNL     1       5.622  -2.272   4.711  0.00  0.00    +0.179 C 
ATOM     23  C   UNL     1       4.491  -1.400   4.165  0.00  0.00    +0.136 C 
ENDBRANCH   8  16
BRANCH   6  24
ATOM     24  C   UNL     1      -1.293  -0.774   0.012  0.00  0.00    +0.417 C 
ATOM     25  F   UNL     1      -2.368   0.122   0.028  0.00  0.00    -0.166 F 
ATOM     26  F   UNL     1      -1.370  -1.573  -1.134  0.00  0.00    -0.166 F 
ATOM     27  F   UNL     1      -1.345  -1.585   1.151  0.00  0.00    -0.166 F 
ENDBRANCH   6  24
BRANCH  13  28
ATOM     28  C   UNL     1       6.815   3.499  -2.248  0.00  0.00    +0.019 C 
BRANCH  28  29
ATOM     29  C   UNL     1       6.999   4.988  -2.395  0.00  0.00    +0.199 C 
ATOM     30  O   UNL     1       6.401   5.748  -1.664  0.00  0.00    -0.278 OA
ATOM     31  N   UNL     1       7.829   5.474  -3.340  0.00  0.00    -0.299 N 
ATOM     32  C   UNL     1       8.561   4.572  -4.242  0.00  0.00    +0.136 C 
ATOM     33  C   UNL     1       8.336   5.043  -5.684  0.00  0.00    +0.179 C 
ATOM     34  O   UNL     1       8.655   6.433  -5.780  0.00  0.00    -0.377 OA
ATOM     35  C   UNL     1       7.830   7.280  -4.976  0.00  0.00    +0.179 C 
ATOM     36  C   UNL     1       8.025   6.923  -3.502  0.00  0.00    +0.136 C 
ENDBRANCH  28  29
ENDBRANCH  13  28
TORSDOF 4
