REMARK  Name = ZINC10049287
REMARK  7 active torsions:
REMARK  status: ('A' for Active; 'I' for Inactive)
REMARK    1  A    between atoms: C_1  and  C_2
REMARK    2  A    between atoms: C_5  and  N_9
REMARK    3  A    between atoms: N_9  and  C_10
REMARK    4  A    between atoms: C_10  and  C_11
REMARK    5  A    between atoms: C_11  and  N_12
REMARK    6  A    between atoms: C_13  and  C_28
REMARK    7  A    between atoms: N_26  and  C_27
REMARK                            x       y       z     vdW  Elec       q    Type
REMARK                         _______ _______ _______ _____ _____    ______ ____
ROOT
ATOM      1  N   UNL     1       1.960   2.950  -0.001  0.00  0.00    -0.312 N 
ATOM      2  C   UNL     1       3.297   2.600  -0.016  0.00  0.00    +0.035 A 
ATOM      3  C   UNL     1       3.378   1.272  -0.024  0.00  0.00    +0.116 A 
ATOM      4  N   UNL     1       2.093   0.758  -0.014  0.00  0.00    -0.277 N 
ATOM      5  C   UNL     1       1.224   1.795   0.000  0.00  0.00    +0.218 A 
ATOM      6  N   UNL     1      -0.016   1.326   0.009  0.00  0.00    -0.193 NA
ATOM      7  C   UNL     1       0.002  -0.004   0.002  0.00  0.00    +0.170 A 
ATOM      8  C   UNL     1       1.337  -0.405  -0.013  0.00  0.00    +0.157 A 
ATOM      9  C   UNL     1       1.641  -1.776  -0.023  0.00  0.00    +0.280 A 
ATOM     10  O   UNL     1       2.801  -2.149  -0.036  0.00  0.00    -0.265 OA
ATOM     11  N   UNL     1       0.636  -2.675  -0.018  0.00  0.00    -0.273 N 
ATOM     12  H   UNL     1       0.850  -3.652  -0.026  0.00  0.00    +0.173 HD
ATOM     13  C   UNL     1      -0.648  -2.280  -0.004  0.00  0.00    +0.331 A 
ATOM     14  O   UNL     1      -1.527  -3.120  -0.001  0.00  0.00    -0.246 OA
ATOM     15  N   UNL     1      -0.986  -0.977   0.006  0.00  0.00    -0.280 N 
ATOM     16  C   UNL     1      -2.398  -0.586   0.022  0.00  0.00    +0.155 C 
ATOM     17  C   UNL     1       4.461   3.556  -0.022  0.00  0.00    +0.065 C 
ENDROOT
BRANCH   1  18
ATOM     18  C   UNL     1       1.426   4.314   0.011  0.00  0.00    +0.143 C 
BRANCH  18  19
ATOM     19  C   UNL     1       1.226   4.796  -1.428  0.00  0.00    +0.123 C 
BRANCH  19  20
ATOM     20  N   UNL     1       0.692   6.160  -1.416  0.00  0.00    -0.342 N 
ATOM     21  H   UNL     1       0.523   6.607  -0.572  0.00  0.00    +0.146 HD
BRANCH  20  26
ATOM     22  C   UNL     1      -0.389   8.822  -6.306  0.00  0.00    +0.045 C 
ATOM     23  C   UNL     1      -0.102   8.115  -5.006  0.00  0.00    -0.032 A 
ATOM     24  C   UNL     1       0.403   6.828  -5.018  0.00  0.00    +0.006 A 
ATOM     25  C   UNL     1       0.672   6.179  -3.829  0.00  0.00    +0.023 A 
ATOM     26  C   UNL     1       0.425   6.816  -2.620  0.00  0.00    +0.029 A 
ATOM     27  C   UNL     1      -0.081   8.109  -2.610  0.00  0.00    +0.043 A 
ATOM     28  C   UNL     1      -0.343   8.756  -3.803  0.00  0.00    +0.046 A 
ATOM     29 CL   UNL     1      -0.977  10.372  -3.793  0.00  0.00    -0.083 Cl
ENDBRANCH  20  26
ENDBRANCH  19  20
ENDBRANCH  18  19
ENDBRANCH   1  18
TORSDOF 4
