REMARK  Name = ZINC26366342
REMARK  3 active torsions:
REMARK  status: ('A' for Active; 'I' for Inactive)
REMARK    1  A    between atoms: C_1  and  N_2
REMARK    2  A    between atoms: C_17  and  C_19
REMARK    3  A    between atoms: N_21  and  C_26
REMARK                            x       y       z     vdW  Elec       q    Type
REMARK                         _______ _______ _______ _____ _____    ______ ____
ROOT
ATOM      1  C   UNL     1      -1.013   2.281   0.924  0.00  0.00    +0.131 C 
ATOM      2  N   UNL     1      -0.192   1.672  -0.131  0.00  0.00    -0.315 N 
ATOM      3  C   UNL     1       1.170   2.203  -0.108  0.00  0.00    +0.108 C 
ATOM      4  C   UNL     1       1.777   2.237  -1.505  0.00  0.00    +0.038 C 
ATOM      5  C   UNL     1       2.056   0.860  -2.064  0.00  0.00    +0.117 C 
ATOM      6  N   UNL     1       0.798   0.114  -2.225  0.00  0.00    -0.248 N 
ATOM      7  C   UNL     1       0.266  -0.511  -1.100  0.00  0.00    +0.169 A 
ATOM      8  C   UNL     1      -0.192   0.279  -0.024  0.00  0.00    +0.162 A 
ATOM      9  N   UNL     1      -0.628  -0.286   1.083  0.00  0.00    -0.227 NA
ATOM     10  C   UNL     1      -0.668  -1.624   1.172  0.00  0.00    +0.091 A 
ATOM     11  C   UNL     1      -1.135  -2.255   2.336  0.00  0.00    +0.030 A 
ATOM     12  C   UNL     1      -1.186  -3.614   2.395  0.00  0.00    +0.002 A 
ATOM     13  C   UNL     1      -0.776  -4.393   1.315  0.00  0.00    +0.002 A 
ATOM     14  C   UNL     1      -0.311  -3.815   0.173  0.00  0.00    +0.030 A 
ATOM     15  C   UNL     1      -0.242  -2.416   0.078  0.00  0.00    +0.091 A 
ATOM     16  N   UNL     1       0.220  -1.824  -1.034  0.00  0.00    -0.227 NA
ATOM     17  C   UNL     1       0.181   0.037  -3.421  0.00  0.00    +0.268 C 
ATOM     18  O   UNL     1       0.614   0.665  -4.370  0.00  0.00    -0.268 OA
ENDROOT
BRANCH  17  19
ATOM     19  C   UNL     1      -1.011  -0.802  -3.579  0.00  0.00    +0.122 C 
ATOM     20  N   UNL     1      -2.175  -0.327  -3.260  0.00  0.00    -0.177 NA
ATOM     21  N   UNL     1      -3.333  -1.099  -3.395  0.00  0.00    -0.188 N 
ATOM     22  C   UNL     1      -3.252  -2.441  -3.486  0.00  0.00    +0.235 C 
ATOM     23  O   UNL     1      -4.260  -3.105  -3.599  0.00  0.00    -0.274 OA
ATOM     24  C   UNL     1      -1.903  -3.113  -3.446  0.00  0.00    +0.104 C 
ATOM     25  C   UNL     1      -0.868  -2.201  -4.116  0.00  0.00    +0.071 C 
BRANCH  21  26
ATOM     26  C   UNL     1      -4.643  -0.444  -3.439  0.00  0.00    +0.124 C 
ATOM     27  C   UNL     1      -4.819   0.431  -2.187  0.00  0.00    +0.049 C 
ATOM     28  C   UNL     1      -6.058   1.345  -2.405  0.00  0.00    +0.168 C 
ATOM     29  S   UNL     1      -5.825   1.813  -4.172  0.00  0.00    -0.029 S 
ATOM     30  O   UNL     1      -5.093   3.029  -4.236  0.00  0.00    -0.174 OA
ATOM     31  O   UNL     1      -7.072   1.711  -4.846  0.00  0.00    -0.174 OA
ATOM     32  C   UNL     1      -4.738   0.431  -4.712  0.00  0.00    +0.190 C 
ENDBRANCH  21  26
ENDBRANCH  17  19
TORSDOF 2
