REMARK  Name = ZINC04599048
REMARK  5 active torsions:
REMARK  status: ('A' for Active; 'I' for Inactive)
REMARK    1  A    between atoms: C_1  and  C_2
REMARK    2  A    between atoms: C_5  and  S_8
REMARK    3  A    between atoms: N_6  and  N_7
REMARK    4  A    between atoms: S_8  and  C_9
REMARK    5  A    between atoms: C_15  and  C_19
REMARK                            x       y       z     vdW  Elec       q    Type
REMARK                         _______ _______ _______ _____ _____    ______ ____
ROOT
ATOM      1  C   UNL     1       4.105  -1.132  -0.042  0.00  0.00    +0.166 A 
ATOM      2  N   UNL     1       3.229  -2.102  -0.038  0.00  0.00    -0.147 NA
ATOM      3  N   UNL     1       3.624  -3.436  -0.048  0.00  0.00    -0.169 N 
ATOM      4  C   UNL     1       2.814  -4.535  -0.046  0.00  0.00    +0.289 A 
ATOM      5  O   UNL     1       1.600  -4.400  -0.033  0.00  0.00    -0.265 OA
ATOM      6  C   UNL     1       3.374  -5.814  -0.058  0.00  0.00    +0.105 A 
ATOM      7  C   UNL     1       4.746  -5.958  -0.072  0.00  0.00    +0.060 A 
ATOM      8  N   UNL     1       5.506  -4.865  -0.073  0.00  0.00    -0.225 NA
ATOM      9  C   UNL     1       4.971  -3.671  -0.062  0.00  0.00    +0.200 A 
ATOM     10  S   UNL     1       5.651  -2.026  -0.068  0.00  0.00    -0.021 S 
ATOM     11  C   UNL     1       5.373  -7.328  -0.085  0.00  0.00    +0.067 C 
ATOM     12 BR   UNL     1       2.259  -7.340  -0.055  0.00  0.00    -0.043 Br
ENDROOT
BRANCH   1  13
ATOM     13  S   UNL     1       3.831   0.608  -0.031  0.00  0.00    -0.021 S 
BRANCH  13  18
ATOM     14  C   UNL     1      -1.239   2.220   0.020  0.00  0.00    +0.067 C 
ATOM     15  C   UNL     1      -0.016   1.340   0.009  0.00  0.00    +0.056 A 
ATOM     16  C   UNL     1       0.002  -0.004   0.002  0.00  0.00    +0.136 A 
ATOM     17  N   UNL     1       1.282  -0.409  -0.012  0.00  0.00    -0.228 NA
ATOM     18  C   UNL     1       2.070   0.641  -0.014  0.00  0.00    +0.193 A 
ATOM     19  N   UNL     1       1.294   1.759  -0.001  0.00  0.00    -0.248 N 
BRANCH  19  20
ATOM     20  N   UNL     1       1.734   3.053   0.002  0.00  0.00    -0.296 N 
ATOM     21  H   UNL     1       1.859   3.390   0.944  0.00  0.00    +0.163 HD
ATOM     22  H   UNL     1       2.585   3.146  -0.532  0.00  0.00    +0.163 HD
ENDBRANCH  19  20
ENDBRANCH  13  18
ENDBRANCH   1  13
TORSDOF 3
