REMARK  Name = ZINC36586405
REMARK  15 active torsions:
REMARK  status: ('A' for Active; 'I' for Inactive)
REMARK    1  A    between atoms: C_1  and  C_2
REMARK    2  A    between atoms: C_5  and  S_8
REMARK    3  A    between atoms: S_8  and  C_11
REMARK    4  A    between atoms: C_11  and  N_12
REMARK    5  A    between atoms: C_13  and  C_15
REMARK    6  A    between atoms: C_15  and  C_17
REMARK    7  A    between atoms: C_15  and  N_26
REMARK    8  A    between atoms: C_17  and  C_19
REMARK    9  A    between atoms: C_17  and  C_20
REMARK   10  A    between atoms: N_26  and  C_36
REMARK   11  A    between atoms: C_27  and  C_29
REMARK   12  A    between atoms: C_32  and  O_35
REMARK   13  A    between atoms: C_36  and  C_37
REMARK   14  A    between atoms: C_36  and  C_38
REMARK   15  A    between atoms: C_36  and  C_39
REMARK                            x       y       z     vdW  Elec       q    Type
REMARK                         _______ _______ _______ _____ _____    ______ ____
ROOT
ATOM      1  C   UNL     1       2.081  -2.752   5.374  0.00  0.00    +0.170 C 
ENDROOT
BRANCH   1   3
ATOM      2  N   UNL     1       3.440  -4.340   4.051  0.00  0.00    -0.295 N 
ATOM      3  C   UNL     1       3.224  -3.724   5.230  0.00  0.00    +0.235 C 
ATOM      4  O   UNL     1       3.949  -3.952   6.175  0.00  0.00    -0.274 OA
ATOM      5  H   UNL     1       2.907  -4.106   3.276  0.00  0.00    +0.150 HD
BRANCH   2   6
ATOM      6  C   UNL     1       4.481  -5.365   3.940  0.00  0.00    +0.278 C 
BRANCH   6   7
ATOM      7  S   UNL     1       3.725  -7.010   4.055  0.00  0.00    +0.013 S 
ATOM      8  O   UNL     1       2.903  -7.091   5.210  0.00  0.00    -0.168 OA
ATOM      9  O   UNL     1       4.694  -8.014   3.783  0.00  0.00    -0.168 OA
BRANCH   7  14
ATOM     10  C   UNL     1      -0.116  -7.281  -0.590  0.00  0.00    +0.044 C 
ATOM     11  C   UNL     1       0.843  -7.213   0.570  0.00  0.00    -0.050 A 
ATOM     12  C   UNL     1       2.152  -7.628   0.409  0.00  0.00    +0.005 A 
ATOM     13  C   UNL     1       3.032  -7.566   1.474  0.00  0.00    +0.027 A 
ATOM     14  C   UNL     1       2.604  -7.088   2.698  0.00  0.00    +0.090 A 
ATOM     15  C   UNL     1       1.295  -6.672   2.858  0.00  0.00    +0.027 A 
ATOM     16  C   UNL     1       0.416  -6.730   1.793  0.00  0.00    +0.005 A 
ENDBRANCH   7  14
ENDBRANCH   6   7
ENDBRANCH   2   6
ENDBRANCH   1   3
BRANCH   1  17
ATOM     17  N   UNL     1       1.721  -2.628   6.788  0.00  0.00    -0.280 N 
ATOM     18  C   UNL     1       1.369  -1.428   7.291  0.00  0.00    +0.248 C 
ATOM     19  O   UNL     1       1.470  -0.429   6.606  0.00  0.00    -0.270 OA
BRANCH  18  20
ATOM     20  C   UNL     1       0.860  -1.328   8.673  0.00  0.00    +0.037 A 
ATOM     21  C   UNL     1       0.886  -2.445   9.512  0.00  0.00    +0.016 A 
ATOM     22  C   UNL     1       0.411  -2.347  10.801  0.00  0.00    +0.046 A 
ATOM     23  C   UNL     1      -0.095  -1.139  11.267  0.00  0.00    +0.117 A 
ATOM     24  C   UNL     1      -0.123  -0.026  10.435  0.00  0.00    +0.046 A 
ATOM     25  C   UNL     1       0.356  -0.114   9.147  0.00  0.00    +0.016 A 
BRANCH  23  26
ATOM     26  O   UNL     1      -0.563  -1.047  12.537  0.00  0.00    -0.507 OA
ATOM     27  H   UNL     1       0.107  -0.791  13.186  0.00  0.00    +0.292 HD
ENDBRANCH  23  26
ENDBRANCH  18  20
BRANCH  17  28
ATOM     28  C   UNL     1       1.743  -3.808   7.656  0.00  0.00    +0.030 C 
ATOM     29  C   UNL     1       2.210  -5.024   6.853  0.00  0.00    +0.031 C 
ATOM     30  C   UNL     1       2.705  -3.567   8.821  0.00  0.00    +0.031 C 
ATOM     31  C   UNL     1       0.337  -4.067   8.201  0.00  0.00    +0.031 C 
ENDBRANCH  17  28
ENDBRANCH   1  17
BRANCH   1  32
ATOM     32  C   UNL     1       0.875  -3.263   4.583  0.00  0.00    +0.045 C 
ATOM     33  C   UNL     1      -0.055  -4.041   5.516  0.00  0.00    +0.015 C 
BRANCH  32  34
ATOM     34  C   UNL     1       0.130  -2.094   3.992  0.00  0.00    -0.042 A 
ATOM     35  C   UNL     1      -0.323  -1.077   4.812  0.00  0.00    +0.004 A 
ATOM     36  C   UNL     1      -1.006  -0.005   4.270  0.00  0.00    +0.000 A 
ATOM     37  C   UNL     1      -1.236   0.052   2.908  0.00  0.00    +0.000 A 
ATOM     38  C   UNL     1      -0.781  -0.964   2.088  0.00  0.00    +0.000 A 
ATOM     39  C   UNL     1      -0.095  -2.034   2.629  0.00  0.00    +0.004 A 
ENDBRANCH  32  34
ENDBRANCH   1  32
TORSDOF 10
