REMARK  Name = ZINC59488990
REMARK  5 active torsions:
REMARK  status: ('A' for Active; 'I' for Inactive)
REMARK    1  A    between atoms: C_6  and  C_7
REMARK    2  A    between atoms: N_9  and  N_10
REMARK    3  A    between atoms: N_10  and  C_11
REMARK    4  A    between atoms: C_12  and  C_18
REMARK    5  A    between atoms: C_18  and  C_20
REMARK                            x       y       z     vdW  Elec       q    Type
REMARK                         _______ _______ _______ _____ _____    ______ ____
ROOT
ATOM      1  N   UNL     1      -2.443  -2.820   0.165  0.00  0.00    -0.268 N 
ATOM      2  H   UNL     1      -1.619  -2.315   0.247  0.00  0.00    +0.170 HD
ENDROOT
BRANCH   1   3
ATOM      3  C   UNL     1      -2.413  -4.182   0.184  0.00  0.00    +0.029 C 
ATOM      4  C   UNL     1      -1.235  -4.825   0.201  0.00  0.00    +0.022 C 
ATOM      5  C   UNL     1      -1.193  -6.338   0.223  0.00  0.00    +0.040 C 
ATOM      6  C   UNL     1      -1.656  -6.818   1.601  0.00  0.00    +0.005 C 
ATOM      7  C   UNL     1      -3.167  -6.930   1.654  0.00  0.00    +0.001 C 
ATOM      8  C   UNL     1      -3.891  -5.599   1.569  0.00  0.00    +0.006 C 
ATOM      9  C   UNL     1      -3.708  -4.966   0.193  0.00  0.00    +0.052 C 
BRANCH   4  10
ATOM     10  C   UNL     1      -0.039  -4.092   0.199  0.00  0.00    +0.263 C 
ATOM     11  O   UNL     1      -0.069  -2.881   0.297  0.00  0.00    -0.283 OA
BRANCH  10  12
ATOM     12  C   UNL     1       1.282  -4.806   0.074  0.00  0.00    +0.455 C 
ATOM     13  F   UNL     1       2.321  -3.871   0.096  0.00  0.00    -0.163 F 
ATOM     14  F   UNL     1       1.433  -5.697   1.143  0.00  0.00    -0.163 F 
ATOM     15  F   UNL     1       1.317  -5.515  -1.132  0.00  0.00    -0.163 F 
ENDBRANCH  10  12
ENDBRANCH   4  10
ENDBRANCH   1   3
BRANCH   1  18
ATOM     16  C   UNL     1      -3.687  -0.807  -0.098  0.00  0.00    +0.260 C 
ATOM     17  O   UNL     1      -2.644  -0.188  -0.181  0.00  0.00    -0.269 OA
ATOM     18  N   UNL     1      -3.665  -2.149   0.025  0.00  0.00    -0.233 N 
ATOM     19  H   UNL     1      -4.496  -2.650   0.017  0.00  0.00    +0.173 HD
BRANCH  16  25
ATOM     20  C   UNL     1      -5.003   1.307  -0.155  0.00  0.00    +0.014 A 
ATOM     21  C   UNL     1      -6.211   1.972  -0.188  0.00  0.00    +0.016 A 
ATOM     22  C   UNL     1      -7.397   1.258  -0.201  0.00  0.00    +0.018 A 
ATOM     23  C   UNL     1      -7.379  -0.127  -0.180  0.00  0.00    +0.016 A 
ATOM     24  C   UNL     1      -6.177  -0.803  -0.146  0.00  0.00    +0.014 A 
ATOM     25  C   UNL     1      -4.978  -0.089  -0.134  0.00  0.00    +0.038 A 
ATOM     26 BR   UNL     1      -9.049   2.177  -0.245  0.00  0.00    -0.050 Br
ENDBRANCH  16  25
ENDBRANCH   1  18
TORSDOF 5
