REMARK  Name = ZINC00921730
REMARK  4 active torsions:
REMARK  status: ('A' for Active; 'I' for Inactive)
REMARK    1  A    between atoms: C_4  and  S_7
REMARK    2  A    between atoms: S_7  and  N_10
REMARK    3  A    between atoms: N_10  and  C_11
REMARK    4  A    between atoms: C_23  and  N_50
REMARK                            x       y       z     vdW  Elec       q    Type
REMARK                         _______ _______ _______ _____ _____    ______ ____
ROOT
ATOM      1  C   UNL     1      -1.878   5.360   0.074  0.00  0.00    +0.098 C 
ATOM      2  C   UNL     1      -2.278   3.905   0.057  0.00  0.00    -0.022 A 
ATOM      3  C   UNL     1      -3.466   3.239   0.077  0.00  0.00    +0.006 A 
ATOM      4  C   UNL     1      -3.493   1.843   0.036  0.00  0.00    +0.001 A 
ATOM      5  C   UNL     1      -2.353   1.092  -0.005  0.00  0.00    +0.008 A 
ATOM      6  C   UNL     1      -1.111   1.747  -0.022  0.00  0.00    -0.017 A 
ATOM      7  C   UNL     1      -1.109   3.153   0.010  0.00  0.00    -0.012 A 
ATOM      8  C   UNL     1       0.062   3.903  -0.008  0.00  0.00    -0.051 A 
ATOM      9  C   UNL     1       1.248   3.236  -0.053  0.00  0.00    +0.003 A 
ATOM     10  C   UNL     1       1.271   1.839  -0.081  0.00  0.00    +0.001 A 
ATOM     11  C   UNL     1       0.130   1.090  -0.064  0.00  0.00    +0.008 A 
ATOM     12  C   UNL     1      -0.335   5.359   0.031  0.00  0.00    -0.013 C 
ENDROOT
BRANCH  12  18
ATOM     13  C   UNL     1       1.578   6.485   1.002  0.00  0.00    -0.049 C 
ATOM     14  C   UNL     1       2.082   7.199   2.259  0.00  0.00    +0.141 C 
ATOM     15  O   UNL     1       2.004   6.305   3.373  0.00  0.00    -0.383 OA
ATOM     16  C   UNL     1       0.685   5.817   3.628  0.00  0.00    +0.141 C 
ATOM     17  C   UNL     1       0.167   5.088   2.386  0.00  0.00    -0.049 C 
ATOM     18  N   UNL     1       0.194   6.024   1.242  0.00  0.00    +0.388 N 
ATOM     19  H   UNL     1      -0.395   6.837   1.460  0.00  0.00    -0.081 HD
ENDBRANCH  12  18
BRANCH   1  20
ATOM     20  N   UNL     1      -2.352   6.002   1.303  0.00  0.00    -0.184 NA
ATOM     21  H   UNL     1      -1.851   5.900   2.127  0.00  0.00    +0.149 HD
BRANCH  20  22
ATOM     22  S   UNL     1      -3.741   6.903   1.284  0.00  0.00    +0.059 S 
ATOM     23  O   UNL     1      -3.945   7.364   2.613  0.00  0.00    -0.153 OA
ATOM     24  O   UNL     1      -3.635   7.789   0.178  0.00  0.00    -0.153 OA
BRANCH  22  28
ATOM     25  C   UNL     1      -7.155   4.079   0.356  0.00  0.00    +0.000 A 
ATOM     26  C   UNL     1      -6.782   4.305   1.668  0.00  0.00    +0.002 A 
ATOM     27  C   UNL     1      -5.740   5.168   1.951  0.00  0.00    +0.028 A 
ATOM     28  C   UNL     1      -5.070   5.804   0.923  0.00  0.00    +0.105 A 
ATOM     29  C   UNL     1      -5.446   5.581  -0.389  0.00  0.00    +0.028 A 
ATOM     30  C   UNL     1      -6.486   4.716  -0.672  0.00  0.00    +0.002 A 
ENDBRANCH  22  28
ENDBRANCH  20  22
ENDBRANCH   1  20
TORSDOF 4
