REMARK  Name = ZINC26461314
REMARK  7 active torsions:
REMARK  status: ('A' for Active; 'I' for Inactive)
REMARK    1  A    between atoms: C_1  and  C_2
REMARK    2  A    between atoms: C_5  and  C_9
REMARK    3  A    between atoms: C_6  and  C_8
REMARK    4  A    between atoms: C_11  and  C_14
REMARK    5  A    between atoms: C_14  and  N_15
REMARK    6  A    between atoms: C_19  and  C_21
REMARK    7  A    between atoms: N_23  and  C_24
REMARK                            x       y       z     vdW  Elec       q    Type
REMARK                         _______ _______ _______ _____ _____    ______ ____
ROOT
ATOM      1  N   UNL     1      -2.844  -4.177  -1.425  0.00  0.00    +0.391 N 
ATOM      2  C   UNL     1      -3.980  -3.693  -2.251  0.00  0.00    -0.077 C 
ATOM      3  C   UNL     1      -4.269  -4.850  -3.231  0.00  0.00    -0.020 C 
ATOM      4  C   UNL     1      -3.721  -6.112  -2.534  0.00  0.00    -0.008 C 
ATOM      5  C   UNL     1      -3.148  -5.612  -1.191  0.00  0.00    +0.020 C 
ATOM      6  H   UNL     1      -1.869  -4.022  -1.910  0.00  0.00    -0.080 HD
ENDROOT
BRANCH   5   7
ATOM      7  C   UNL     1      -1.890  -6.365  -0.843  0.00  0.00    +0.204 C 
ATOM      8  O   UNL     1      -0.828  -5.782  -0.789  0.00  0.00    -0.277 OA
ATOM      9  N   UNL     1      -1.945  -7.688  -0.591  0.00  0.00    -0.286 N 
ATOM     10  H   UNL     1      -2.893  -8.233  -0.715  0.00  0.00    +0.155 HD
BRANCH   9  11
ATOM     11  C   UNL     1      -0.796  -8.370  -0.171  0.00  0.00    +0.052 A 
ATOM     12  C   UNL     1       0.459  -7.919  -0.556  0.00  0.00    +0.026 A 
ATOM     13  C   UNL     1       1.591  -8.589  -0.137  0.00  0.00    +0.022 A 
ATOM     14  C   UNL     1       1.475  -9.717   0.658  0.00  0.00    +0.042 A 
ATOM     15  C   UNL     1       0.226 -10.172   1.039  0.00  0.00    +0.041 A 
ATOM     16  C   UNL     1      -0.911  -9.502   0.626  0.00  0.00    +0.064 A 
ATOM     17 CL   UNL     1      -2.478 -10.072   1.105  0.00  0.00    -0.082 Cl
ATOM     18 CL   UNL     1       2.901 -10.561   1.177  0.00  0.00    -0.083 Cl
ENDBRANCH   9  11
ENDBRANCH   5   7
BRANCH   1  19
ATOM     19  C   UNL     1      -2.765  -3.441  -0.156  0.00  0.00    -0.018 C 
BRANCH  19  22
ATOM     20  C   UNL     1      -0.834  -0.436  -0.714  0.00  0.00    +0.228 A 
ATOM     21  N   UNL     1      -0.921  -1.725  -0.487  0.00  0.00    -0.216 NA
ATOM     22  C   UNL     1      -2.218  -2.060  -0.409  0.00  0.00    +0.063 A 
ATOM     23  C   UNL     1      -2.944  -0.943  -0.601  0.00  0.00    +0.219 A 
ATOM     24  O   UNL     1      -2.077   0.070  -0.792  0.00  0.00    -0.443 OA
BRANCH  20  29
ATOM     25  C   UNL     1       4.052   2.548  -1.300  0.00  0.00    +0.044 C 
ATOM     26  C   UNL     1       2.772   1.767  -1.146  0.00  0.00    -0.050 A 
ATOM     27  C   UNL     1       2.630   0.877  -0.096  0.00  0.00    +0.004 A 
ATOM     28  C   UNL     1       1.462   0.159   0.050  0.00  0.00    +0.014 A 
ATOM     29  C   UNL     1       0.421   0.331  -0.865  0.00  0.00    +0.040 A 
ATOM     30  C   UNL     1       0.571   1.230  -1.921  0.00  0.00    -0.038 A 
ATOM     31  C   UNL     1       1.744   1.943  -2.056  0.00  0.00    +0.007 A 
ATOM     32  C   UNL     1      -0.545   1.418  -2.917  0.00  0.00    +0.044 C 
ENDBRANCH  20  29
ENDBRANCH  19  22
ENDBRANCH   1  19
TORSDOF 5
