REMARK  Name = ZINC36064501
REMARK  13 active torsions:
REMARK  status: ('A' for Active; 'I' for Inactive)
REMARK    1  A    between atoms: C_1  and  C_2
REMARK    2  A    between atoms: C_2  and  C_3
REMARK    3  A    between atoms: C_4  and  C_35
REMARK    4  A    between atoms: C_5  and  C_25
REMARK    5  A    between atoms: C_8  and  C_13
REMARK    6  A    between atoms: C_14  and  N_16
REMARK    7  A    between atoms: C_22  and  C_24
REMARK    8  A    between atoms: C_27  and  O_33
REMARK    9  A    between atoms: C_29  and  O_31
REMARK   10  A    between atoms: O_31  and  C_32
REMARK   11  A    between atoms: O_33  and  C_34
REMARK   12  A    between atoms: C_35  and  O_37
REMARK   13  A    between atoms: O_37  and  C_38
REMARK                            x       y       z     vdW  Elec       q    Type
REMARK                         _______ _______ _______ _____ _____    ______ ____
ROOT
ATOM      1  C   UNL     1       0.515  -1.367  -1.577  0.00  0.00    +0.056 C 
ATOM      2  C   UNL     1       1.893  -1.415  -1.480  0.00  0.00    +0.083 C 
ATOM      3  C   UNL     1       2.684  -1.578  -2.758  0.00  0.00    +0.150 C 
ATOM      4  N   UNL     1       1.912  -1.674  -4.025  0.00  0.00    -0.267 N 
ATOM      5  C   UNL     1       2.421  -1.825  -5.300  0.00  0.00    +0.048 C 
ATOM      6  C   UNL     1       1.540  -1.892  -6.323  0.00  0.00    +0.072 C 
ATOM      7  S   UNL     1      -0.020  -1.740  -5.476  0.00  0.00    -0.060 S 
ATOM      8  C   UNL     1       0.552  -1.604  -3.904  0.00  0.00    +0.166 C 
ATOM      9  N   UNL     1      -0.078  -1.466  -2.756  0.00  0.00    -0.229 NA
ENDROOT
BRANCH   3  10
ATOM     10  C   UNL     1       3.521  -2.825  -2.630  0.00  0.00    -0.015 A 
ATOM     11  C   UNL     1       2.942  -4.066  -2.816  0.00  0.00    +0.051 A 
ATOM     12  C   UNL     1       3.710  -5.216  -2.699  0.00  0.00    +0.124 A 
ATOM     13  C   UNL     1       5.059  -5.119  -2.395  0.00  0.00    +0.091 A 
ATOM     14  C   UNL     1       5.638  -3.873  -2.209  0.00  0.00    +0.124 A 
ATOM     15  C   UNL     1       4.867  -2.725  -2.333  0.00  0.00    +0.051 A 
BRANCH  14  16
ATOM     16  O   UNL     1       6.960  -3.775  -1.911  0.00  0.00    -0.495 OA
ATOM     17  C   UNL     1       7.693  -4.996  -1.804  0.00  0.00    +0.277 C 
ENDBRANCH  14  16
BRANCH  12  18
ATOM     18  O   UNL     1       3.140  -6.436  -2.881  0.00  0.00    -0.495 OA
ATOM     19  C   UNL     1       3.990  -7.576  -2.745  0.00  0.00    +0.277 C 
ENDBRANCH  12  18
ENDBRANCH   3  10
BRANCH   5  20
ATOM     20  C   UNL     1       3.869  -1.909  -5.536  0.00  0.00    +0.091 C 
ATOM     21  C   UNL     1       4.335  -2.208  -6.763  0.00  0.00    +0.241 C 
ATOM     22  O   UNL     1       3.477  -2.312  -7.807  0.00  0.00    -0.271 OA
BRANCH  21  23
ATOM     23  N   UNL     1       5.691  -2.407  -6.960  0.00  0.00    -0.295 N 
ATOM     24  C   UNL     1       6.523  -2.988  -5.896  0.00  0.00    +0.127 C 
ATOM     25  C   UNL     1       7.244  -4.221  -6.456  0.00  0.00    +0.126 C 
ATOM     26  N   UNL     1       7.877  -3.857  -7.731  0.00  0.00    -0.299 N 
ATOM     27  C   UNL     1       7.045  -3.276  -8.795  0.00  0.00    +0.126 C 
ATOM     28  C   UNL     1       6.323  -2.048  -8.237  0.00  0.00    +0.127 C 
ATOM     29  C   UNL     1       9.197  -4.051  -7.922  0.00  0.00    +0.213 C 
ATOM     30  O   UNL     1       9.873  -4.531  -7.037  0.00  0.00    -0.276 OA
ATOM     31  C   UNL     1       9.832  -3.672  -9.236  0.00  0.00    +0.109 C 
ENDBRANCH  21  23
ENDBRANCH   5  20
BRANCH   1  33
ATOM     32  C   UNL     1      -0.430   0.279   0.018  0.00  0.00    +0.010 C 
ATOM     33  C   UNL     1      -0.318  -1.206  -0.331  0.00  0.00    +0.053 C 
ENDBRANCH   1  33
BRANCH   2  34
ATOM     34  C   UNL     1       2.534  -1.316  -0.239  0.00  0.00    +0.339 C 
ATOM     35  O   UNL     1       1.876  -1.264   0.785  0.00  0.00    -0.245 OA
BRANCH  34  36
ATOM     36  O   UNL     1       3.884  -1.278  -0.178  0.00  0.00    -0.465 OA
ATOM     37  C   UNL     1       4.471  -1.176   1.121  0.00  0.00    +0.280 C 
ENDBRANCH  34  36
ENDBRANCH   2  34
TORSDOF 8
