REMARK  Name = ZINC31173993
REMARK  12 active torsions:
REMARK  status: ('A' for Active; 'I' for Inactive)
REMARK    1  A    between atoms: C_1  and  C_2
REMARK    2  A    between atoms: C_2  and  C_3
REMARK    3  A    between atoms: C_3  and  C_4
REMARK    4  A    between atoms: C_4  and  N_5
REMARK    5  A    between atoms: C_9  and  S_30
REMARK    6  A    between atoms: C_13  and  C_14
REMARK    7  A    between atoms: C_14  and  N_15
REMARK    8  A    between atoms: N_15  and  C_16
REMARK    9  A    between atoms: N_15  and  C_18
REMARK   10  A    between atoms: C_16  and  C_17
REMARK   11  A    between atoms: C_18  and  C_19
REMARK   12  A    between atoms: S_30  and  N_33
REMARK                            x       y       z     vdW  Elec       q    Type
REMARK                         _______ _______ _______ _____ _____    ______ ____
ROOT
ATOM      1  N   UNL     1      -1.598   4.383   2.168  0.00  0.00    -0.326 N 
ATOM      2  C   UNL     1      -2.706   5.146   1.858  0.00  0.00    +0.069 A 
ATOM      3  C   UNL     1      -3.828   4.945   1.067  0.00  0.00    +0.030 A 
ATOM      4  C   UNL     1      -4.780   5.937   0.966  0.00  0.00    +0.030 A 
ATOM      5  C   UNL     1      -4.623   7.134   1.650  0.00  0.00    +0.107 A 
ATOM      6  C   UNL     1      -3.524   7.350   2.433  0.00  0.00    +0.058 A 
ATOM      7  C   UNL     1      -2.547   6.359   2.550  0.00  0.00    +0.091 A 
ATOM      8  N   UNL     1      -1.376   6.274   3.233  0.00  0.00    -0.231 NA
ATOM      9  C   UNL     1      -0.824   5.117   3.013  0.00  0.00    +0.125 A 
ENDROOT
BRANCH   5  10
ATOM     10  S   UNL     1      -5.852   8.388   1.506  0.00  0.00    +0.056 S 
ATOM     11  O   UNL     1      -5.211   9.621   1.804  0.00  0.00    -0.153 OA
ATOM     12  O   UNL     1      -6.525   8.158   0.276  0.00  0.00    -0.153 OA
BRANCH  10  13
ATOM     13  N   UNL     1      -6.960   8.128   2.708  0.00  0.00    -0.204 NA
ATOM     14  H   UNL     1      -7.748   8.893   2.653  0.00  0.00    +0.144 HD
ATOM     15  H   UNL     1      -6.460   8.186   3.687  0.00  0.00    +0.144 HD
ENDBRANCH  10  13
ENDBRANCH   5  10
BRANCH   1  16
ATOM     16  C   UNL     1      -1.312   3.030   1.683  0.00  0.00    +0.123 C 
BRANCH  16  17
ATOM     17  C   UNL     1      -0.476   3.113   0.404  0.00  0.00    +0.021 C 
BRANCH  17  19
ATOM     18  C   UNL     1       0.750   1.786  -1.321  0.00  0.00    +0.004 C 
ATOM     19  C   UNL     1      -0.086   1.703  -0.043  0.00  0.00    -0.002 C 
ENDBRANCH  17  19
ENDBRANCH  16  17
ENDBRANCH   1  16
BRANCH   9  20
ATOM     20  C   UNL     1       0.483   4.657   3.605  0.00  0.00    +0.159 C 
BRANCH  20  21
ATOM     21  N   UNL     1       1.583   5.010   2.697  0.00  0.00    -0.292 NA
BRANCH  21  22
ATOM     22  C   UNL     1       2.768   4.182   2.958  0.00  0.00    +0.081 C 
ATOM     23  C   UNL     1       3.322   4.508   4.346  0.00  0.00    +0.020 C 
ENDBRANCH  21  22
BRANCH  21  24
ATOM     24  C   UNL     1       1.908   6.439   2.795  0.00  0.00    +0.132 C 
BRANCH  24  25
ATOM     25  C   UNL     1       2.749   6.855   1.586  0.00  0.00    +0.225 C 
ATOM     26  C   UNL     1       2.985   8.371   1.616  0.00  0.00    +0.275 C 
ATOM     27  O   UNL     1       3.784   8.723   0.481  0.00  0.00    -0.485 OA
ATOM     28  C   UNL     1       4.872   7.943   0.235  0.00  0.00    +0.162 A 
ATOM     29  C   UNL     1       5.873   8.416  -0.601  0.00  0.00    +0.049 A 
ATOM     30  C   UNL     1       6.982   7.635  -0.864  0.00  0.00    +0.004 A 
ATOM     31  C   UNL     1       7.098   6.380  -0.295  0.00  0.00    +0.004 A 
ATOM     32  C   UNL     1       6.105   5.904   0.540  0.00  0.00    +0.049 A 
ATOM     33  C   UNL     1       4.990   6.683   0.809  0.00  0.00    +0.163 A 
ATOM     34  O   UNL     1       4.022   6.201   1.636  0.00  0.00    -0.481 OA
ENDBRANCH  24  25
ENDBRANCH  21  24
ENDBRANCH  20  21
ENDBRANCH   9  20
TORSDOF 10
