REMARK  Name = ZINC36357232
REMARK  5 active torsions:
REMARK  status: ('A' for Active; 'I' for Inactive)
REMARK    1  A    between atoms: C_1  and  C_2
REMARK    2  A    between atoms: C_18  and  C_20
REMARK    3  A    between atoms: C_23  and  C_25
REMARK    4  A    between atoms: C_28  and  C_31
REMARK    5  A    between atoms: C_31  and  C_33
REMARK                            x       y       z     vdW  Elec       q    Type
REMARK                         _______ _______ _______ _____ _____    ______ ____
ROOT
ATOM      1  C   UNL     1      -0.007   1.485   0.021  0.00  0.00    +0.068 C 
ATOM      2  C   UNL     1       0.014  -0.022   0.003  0.00  0.00    +0.066 A 
ATOM      3  C   UNL     1       0.015  -0.820  -1.132  0.00  0.00    +0.026 A 
ATOM      4  C   UNL     1       0.042  -2.129  -0.729  0.00  0.00    +0.134 A 
ATOM      5  N   UNL     1       0.049  -2.139   0.621  0.00  0.00    -0.198 N 
ATOM      6  N   UNL     1       0.041  -0.804   1.057  0.00  0.00    -0.168 NA
ATOM      7  C   UNL     1       0.066  -3.274   1.438  0.00  0.00    +0.178 A 
ATOM      8  C   UNL     1       0.575  -3.196   2.733  0.00  0.00    +0.053 A 
ATOM      9  C   UNL     1       0.569  -4.348   3.503  0.00  0.00    +0.045 A 
ATOM     10  C   UNL     1       0.056  -5.509   2.937  0.00  0.00    +0.152 A 
ATOM     11  N   UNL     1      -0.406  -5.490   1.702  0.00  0.00    -0.136 NA
ATOM     12  N   UNL     1      -0.407  -4.425   0.986  0.00  0.00    -0.128 NA
ATOM     13 CL   UNL     1       0.024  -6.982   3.855  0.00  0.00    -0.060 Cl
ATOM     14  N   UNL     1       0.070  -3.182  -1.642  0.00  0.00    -0.270 N 
ATOM     15  C   UNL     1       0.274  -2.889  -2.944  0.00  0.00    +0.219 C 
ATOM     16  O   UNL     1       0.115  -3.759  -3.774  0.00  0.00    -0.275 OA
ATOM     17  C   UNL     1       0.691  -1.518  -3.397  0.00  0.00    +0.112 C 
ATOM     18  C   UNL     1      -0.014  -0.426  -2.587  0.00  0.00    +0.099 C 
ATOM     19  H   UNL     1      -0.053  -4.098  -1.350  0.00  0.00    +0.156 HD
ENDROOT
BRANCH  18  20
ATOM     20  C   UNL     1       0.704   0.886  -2.771  0.00  0.00    +0.114 A 
ATOM     21  C   UNL     1       0.158   2.020  -3.258  0.00  0.00    +0.046 A 
ATOM     22  C   UNL     1       1.170   2.998  -3.260  0.00  0.00    +0.050 A 
ATOM     23  C   UNL     1       2.292   2.402  -2.770  0.00  0.00    +0.135 A 
ATOM     24  O   UNL     1       1.991   1.122  -2.474  0.00  0.00    -0.459 OA
BRANCH  23  25
ATOM     25  C   UNL     1       3.607   3.046  -2.591  0.00  0.00    +0.017 A 
ATOM     26  C   UNL     1       3.778   4.392  -2.932  0.00  0.00    +0.012 A 
ATOM     27  C   UNL     1       4.994   4.989  -2.767  0.00  0.00    +0.012 A 
ATOM     28  C   UNL     1       6.071   4.253  -2.255  0.00  0.00    +0.017 A 
ATOM     29  C   UNL     1       5.898   2.905  -1.913  0.00  0.00    +0.012 A 
ATOM     30  C   UNL     1       4.680   2.312  -2.074  0.00  0.00    +0.012 A 
BRANCH  28  31
ATOM     31  C   UNL     1       7.380   4.894  -2.077  0.00  0.00    +0.160 C 
ATOM     32  O   UNL     1       7.557   6.030  -2.466  0.00  0.00    -0.292 OA
ATOM     33  C   UNL     1       8.503   4.142  -1.411  0.00  0.00    +0.091 C 
ENDBRANCH  28  31
ENDBRANCH  23  25
ENDBRANCH  18  20
TORSDOF 3
