REMARK  Name = ZINC08945824
REMARK  7 active torsions:
REMARK  status: ('A' for Active; 'I' for Inactive)
REMARK    1  A    between atoms: C_1  and  S_2
REMARK    2  A    between atoms: S_2  and  C_3
REMARK    3  A    between atoms: N_9  and  C_10
REMARK    4  A    between atoms: C_10  and  C_11
REMARK    5  A    between atoms: C_11  and  N_12
REMARK    6  A    between atoms: C_13  and  C_15
REMARK    7  A    between atoms: C_23  and  N_25
REMARK                            x       y       z     vdW  Elec       q    Type
REMARK                         _______ _______ _______ _____ _____    ______ ____
ROOT
ATOM      1  C   UNL     1       3.768   9.271   3.286  0.00  0.00    +0.192 A 
ATOM      2  N   UNL     1       3.768   8.266   2.427  0.00  0.00    -0.202 NA
ATOM      3  C   UNL     1       3.754   8.495   1.115  0.00  0.00    +0.164 A 
ATOM      4  C   UNL     1       3.739   9.826   0.656  0.00  0.00    +0.078 A 
ATOM      5  C   UNL     1       3.726   9.777  -0.755  0.00  0.00    +0.148 A 
ATOM      6  N   UNL     1       3.739   8.528  -1.124  0.00  0.00    -0.177 NA
ATOM      7  N   UNL     1       3.750   7.701   0.006  0.00  0.00    -0.245 N 
ATOM      8  C   UNL     1       3.739  10.864   1.609  0.00  0.00    +0.136 A 
ATOM      9  N   UNL     1       3.754  10.541   2.897  0.00  0.00    -0.206 NA
ENDROOT
BRANCH   8  10
ATOM     10  N   UNL     1       3.725  12.187   1.213  0.00  0.00    -0.315 N 
ATOM     11  C   UNL     1       4.849  12.478   0.313  0.00  0.00    +0.106 C 
ATOM     12  C   UNL     1       4.720  13.907  -0.220  0.00  0.00    +0.019 C 
ATOM     13  C   UNL     1       4.716  14.887   0.957  0.00  0.00    +0.003 C 
ATOM     14  C   UNL     1       3.566  14.531   1.904  0.00  0.00    +0.019 C 
ATOM     15  C   UNL     1       3.729  13.084   2.375  0.00  0.00    +0.106 C 
ENDBRANCH   8  10
BRANCH   1  17
ATOM     16  C   UNL     1       3.800   7.104   4.957  0.00  0.00    +0.093 C 
ATOM     17  S   UNL     1       3.786   8.914   5.011  0.00  0.00    -0.089 S 
ENDBRANCH   1  17
BRANCH   7  18
ATOM     18  C   UNL     1       3.762   6.236  -0.001  0.00  0.00    +0.164 C 
BRANCH  18  19
ATOM     19  C   UNL     1       2.324   5.715   0.010  0.00  0.00    +0.128 C 
BRANCH  19  20
ATOM     20  N   UNL     1       2.335   4.250   0.002  0.00  0.00    -0.310 N 
ATOM     21  C   UNL     1       1.174   3.566   0.009  0.00  0.00    +0.246 C 
ATOM     22  O   UNL     1       0.116   4.166   0.022  0.00  0.00    -0.270 OA
ATOM     23  H   UNL     1       3.179   3.772  -0.008  0.00  0.00    +0.149 HD
BRANCH  21  24
ATOM     24  C   UNL     1       1.185   2.089   0.002  0.00  0.00    +0.056 A 
ATOM     25  C   UNL     1       2.398   1.397  -0.013  0.00  0.00    +0.029 A 
ATOM     26  C   UNL     1       2.402   0.018  -0.021  0.00  0.00    +0.019 A 
ATOM     27  C   UNL     1       1.207  -0.682  -0.014  0.00  0.00    +0.017 A 
ATOM     28  C   UNL     1       0.002  -0.004   0.002  0.00  0.00    +0.022 A 
ATOM     29  C   UNL     1      -0.017   1.377   0.010  0.00  0.00    +0.053 A 
ATOM     30 CL   UNL     1      -1.530   2.227   0.021  0.00  0.00    -0.083 Cl
ATOM     31 BR   UNL     1       4.044  -0.921  -0.042  0.00  0.00    -0.050 Br
ENDBRANCH  21  24
ENDBRANCH  19  20
ENDBRANCH  18  19
ENDBRANCH   7  18
TORSDOF 6
