REMARK  Name = ZINC04856014
REMARK  8 active torsions:
REMARK  status: ('A' for Active; 'I' for Inactive)
REMARK    1  A    between atoms: C_1  and  C_2
REMARK    2  A    between atoms: C_2  and  C_3
REMARK    3  A    between atoms: C_2  and  C_4
REMARK    4  A    between atoms: C_4  and  C_6
REMARK    5  A    between atoms: C_4  and  N_57
REMARK    6  A    between atoms: N_10  and  C_11
REMARK    7  A    between atoms: C_11  and  C_12
REMARK    8  A    between atoms: N_20  and  C_23
REMARK                            x       y       z     vdW  Elec       q    Type
REMARK                         _______ _______ _______ _____ _____    ______ ____
ROOT
ATOM      1  C   UNL     1       1.688   3.140   0.002  0.00  0.00    +0.005 C 
ENDROOT
BRANCH   1   7
ATOM      2  C   UNL     1      -0.534   3.854  -0.641  0.00  0.00    -0.059 C 
ATOM      3  C   UNL     1      -1.314   4.732  -1.623  0.00  0.00    +0.086 C 
ATOM      4  N   UNL     1      -1.068   4.266  -2.994  0.00  0.00    -0.333 N 
ATOM      5  C   UNL     1       0.364   4.324  -3.319  0.00  0.00    +0.086 C 
ATOM      6  C   UNL     1       1.143   3.445  -2.338  0.00  0.00    -0.059 C 
ATOM      7  N   UNL     1       0.905   3.939  -0.965  0.00  0.00    +0.389 N 
ATOM      8  H   UNL     1       1.203   4.919  -0.906  0.00  0.00    -0.081 HD
BRANCH   4   9
ATOM      9  C   UNL     1      -1.821   4.999  -3.915  0.00  0.00    +0.031 A 
ATOM     10  C   UNL     1      -1.188   5.663  -4.959  0.00  0.00    +0.023 A 
ATOM     11  C   UNL     1      -1.935   6.383  -5.870  0.00  0.00    +0.003 A 
ATOM     12  C   UNL     1      -3.310   6.454  -5.739  0.00  0.00    +0.020 A 
ATOM     13  C   UNL     1      -3.942   5.799  -4.697  0.00  0.00    +0.043 A 
ATOM     14  C   UNL     1      -3.201   5.072  -3.785  0.00  0.00    +0.043 A 
ATOM     15 CL   UNL     1      -5.669   5.890  -4.536  0.00  0.00    -0.083 Cl
ENDBRANCH   4   9
ENDBRANCH   1   7
BRANCH   1  16
ATOM     16  C   UNL     1       1.226   1.706  -0.001  0.00  0.00    +0.138 A 
ATOM     17  N   UNL     1      -0.015   1.284   0.009  0.00  0.00    -0.115 NA
ATOM     18  N   UNL     1       0.002  -0.004   0.002  0.00  0.00    -0.023 NA
ATOM     19  N   UNL     1       1.222  -0.415  -0.012  0.00  0.00    -0.044 NA
ATOM     20  N   UNL     1       2.006   0.610  -0.014  0.00  0.00    -0.228 N 
BRANCH  20  21
ATOM     21  C   UNL     1       3.471   0.584  -0.027  0.00  0.00    +0.178 C 
BRANCH  21  22
ATOM     22  C   UNL     1       3.968   0.583  -1.474  0.00  0.00    +0.140 C 
ATOM     23  C   UNL     1       5.505   0.441  -1.500  0.00  0.00    +0.035 C 
ATOM     24  C   UNL     1       5.905   1.402  -2.652  0.00  0.00    +0.031 C 
ATOM     25  C   UNL     1       4.838   2.514  -2.493  0.00  0.00    +0.160 C 
ATOM     26  O   UNL     1       3.638   1.828  -2.102  0.00  0.00    -0.375 OA
ENDBRANCH  21  22
ENDBRANCH  20  21
ENDBRANCH   1  16
BRANCH   1  28
ATOM     27  C   UNL     1       2.327   2.930   2.408  0.00  0.00    +0.006 C 
ATOM     28  C   UNL     1       1.504   3.733   1.400  0.00  0.00    -0.024 C 
ATOM     29  C   UNL     1       1.974   5.189   1.403  0.00  0.00    +0.006 C 
ENDBRANCH   1  28
TORSDOF 6
