REMARK  Name = ZINC64164503
REMARK  6 active torsions:
REMARK  status: ('A' for Active; 'I' for Inactive)
REMARK    1  A    between atoms: C_1  and  C_2
REMARK    2  A    between atoms: C_2  and  C_3
REMARK    3  A    between atoms: C_6  and  N_9
REMARK    4  A    between atoms: C_12  and  C_18
REMARK    5  A    between atoms: N_32  and  C_33
REMARK    6  A    between atoms: C_33  and  C_34
REMARK                            x       y       z     vdW  Elec       q    Type
REMARK                         _______ _______ _______ _____ _____    ______ ____
ROOT
ATOM      1  N   UNL     1       2.658  -1.834  -4.667  0.00  0.00    -0.229 N 
ATOM      2  C   UNL     1       4.001  -1.953  -4.670  0.00  0.00    +0.266 A 
ATOM      3  O   UNL     1       4.644  -1.669  -3.674  0.00  0.00    -0.267 OA
ATOM      4  C   UNL     1       4.654  -2.408  -5.829  0.00  0.00    +0.071 A 
ATOM      5  C   UNL     1       3.912  -2.720  -6.929  0.00  0.00    +0.259 A 
ATOM      6  N   UNL     1       2.547  -2.584  -6.883  0.00  0.00    -0.274 N 
ATOM      7  C   UNL     1       1.943  -2.152  -5.761  0.00  0.00    +0.337 A 
ATOM      8  O   UNL     1       0.732  -2.043  -5.738  0.00  0.00    -0.246 OA
ATOM      9  O   UNL     1       4.515  -3.158  -8.054  0.00  0.00    -0.267 OA
ATOM     10  H   UNL     1       2.015  -2.805  -7.663  0.00  0.00    +0.173 HD
ENDROOT
BRANCH   4  11
ATOM     11  C   UNL     1       6.155  -2.548  -5.854  0.00  0.00    -0.000 C 
ATOM     12  C   UNL     1       6.804  -1.171  -5.697  0.00  0.00    +0.097 C 
ATOM     13  C   UNL     1       8.303  -1.419  -5.582  0.00  0.00    -0.041 C 
ATOM     14  C   UNL     1       8.880  -0.665  -6.506  0.00  0.00    -0.001 A 
ATOM     15  C   UNL     1      10.295  -0.408  -6.823  0.00  0.00    +0.010 A 
ATOM     16  C   UNL     1      10.534   0.427  -7.868  0.00  0.00    +0.001 A 
ATOM     17  C   UNL     1       9.519   1.026  -8.621  0.00  0.00    +0.002 A 
ATOM     18  C   UNL     1       8.193   0.853  -8.396  0.00  0.00    +0.026 A 
ATOM     19  C   UNL     1       7.816  -0.001  -7.319  0.00  0.00    +0.043 A 
ATOM     20  N   UNL     1       6.617  -0.319  -6.870  0.00  0.00    -0.379 N 
ATOM     21  C   UNL     1       8.862  -2.441  -4.621  0.00  0.00    +0.015 C 
ATOM     22  C   UNL     1       8.020  -3.716  -4.817  0.00  0.00    -0.073 C 
ATOM     23  N   UNL     1       6.592  -3.398  -4.737  0.00  0.00    +0.386 N 
ATOM     24  H   UNL     1       5.765  -0.048  -7.245  0.00  0.00    +0.160 HD
ATOM     25  H   UNL     1       6.411  -2.918  -3.868  0.00  0.00    -0.081 HD
BRANCH  23  26
ATOM     26  C   UNL     1       5.822  -4.649  -4.759  0.00  0.00    -0.081 C 
ATOM     27  C   UNL     1       6.179  -5.489  -3.530  0.00  0.00    -0.017 C 
ENDBRANCH  23  26
ENDBRANCH   4  11
BRANCH   1  31
ATOM     28  C   UNL     1       0.709  -0.489  -1.238  0.00  0.00    -0.047 A 
ATOM     29  C   UNL     1       0.935  -1.841  -1.417  0.00  0.00    +0.005 A 
ATOM     30  C   UNL     1       1.580  -2.290  -2.553  0.00  0.00    +0.026 A 
ATOM     31  C   UNL     1       2.002  -1.382  -3.514  0.00  0.00    +0.054 A 
ATOM     32  C   UNL     1       1.774  -0.025  -3.331  0.00  0.00    +0.026 A 
ATOM     33  C   UNL     1       1.123   0.418  -2.196  0.00  0.00    +0.005 A 
BRANCH  28  35
ATOM     34  C   UNL     1      -1.505   0.034  -0.249  0.00  0.00    +0.009 C 
ATOM     35  C   UNL     1       0.004  -0.002   0.002  0.00  0.00    +0.032 C 
ENDBRANCH  28  35
ENDBRANCH   1  31
TORSDOF 4
