REMARK  Name = ZINC12385023
REMARK  11 active torsions:
REMARK  status: ('A' for Active; 'I' for Inactive)
REMARK    1  A    between atoms: C_1  and  C_2
REMARK    2  A    between atoms: C_7  and  C_17
REMARK    3  A    between atoms: C_19  and  O_27
REMARK    4  A    between atoms: C_20  and  O_25
REMARK    5  A    between atoms: C_22  and  O_23
REMARK    6  A    between atoms: O_23  and  C_24
REMARK    7  A    between atoms: O_25  and  C_26
REMARK    8  A    between atoms: O_27  and  C_28
REMARK    9  A    between atoms: C_31  and  C_33
REMARK   10  A    between atoms: C_33  and  O_35
REMARK   11  A    between atoms: O_35  and  C_36
REMARK                            x       y       z     vdW  Elec       q    Type
REMARK                         _______ _______ _______ _____ _____    ______ ____
ROOT
ATOM      1  C   UNL     1       6.165   4.993  -3.294  0.00  0.00    +0.009 C 
ATOM      2  C   UNL     1       5.665   3.577  -3.001  0.00  0.00    +0.013 C 
ATOM      3  C   UNL     1       5.517   3.382  -1.493  0.00  0.00    +0.055 C 
ATOM      4  C   UNL     1       5.037   1.971  -1.199  0.00  0.00    +0.017 C 
ATOM      5  C   UNL     1       5.401   0.947  -1.992  0.00  0.00    +0.037 C 
ATOM      6  C   UNL     1       5.008  -0.499  -1.806  0.00  0.00    +0.140 C 
ATOM      7  N   UNL     1       4.394  -0.800  -0.530  0.00  0.00    -0.331 N 
ATOM      8  C   UNL     1       3.159  -0.252  -0.179  0.00  0.00    +0.049 A 
ATOM      9  C   UNL     1       2.033  -1.042  -0.025  0.00  0.00    +0.025 A 
ATOM     10  C   UNL     1       0.813  -0.442   0.236  0.00  0.00    +0.002 A 
ATOM     11  C   UNL     1       0.718   0.934   0.341  0.00  0.00    +0.002 A 
ATOM     12  C   UNL     1       1.847   1.724   0.203  0.00  0.00    +0.025 A 
ATOM     13  C   UNL     1       3.070   1.125  -0.040  0.00  0.00    +0.052 A 
ATOM     14  N   UNL     1       4.254   1.850  -0.098  0.00  0.00    -0.316 N 
ATOM     15  C   UNL     1       6.216   1.179  -3.124  0.00  0.00    +0.177 C 
ATOM     16  O   UNL     1       6.549   0.233  -3.811  0.00  0.00    -0.291 OA
ATOM     17  C   UNL     1       6.686   2.551  -3.507  0.00  0.00    +0.171 C 
ATOM     18  H   UNL     1       4.848  -1.391   0.091  0.00  0.00    +0.147 HD
ATOM     19  H   UNL     1       4.541   2.305   0.709  0.00  0.00    +0.152 HD
ENDROOT
BRANCH   6  20
ATOM     20  C   UNL     1       4.043  -0.875  -2.900  0.00  0.00    +0.023 A 
ATOM     21  C   UNL     1       3.397   0.113  -3.620  0.00  0.00    +0.058 A 
ATOM     22  C   UNL     1       2.513  -0.230  -4.630  0.00  0.00    +0.162 A 
ATOM     23  C   UNL     1       2.267  -1.570  -4.912  0.00  0.00    +0.165 A 
ATOM     24  C   UNL     1       2.910  -2.559  -4.186  0.00  0.00    +0.095 A 
ATOM     25  C   UNL     1       3.799  -2.211  -3.180  0.00  0.00    +0.129 A 
BRANCH  25  26
ATOM     26  O   UNL     1       4.432  -3.180  -2.467  0.00  0.00    -0.495 OA
ATOM     27  C   UNL     1       4.133  -4.536  -2.808  0.00  0.00    +0.277 C 
ENDBRANCH  25  26
BRANCH  23  28
ATOM     28  O   UNL     1       1.396  -1.909  -5.900  0.00  0.00    -0.491 OA
ATOM     29  C   UNL     1       1.192  -3.304  -6.135  0.00  0.00    +0.277 C 
ENDBRANCH  23  28
BRANCH  22  30
ATOM     30  O   UNL     1       1.882   0.743  -5.342  0.00  0.00    -0.491 OA
ATOM     31  C   UNL     1       2.259   2.094  -5.070  0.00  0.00    +0.277 C 
ENDBRANCH  22  30
ENDBRANCH   6  20
BRANCH  17  32
ATOM     32  C   UNL     1       6.802   2.649  -5.006  0.00  0.00    +0.318 C 
ATOM     33  O   UNL     1       6.138   3.456  -5.612  0.00  0.00    -0.250 OA
BRANCH  32  34
ATOM     34  O   UNL     1       7.644   1.840  -5.668  0.00  0.00    -0.467 OA
ATOM     35  C   UNL     1       7.704   1.990  -7.112  0.00  0.00    +0.280 C 
ENDBRANCH  32  34
ENDBRANCH  17  32
TORSDOF 6
