REMARK  Name = ZINC13132573
REMARK  7 active torsions:
REMARK  status: ('A' for Active; 'I' for Inactive)
REMARK    1  A    between atoms: C_4  and  N_7
REMARK    2  A    between atoms: C_9  and  C_17
REMARK    3  A    between atoms: C_10  and  C_12
REMARK    4  A    between atoms: C_19  and  C_31
REMARK    5  A    between atoms: C_21  and  C_26
REMARK    6  A    between atoms: C_21  and  O_30
REMARK    7  A    between atoms: C_31  and  C_33
REMARK                            x       y       z     vdW  Elec       q    Type
REMARK                         _______ _______ _______ _____ _____    ______ ____
ROOT
ATOM      1  C   UNL     1       5.289  -3.466   0.229  0.00  0.00    +0.124 C 
ATOM      2  C   UNL     1       6.133  -3.807   1.462  0.00  0.00    +0.144 C 
ATOM      3  C   UNL     1       5.192  -4.226   2.597  0.00  0.00    +0.243 C 
ATOM      4  N   UNL     1       4.345  -5.328   2.137  0.00  0.00    -0.264 N 
ATOM      5  C   UNL     1       4.013  -5.460   0.844  0.00  0.00    +0.302 C 
ATOM      6  O   UNL     1       3.298  -6.387   0.517  0.00  0.00    -0.253 OA
ATOM      7  N   UNL     1       4.438  -4.609  -0.103  0.00  0.00    -0.292 N 
ATOM      8  H   UNL     1       4.018  -5.976   2.780  0.00  0.00    +0.153 HD
ATOM      9  H   UNL     1       4.176  -4.754  -1.026  0.00  0.00    +0.151 HD
ENDROOT
BRANCH   1  12
ATOM     10  N   UNL     1       2.730  -1.008   1.104  0.00  0.00    -0.239 N 
ATOM     11  C   UNL     1       3.148  -2.292   0.956  0.00  0.00    +0.120 A 
ATOM     12  C   UNL     1       4.428  -2.265   0.526  0.00  0.00    +0.020 A 
ATOM     13  C   UNL     1       4.816  -0.914   0.403  0.00  0.00    +0.105 A 
ATOM     14  N   UNL     1       3.789  -0.163   0.747  0.00  0.00    -0.166 NA
BRANCH  10  18
ATOM     15  C   UNL     1      -1.047   0.206   2.380  0.00  0.00    +0.000 A 
ATOM     16  C   UNL     1      -0.091   1.151   2.058  0.00  0.00    +0.002 A 
ATOM     17  C   UNL     1       1.162   0.752   1.635  0.00  0.00    +0.028 A 
ATOM     18  C   UNL     1       1.460  -0.600   1.533  0.00  0.00    +0.065 A 
ATOM     19  C   UNL     1       0.498  -1.547   1.857  0.00  0.00    +0.028 A 
ATOM     20  C   UNL     1      -0.753  -1.142   2.279  0.00  0.00    +0.002 A 
ENDBRANCH  10  18
BRANCH  13  21
ATOM     21  C   UNL     1       6.140  -0.427  -0.038  0.00  0.00    +0.040 A 
ATOM     22  C   UNL     1       6.448   0.685  -0.774  0.00  0.00    +0.018 A 
ATOM     23  C   UNL     1       7.771   0.940  -1.068  0.00  0.00    +0.008 A 
ATOM     24  C   UNL     1       8.724   0.083  -0.621  0.00  0.00    +0.046 A 
ATOM     25  S   UNL     1       7.753  -1.133   0.255  0.00  0.00    -0.095 S 
ENDBRANCH  13  21
ENDBRANCH   1  12
BRANCH   3  26
ATOM     26  C   UNL     1       6.015  -4.682   3.803  0.00  0.00    +0.436 C 
ATOM     27  F   UNL     1       6.919  -3.675   4.158  0.00  0.00    -0.166 F 
ATOM     28  F   UNL     1       5.161  -4.943   4.879  0.00  0.00    -0.166 F 
ATOM     29  F   UNL     1       6.719  -5.846   3.473  0.00  0.00    -0.166 F 
ENDBRANCH   3  26
BRANCH   3  30
ATOM     30  O   UNL     1       4.371  -3.117   2.970  0.00  0.00    -0.364 OA
ATOM     31  H   UNL     1       3.749  -3.311   3.684  0.00  0.00    +0.212 HD
ENDBRANCH   3  30
BRANCH   2  32
ATOM     32  C   UNL     1       7.072  -4.940   1.135  0.00  0.00    +0.174 C 
ATOM     33  O   UNL     1       6.680  -5.882   0.480  0.00  0.00    -0.291 OA
BRANCH  32  34
ATOM     34  C   UNL     1       8.464  -4.902   1.610  0.00  0.00    +0.036 A 
ATOM     35  C   UNL     1       9.353  -5.941   1.298  0.00  0.00    +0.014 A 
ATOM     36  C   UNL     1      10.651  -5.857   1.768  0.00  0.00    +0.020 A 
ATOM     37  C   UNL     1      11.027  -4.761   2.525  0.00  0.00    +0.111 A 
ATOM     38  N   UNL     1      10.170  -3.797   2.805  0.00  0.00    -0.263 NA
ATOM     39  C   UNL     1       8.925  -3.828   2.376  0.00  0.00    +0.122 A 
ENDBRANCH  32  34
ENDBRANCH   2  32
TORSDOF 7
