REMARK  Name = ZINC11603425
REMARK  10 active torsions:
REMARK  status: ('A' for Active; 'I' for Inactive)
REMARK    1  A    between atoms: C_1  and  C_2
REMARK    2  A    between atoms: C_3  and  S_8
REMARK    3  A    between atoms: C_4  and  C_7
REMARK    4  A    between atoms: S_8  and  N_11
REMARK    5  A    between atoms: C_14  and  C_17
REMARK    6  A    between atoms: N_19  and  C_20
REMARK    7  A    between atoms: C_20  and  C_21
REMARK    8  A    between atoms: C_21  and  C_23
REMARK    9  A    between atoms: C_21  and  N_67
REMARK   10  A    between atoms: C_30  and  C_33
REMARK                            x       y       z     vdW  Elec       q    Type
REMARK                         _______ _______ _______ _____ _____    ______ ____
ROOT
ATOM      1  C   UNL     1      -5.274   3.593  -1.858  0.00  0.00    +0.216 C 
ATOM      2  O   UNL     1      -6.048   3.571  -0.925  0.00  0.00    -0.276 OA
ATOM      3  N   UNL     1      -5.681   3.196  -3.080  0.00  0.00    -0.316 N 
ATOM      4  H   UNL     1      -5.062   3.214  -3.827  0.00  0.00    +0.149 HD
ENDROOT
BRANCH   1   8
ATOM      5  N   UNL     1      -1.289   3.942  -0.472  0.00  0.00    -0.176 NA
ATOM      6  C   UNL     1      -1.445   3.435  -1.842  0.00  0.00    +0.110 C 
ATOM      7  C   UNL     1      -2.888   2.938  -2.018  0.00  0.00    +0.030 C 
ATOM      8  C   UNL     1      -3.857   4.063  -1.652  0.00  0.00    +0.077 C 
ATOM      9  C   UNL     1      -3.658   4.453  -0.185  0.00  0.00    +0.030 C 
ATOM     10  C   UNL     1      -2.227   4.963   0.014  0.00  0.00    +0.110 C 
BRANCH   5  11
ATOM     11  S   UNL     1      -0.076   3.378   0.504  0.00  0.00    +0.066 S 
ATOM     12  O   UNL     1       0.172   4.391   1.469  0.00  0.00    -0.153 OA
ATOM     13  O   UNL     1       0.940   2.881  -0.357  0.00  0.00    -0.153 OA
BRANCH  11  16
ATOM     14  C   UNL     1      -1.683   3.174   3.500  0.00  0.00    +0.071 C 
ATOM     15  C   UNL     1      -1.376   1.981   2.632  0.00  0.00    +0.107 A 
ATOM     16  C   UNL     1      -0.715   1.991   1.382  0.00  0.00    +0.170 A 
ATOM     17  C   UNL     1      -0.689   0.687   1.015  0.00  0.00    +0.161 A 
ATOM     18  O   UNL     1      -1.288   0.004   2.000  0.00  0.00    -0.358 OA
ATOM     19  N   UNL     1      -1.662   0.737   2.886  0.00  0.00    -0.081 NA
ATOM     20  C   UNL     1      -0.098   0.117  -0.248  0.00  0.00    +0.091 C 
ENDBRANCH  11  16
ENDBRANCH   5  11
ENDBRANCH   1   8
BRANCH   3  21
ATOM     21  C   UNL     1      -7.058   2.739  -3.281  0.00  0.00    +0.094 C 
BRANCH  21  22
ATOM     22  C   UNL     1      -7.294   2.469  -4.768  0.00  0.00    -0.013 C 
BRANCH  22  29
ATOM     23  C   UNL     1      -7.346   3.509  -6.953  0.00  0.00    -0.078 C 
ATOM     24  C   UNL     1      -6.867   4.723  -7.754  0.00  0.00    -0.015 C 
ATOM     25  C   UNL     1      -7.510   5.990  -7.184  0.00  0.00    -0.018 C 
ATOM     26  C   UNL     1      -7.147   6.114  -5.701  0.00  0.00    -0.015 C 
ATOM     27  C   UNL     1      -7.617   4.860  -4.960  0.00  0.00    -0.078 C 
ATOM     28  C   UNL     1      -6.988   7.213  -7.941  0.00  0.00    +0.007 C 
ATOM     29  N   UNL     1      -6.944   3.679  -5.541  0.00  0.00    +0.386 N 
ATOM     30  H   UNL     1      -5.928   3.819  -5.498  0.00  0.00    -0.081 HD
ENDBRANCH  22  29
BRANCH  22  31
ATOM     31  C   UNL     1      -8.738   2.099  -4.989  0.00  0.00    -0.022 A 
ATOM     32  C   UNL     1      -9.290   0.871  -5.154  0.00  0.00    +0.009 A 
ATOM     33  C   UNL     1     -10.655   0.769  -5.340  0.00  0.00    +0.008 A 
ATOM     34  C   UNL     1     -11.402   1.901  -5.363  0.00  0.00    +0.045 A 
ATOM     35  S   UNL     1     -10.166   3.164  -5.109  0.00  0.00    -0.103 S 
ENDBRANCH  22  31
ENDBRANCH  21  22
ENDBRANCH   3  21
TORSDOF 7
