REMARK  Name = ZINC08894283
REMARK  7 active torsions:
REMARK  status: ('A' for Active; 'I' for Inactive)
REMARK    1  A    between atoms: C_1  and  C_2
REMARK    2  A    between atoms: C_2  and  C_27
REMARK    3  A    between atoms: N_5  and  C_9
REMARK    4  A    between atoms: C_9  and  C_10
REMARK    5  A    between atoms: N_12  and  C_13
REMARK    6  A    between atoms: C_18  and  C_19
REMARK    7  A    between atoms: C_19  and  C_21
REMARK                            x       y       z     vdW  Elec       q    Type
REMARK                         _______ _______ _______ _____ _____    ______ ____
ROOT
ATOM      1  C   UNL     1      -6.226  -0.815   0.080  0.00  0.00    +0.235 C 
ATOM      2  O   UNL     1      -7.255  -0.173   0.048  0.00  0.00    -0.274 OA
ATOM      3  N   UNL     1      -5.038  -0.181   0.127  0.00  0.00    -0.284 N 
ATOM      4  H   UNL     1      -4.219  -0.692   0.223  0.00  0.00    +0.155 HD
ENDROOT
BRANCH   3   5
ATOM      5  C   UNL     1      -4.986   1.208   0.037  0.00  0.00    +0.044 A 
ATOM      6  C   UNL     1      -5.999   1.981   0.588  0.00  0.00    +0.024 A 
ATOM      7  C   UNL     1      -5.948   3.357   0.493  0.00  0.00    +0.002 A 
ATOM      8  C   UNL     1      -4.886   3.978  -0.145  0.00  0.00    +0.001 A 
ATOM      9  C   UNL     1      -3.869   3.228  -0.693  0.00  0.00    +0.013 A 
ATOM     10  C   UNL     1      -3.906   1.833  -0.605  0.00  0.00    +0.043 A 
BRANCH  10  11
ATOM     11  C   UNL     1      -2.821   1.024  -1.190  0.00  0.00    +0.195 C 
ATOM     12  O   UNL     1      -1.747   0.950  -0.625  0.00  0.00    -0.287 OA
BRANCH  11  13
ATOM     13  C   UNL     1      -3.039   0.304  -2.462  0.00  0.00    +0.022 A 
ATOM     14  C   UNL     1      -1.984  -0.379  -3.070  0.00  0.00    +0.012 A 
ATOM     15  C   UNL     1      -2.196  -1.054  -4.255  0.00  0.00    +0.001 A 
ATOM     16  C   UNL     1      -3.448  -1.049  -4.843  0.00  0.00    +0.000 A 
ATOM     17  C   UNL     1      -4.496  -0.369  -4.248  0.00  0.00    +0.001 A 
ATOM     18  C   UNL     1      -4.299   0.309  -3.063  0.00  0.00    +0.012 A 
ENDBRANCH  11  13
ENDBRANCH  10  11
ENDBRANCH   3   5
BRANCH   1  19
ATOM     19  C   UNL     1      -6.277  -2.321   0.068  0.00  0.00    +0.214 C 
BRANCH  19  24
ATOM     20  C   UNL     1     -10.797  -2.439  -1.210  0.00  0.00    +0.047 C 
ATOM     21  C   UNL     1      -9.741  -3.420  -0.698  0.00  0.00    +0.135 C 
ATOM     22  C   UNL     1      -8.354  -2.983  -1.127  0.00  0.00    +0.251 C 
ATOM     23  O   UNL     1      -7.944  -2.857  -2.261  0.00  0.00    -0.272 OA
ATOM     24  N   UNL     1      -7.673  -2.763   0.015  0.00  0.00    -0.215 N 
ATOM     25  C   UNL     1      -8.426  -3.002   1.094  0.00  0.00    +0.310 C 
ATOM     26  O   UNL     1      -8.030  -2.878   2.236  0.00  0.00    -0.252 OA
ATOM     27  N   UNL     1      -9.673  -3.393   0.773  0.00  0.00    -0.281 N 
ATOM     28  H   UNL     1     -10.387  -3.616   1.391  0.00  0.00    +0.152 HD
BRANCH  21  29
ATOM     29  C   UNL     1     -10.033  -4.815  -1.190  0.00  0.00    -0.016 A 
ATOM     30  C   UNL     1      -9.461  -5.267  -2.364  0.00  0.00    +0.006 A 
ATOM     31  C   UNL     1      -9.724  -6.548  -2.813  0.00  0.00    +0.000 A 
ATOM     32  C   UNL     1     -10.568  -7.372  -2.092  0.00  0.00    +0.000 A 
ATOM     33  C   UNL     1     -11.144  -6.918  -0.921  0.00  0.00    +0.000 A 
ATOM     34  C   UNL     1     -10.877  -5.639  -0.470  0.00  0.00    +0.006 A 
ENDBRANCH  21  29
ENDBRANCH  19  24
ENDBRANCH   1  19
TORSDOF 6
