REMARK  Name = ZINC00295590
REMARK  3 active torsions:
REMARK  status: ('A' for Active; 'I' for Inactive)
REMARK    1  A    between atoms: C_3  and  O_19
REMARK    2  A    between atoms: C_4  and  C_12
REMARK    3  A    between atoms: N_13  and  N_14
REMARK                            x       y       z     vdW  Elec       q    Type
REMARK                         _______ _______ _______ _____ _____    ______ ____
ROOT
ATOM      1  C   UNL     1      -0.017   1.402   0.010  0.00  0.00    +0.012 A 
ATOM      2  C   UNL     1       1.141   2.113   0.003  0.00  0.00    +0.046 A 
ATOM      3  C   UNL     1       2.387   1.488  -0.013  0.00  0.00    +0.126 A 
ATOM      4  C   UNL     1       2.479   0.096  -0.021  0.00  0.00    +0.044 A 
ATOM      5  C   UNL     1       1.243  -0.686  -0.013  0.00  0.00    -0.006 A 
ATOM      6  C   UNL     1       0.002  -0.004   0.002  0.00  0.00    -0.016 A 
ATOM      7  C   UNL     1      -1.189  -0.749   0.009  0.00  0.00    +0.023 A 
ATOM      8  C   UNL     1      -1.133  -2.110   0.001  0.00  0.00    +0.018 A 
ATOM      9  C   UNL     1       0.090  -2.778  -0.014  0.00  0.00    +0.016 A 
ATOM     10  C   UNL     1       1.265  -2.086  -0.021  0.00  0.00    +0.010 A 
ATOM     11 BR   UNL     1      -2.739  -3.109   0.010  0.00  0.00    -0.050 Br
ENDROOT
BRANCH   4  12
ATOM     12  C   UNL     1       3.788  -0.570  -0.038  0.00  0.00    +0.145 C 
ATOM     13  N   UNL     1       4.878   0.139  -0.046  0.00  0.00    -0.172 NA
BRANCH  13  14
ATOM     14  N   UNL     1       6.127  -0.496  -0.062  0.00  0.00    -0.207 N 
ATOM     15  C   UNL     1       6.517  -1.562   0.693  0.00  0.00    +0.248 A 
ATOM     16  N   UNL     1       7.752  -1.835   0.366  0.00  0.00    -0.136 NA
ATOM     17  N   UNL     1       8.157  -1.016  -0.537  0.00  0.00    -0.136 NA
ATOM     18  C   UNL     1       7.200  -0.180  -0.840  0.00  0.00    +0.248 A 
ENDBRANCH  13  14
ENDBRANCH   4  12
BRANCH   3  19
ATOM     19  O   UNL     1       3.518   2.239  -0.021  0.00  0.00    -0.506 OA
ATOM     20  H   UNL     1       3.855   2.452   0.860  0.00  0.00    +0.292 HD
ENDBRANCH   3  19
TORSDOF 3
