REMARK  Name = ZINC12608630
REMARK  8 active torsions:
REMARK  status: ('A' for Active; 'I' for Inactive)
REMARK    1  A    between atoms: C_1  and  N_2
REMARK    2  A    between atoms: C_9  and  C_17
REMARK    3  A    between atoms: C_10  and  C_11
REMARK    4  A    between atoms: C_17  and  C_19
REMARK    5  A    between atoms: C_19  and  O_20
REMARK    6  A    between atoms: O_20  and  C_21
REMARK    7  A    between atoms: C_21  and  C_23
REMARK    8  A    between atoms: C_23  and  N_24
REMARK                            x       y       z     vdW  Elec       q    Type
REMARK                         _______ _______ _______ _____ _____    ______ ____
ROOT
ATOM      1  O   UNL     1      -3.386  -0.779   3.494  0.00  0.00    -0.455 OA
ENDROOT
BRANCH   1   2
ATOM      2  C   UNL     1      -4.143  -1.561   4.279  0.00  0.00    +0.326 C 
ATOM      3  O   UNL     1      -4.055  -2.763   4.200  0.00  0.00    -0.249 OA
BRANCH   2   4
ATOM      4  C   UNL     1      -5.103  -0.939   5.261  0.00  0.00    +0.238 C 
BRANCH   4   5
ATOM      5  N   UNL     1      -5.806  -1.995   5.993  0.00  0.00    -0.213 N 
ATOM      6  C   UNL     1      -5.369  -2.535   7.152  0.00  0.00    +0.252 C 
ATOM      7  O   UNL     1      -4.360  -2.252   7.762  0.00  0.00    -0.272 OA
ATOM      8  C   UNL     1      -6.403  -3.566   7.523  0.00  0.00    +0.138 C 
ATOM      9  C   UNL     1      -7.032  -3.257   8.887  0.00  0.00    +0.045 C 
ATOM     10  C   UNL     1      -7.327  -4.671   9.438  0.00  0.00    +0.038 C 
ATOM     11  C   UNL     1      -6.334  -5.581   8.745  0.00  0.00    -0.042 A 
ATOM     12  C   UNL     1      -5.803  -4.940   7.638  0.00  0.00    -0.012 A 
ATOM     13  C   UNL     1      -4.868  -5.592   6.851  0.00  0.00    +0.006 A 
ATOM     14  C   UNL     1      -4.465  -6.875   7.165  0.00  0.00    +0.000 A 
ATOM     15  C   UNL     1      -4.996  -7.514   8.270  0.00  0.00    +0.000 A 
ATOM     16  C   UNL     1      -5.928  -6.867   9.058  0.00  0.00    +0.004 A 
ATOM     17  N   UNL     1      -7.396  -3.495   6.450  0.00  0.00    -0.281 N 
ATOM     18  C   UNL     1      -6.964  -2.541   5.601  0.00  0.00    +0.310 C 
ATOM     19  O   UNL     1      -7.557  -2.216   4.591  0.00  0.00    -0.252 OA
ATOM     20  H   UNL     1      -8.204  -4.025   6.368  0.00  0.00    +0.152 HD
ENDBRANCH   4   5
ENDBRANCH   2   4
ENDBRANCH   1   2
BRANCH   1  21
ATOM     21  C   UNL     1      -2.484  -1.448   2.572  0.00  0.00    +0.311 C 
BRANCH  21  22
ATOM     22  C   UNL     1      -1.722  -0.417   1.779  0.00  0.00    +0.203 C 
ATOM     23  O   UNL     1      -1.920   0.766   1.972  0.00  0.00    -0.288 OA
BRANCH  22  32
ATOM     24  C   UNL     1       1.749  -0.264  -1.775  0.00  0.00    +0.149 C 
ATOM     25  N   UNL     1       0.790  -0.779  -0.794  0.00  0.00    -0.342 N 
ATOM     26  C   UNL     1       0.560  -2.118  -0.547  0.00  0.00    +0.050 A 
ATOM     27  C   UNL     1       1.098  -3.283  -1.085  0.00  0.00    +0.026 A 
ATOM     28  C   UNL     1       0.668  -4.512  -0.635  0.00  0.00    +0.002 A 
ATOM     29  C   UNL     1      -0.301  -4.603   0.353  0.00  0.00    +0.001 A 
ATOM     30  C   UNL     1      -0.847  -3.462   0.898  0.00  0.00    +0.011 A 
ATOM     31  C   UNL     1      -0.421  -2.212   0.453  0.00  0.00    +0.011 A 
ATOM     32  C   UNL     1      -0.778  -0.827   0.812  0.00  0.00    +0.054 A 
ATOM     33  C   UNL     1       0.002  -0.004   0.002  0.00  0.00    +0.061 A 
BRANCH  33  34
ATOM     34  C   UNL     1      -0.018   1.471   0.010  0.00  0.00    -0.001 A 
ATOM     35  C   UNL     1      -1.235   2.157   0.020  0.00  0.00    +0.010 A 
ATOM     36  C   UNL     1      -1.246   3.536   0.032  0.00  0.00    +0.001 A 
ATOM     37  C   UNL     1      -0.056   4.241   0.024  0.00  0.00    +0.000 A 
ATOM     38  C   UNL     1       1.154   3.568   0.010  0.00  0.00    +0.001 A 
ATOM     39  C   UNL     1       1.180   2.189   0.003  0.00  0.00    +0.010 A 
ENDBRANCH  33  34
ENDBRANCH  22  32
ENDBRANCH  21  22
ENDBRANCH   1  21
TORSDOF 7
