REMARK  Name = ZINC20737298
REMARK  7 active torsions:
REMARK  status: ('A' for Active; 'I' for Inactive)
REMARK    1  A    between atoms: C_4  and  C_7
REMARK    2  A    between atoms: C_14  and  C_19
REMARK    3  A    between atoms: N_21  and  C_22
REMARK    4  A    between atoms: C_22  and  C_23
REMARK    5  A    between atoms: C_23  and  C_24
REMARK    6  A    between atoms: C_24  and  N_25
REMARK    7  A    between atoms: N_28  and  C_31
REMARK                            x       y       z     vdW  Elec       q    Type
REMARK                         _______ _______ _______ _____ _____    ______ ____
ROOT
ATOM      1  C   UNL     1       4.185  -1.347  -4.347  0.00  0.00    +0.244 C 
ATOM      2  O   UNL     1       3.873  -2.522  -4.397  0.00  0.00    -0.270 OA
ATOM      3  N   UNL     1       5.128  -0.864  -5.180  0.00  0.00    -0.311 N 
ATOM      4  H   UNL     1       5.410   0.198  -5.134  0.00  0.00    +0.149 HD
ENDROOT
BRANCH   1  12
ATOM      5  C   UNL     1      -1.177   2.176   0.019  0.00  0.00    +0.028 C 
ATOM      6  C   UNL     1      -0.021   1.487  -0.127  0.00  0.00    +0.075 C 
ATOM      7  C   UNL     1       0.018   0.008  -0.095  0.00  0.00    +0.255 C 
ATOM      8  O   UNL     1      -0.822  -0.604   0.537  0.00  0.00    -0.269 OA
ATOM      9  N   UNL     1       0.969  -0.661  -0.754  0.00  0.00    -0.280 N 
ATOM     10  C   UNL     1       1.936  -0.118  -1.591  0.00  0.00    +0.048 A 
ATOM     11  C   UNL     1       2.557  -0.954  -2.512  0.00  0.00    +0.037 A 
ATOM     12  C   UNL     1       3.532  -0.452  -3.373  0.00  0.00    +0.039 A 
ATOM     13  C   UNL     1       3.892   0.898  -3.317  0.00  0.00    +0.014 A 
ATOM     14  C   UNL     1       3.280   1.729  -2.406  0.00  0.00    +0.017 A 
ATOM     15  C   UNL     1       2.310   1.229  -1.547  0.00  0.00    +0.034 A 
ATOM     16  S   UNL     1       1.534   2.304  -0.377  0.00  0.00    -0.082 S 
ATOM     17  H   UNL     1       1.038  -1.755  -0.660  0.00  0.00    +0.155 HD
BRANCH   5  21
ATOM     18  C   UNL     1      -1.098   6.403   0.363  0.00  0.00    +0.000 A 
ATOM     19  C   UNL     1      -2.177   5.781  -0.240  0.00  0.00    +0.001 A 
ATOM     20  C   UNL     1      -2.211   4.408  -0.356  0.00  0.00    +0.008 A 
ATOM     21  C   UNL     1      -1.149   3.642   0.138  0.00  0.00    -0.024 A 
ATOM     22  C   UNL     1      -0.065   4.277   0.752  0.00  0.00    +0.008 A 
ATOM     23  C   UNL     1      -0.044   5.652   0.855  0.00  0.00    +0.001 A 
ENDBRANCH   5  21
ENDBRANCH   1  12
BRANCH   3  24
ATOM     24  C   UNL     1       5.776  -1.754  -6.147  0.00  0.00    +0.106 C 
BRANCH  24  25
ATOM     25  C   UNL     1       6.798  -0.961  -6.964  0.00  0.00    +0.034 C 
BRANCH  25  26
ATOM     26  C   UNL     1       7.476  -1.890  -7.973  0.00  0.00    +0.086 C 
BRANCH  26  27
ATOM     27  N   UNL     1       8.457  -1.129  -8.758  0.00  0.00    -0.306 NA
ATOM     28  C   UNL     1       7.793  -0.126  -9.601  0.00  0.00    +0.066 C 
ATOM     29  C   UNL     1       8.851   0.697 -10.340  0.00  0.00    -0.063 C 
ATOM     30  N   UNL     1       9.686  -0.199 -11.152  0.00  0.00    +0.383 N 
ATOM     31  C   UNL     1      10.350  -1.202 -10.308  0.00  0.00    -0.063 C 
ATOM     32  C   UNL     1       9.292  -2.025  -9.569  0.00  0.00    +0.066 C 
ATOM     33  H   UNL     1       9.030  -0.730 -11.857  0.00  0.00    -0.081 HD
BRANCH  30  34
ATOM     34  C   UNL     1      10.667   0.562 -11.936  0.00  0.00    -0.068 C 
ATOM     35  C   UNL     1      11.553   1.377 -10.992  0.00  0.00    -0.015 C 
ATOM     36  C   UNL     1      12.575   2.170 -11.809  0.00  0.00    -0.002 C 
ATOM     37  C   UNL     1      11.843   3.115 -12.763  0.00  0.00    -0.000 C 
ATOM     38  C   UNL     1      10.957   2.300 -13.707  0.00  0.00    -0.002 C 
ATOM     39  C   UNL     1       9.935   1.507 -12.890  0.00  0.00    -0.015 C 
ENDBRANCH  30  34
ENDBRANCH  26  27
ENDBRANCH  25  26
ENDBRANCH  24  25
ENDBRANCH   3  24
TORSDOF 7
