REMARK  Name = ZINC19529774
REMARK  7 active torsions:
REMARK  status: ('A' for Active; 'I' for Inactive)
REMARK    1  A    between atoms: C_1  and  C_2
REMARK    2  A    between atoms: C_2  and  O_3
REMARK    3  A    between atoms: O_3  and  C_4
REMARK    4  A    between atoms: C_4  and  C_6
REMARK    5  A    between atoms: C_6  and  C_30
REMARK    6  A    between atoms: C_11  and  C_14
REMARK    7  A    between atoms: N_21  and  C_24
REMARK                            x       y       z     vdW  Elec       q    Type
REMARK                         _______ _______ _______ _____ _____    ______ ____
ROOT
ATOM      1  C   UNL     1       1.516  -2.381   2.500  0.00  0.00    +0.041 C 
ATOM      2  C   UNL     1       2.101  -3.741   2.160  0.00  0.00    +0.086 C 
ATOM      3  C   UNL     1       3.470  -3.260   1.544  0.00  0.00    +0.080 C 
ATOM      4  C   UNL     1       3.943  -2.305   2.561  0.00  0.00    +0.010 C 
ATOM      5  N   UNL     1       2.684  -1.522   2.864  0.00  0.00    +0.397 N 
ATOM      6  C   UNL     1       3.910  -4.444   0.850  0.00  0.00    +0.229 C 
ATOM      7  O   UNL     1       5.050  -4.828   0.697  0.00  0.00    -0.275 OA
ATOM      8  N   UNL     1       2.760  -5.042   0.398  0.00  0.00    -0.210 N 
ATOM      9  C   UNL     1       1.623  -4.524   0.978  0.00  0.00    +0.229 C 
ATOM     10  O   UNL     1       0.476  -4.665   0.610  0.00  0.00    -0.275 OA
ATOM     11  C   UNL     1       0.555  -2.496   3.685  0.00  0.00    +0.002 C 
ATOM     12  H   UNL     1       2.664  -0.671   2.322  0.00  0.00    -0.083 HD
ATOM     13  H   UNL     1       2.653  -1.302   3.848  0.00  0.00    -0.083 HD
ENDROOT
BRANCH   8  14
ATOM     14  C   UNL     1       2.742  -6.077  -0.547  0.00  0.00    +0.044 A 
ATOM     15  C   UNL     1       1.533  -6.625  -0.956  0.00  0.00    +0.024 A 
ATOM     16  C   UNL     1       1.519  -7.645  -1.887  0.00  0.00    +0.002 A 
ATOM     17  C   UNL     1       2.706  -8.121  -2.411  0.00  0.00    +0.000 A 
ATOM     18  C   UNL     1       3.911  -7.578  -2.006  0.00  0.00    +0.002 A 
ATOM     19  C   UNL     1       3.932  -6.554  -1.079  0.00  0.00    +0.024 A 
ENDBRANCH   8  14
BRANCH   4  20
ATOM     20  C   UNL     1       4.456  -3.029   3.779  0.00  0.00    +0.092 A 
ATOM     21  C   UNL     1       5.749  -3.264   4.067  0.00  0.00    +0.043 A 
ATOM     22  C   UNL     1       5.773  -3.967   5.294  0.00  0.00    +0.041 A 
ATOM     23  C   UNL     1       4.494  -4.119   5.682  0.00  0.00    +0.195 A 
ATOM     24  O   UNL     1       3.701  -3.544   4.763  0.00  0.00    -0.469 OA
ENDBRANCH   4  20
BRANCH   1  25
ATOM     25  C   UNL     1       0.801  -1.808   1.304  0.00  0.00    +0.297 C 
ATOM     26  O   UNL     1       0.324  -2.546   0.475  0.00  0.00    -0.252 OA
BRANCH  25  27
ATOM     27  O   UNL     1       0.693  -0.477   1.160  0.00  0.00    -0.466 OA
BRANCH  27  29
ATOM     28  C   UNL     1      -0.019   1.526   0.010  0.00  0.00    +0.048 C 
ATOM     29  C   UNL     1       0.002  -0.004   0.002  0.00  0.00    +0.228 C 
ENDBRANCH  27  29
ENDBRANCH  25  27
ENDBRANCH   1  25
TORSDOF 5
