REMARK  Name = ZINC08708555
REMARK  6 active torsions:
REMARK  status: ('A' for Active; 'I' for Inactive)
REMARK    1  A    between atoms: C_1  and  C_2
REMARK    2  A    between atoms: N_10  and  C_11
REMARK    3  A    between atoms: C_11  and  C_13
REMARK    4  A    between atoms: C_13  and  N_14
REMARK    5  A    between atoms: C_17  and  C_21
REMARK    6  A    between atoms: C_17  and  C_22
REMARK                            x       y       z     vdW  Elec       q    Type
REMARK                         _______ _______ _______ _____ _____    ______ ____
ROOT
ATOM      1  C   UNL     1       0.102  -6.317   3.038  0.00  0.00    +0.256 C 
ATOM      2  O   UNL     1       0.095  -5.451   3.892  0.00  0.00    -0.272 OA
ENDROOT
BRANCH   1  12
ATOM      3  C   UNL     1      -0.018   1.503   0.010  0.00  0.00    +0.044 C 
ATOM      4  C   UNL     1       0.002  -0.004   0.002  0.00  0.00    -0.049 A 
ATOM      5  C   UNL     1       0.006  -0.697  -1.197  0.00  0.00    +0.005 A 
ATOM      6  C   UNL     1       0.024  -2.072  -1.225  0.00  0.00    +0.027 A 
ATOM      7  C   UNL     1       0.040  -2.810  -0.034  0.00  0.00    +0.055 A 
ATOM      8  C   UNL     1       0.036  -2.084   1.166  0.00  0.00    +0.039 A 
ATOM      9  C   UNL     1       0.023  -0.709   1.192  0.00  0.00    +0.020 A 
ATOM     10  S   UNL     1       0.059  -3.352   2.405  0.00  0.00    -0.052 S 
ATOM     11  C   UNL     1       0.071  -4.698   1.399  0.00  0.00    +0.164 A 
ATOM     12  N   UNL     1       0.090  -5.982   1.752  0.00  0.00    -0.155 NA
ATOM     13  N   UNL     1       0.059  -4.181   0.144  0.00  0.00    -0.335 N 
ATOM     14  H   UNL     1       0.063  -4.771  -0.626  0.00  0.00    +0.168 HD
ENDBRANCH   1  12
BRANCH   1  15
ATOM     15  C   UNL     1       0.124  -7.770   3.438  0.00  0.00    +0.215 C 
BRANCH  15  16
ATOM     16  N   UNL     1       0.133  -7.874   4.899  0.00  0.00    -0.215 N 
ATOM     17  C   UNL     1       1.253  -7.907   5.648  0.00  0.00    +0.247 C 
ATOM     18  O   UNL     1       2.399  -7.859   5.255  0.00  0.00    -0.273 OA
ATOM     19  C   UNL     1       0.781  -8.017   7.085  0.00  0.00    +0.113 C 
ATOM     20  N   UNL     1      -0.687  -8.035   6.967  0.00  0.00    -0.285 N 
ATOM     21  C   UNL     1      -0.969  -7.941   5.655  0.00  0.00    +0.310 C 
ATOM     22  O   UNL     1      -2.098  -7.924   5.206  0.00  0.00    -0.252 OA
ATOM     23  C   UNL     1       1.286  -9.315   7.719  0.00  0.00    +0.042 C 
ATOM     24  H   UNL     1      -1.326  -8.098   7.694  0.00  0.00    +0.151 HD
BRANCH  19  25
ATOM     25  C   UNL     1       1.242  -6.805   7.897  0.00  0.00    +0.021 C 
ATOM     26  C   UNL     1       2.382  -7.016   8.895  0.00  0.00    +0.006 C 
ATOM     27  C   UNL     1       0.952  -6.810   9.399  0.00  0.00    +0.006 C 
ENDBRANCH  19  25
ENDBRANCH  15  16
ENDBRANCH   1  15
TORSDOF 4
