REMARK  Name = ZINC08972172
REMARK  5 active torsions:
REMARK  status: ('A' for Active; 'I' for Inactive)
REMARK    1  A    between atoms: C_1  and  C_2
REMARK    2  A    between atoms: C_3  and  C_21
REMARK    3  A    between atoms: C_4  and  C_16
REMARK    4  A    between atoms: C_21  and  O_23
REMARK    5  A    between atoms: O_23  and  C_24
REMARK                            x       y       z     vdW  Elec       q    Type
REMARK                         _______ _______ _______ _____ _____    ______ ____
ROOT
ATOM      1  C   UNL     1      -0.018   1.503   0.010  0.00  0.00    +0.066 C 
ATOM      2  C   UNL     1       0.002  -0.004   0.002  0.00  0.00    +0.054 C 
ATOM      3  C   UNL     1      -1.184  -0.687   0.004  0.00  0.00    +0.083 C 
ATOM      4  C   UNL     1      -1.107  -2.203  -0.005  0.00  0.00    +0.157 C 
ATOM      5  N   UNL     1       0.244  -2.785  -0.014  0.00  0.00    -0.259 N 
ATOM      6  C   UNL     1       0.697  -4.097  -0.024  0.00  0.00    +0.058 A 
ATOM      7  C   UNL     1       0.050  -5.325  -0.028  0.00  0.00    +0.025 A 
ATOM      8  C   UNL     1       0.787  -6.492  -0.038  0.00  0.00    +0.002 A 
ATOM      9  C   UNL     1       2.171  -6.443  -0.044  0.00  0.00    +0.002 A 
ATOM     10  C   UNL     1       2.825  -5.228  -0.040  0.00  0.00    +0.025 A 
ATOM     11  C   UNL     1       2.093  -4.048  -0.030  0.00  0.00    +0.055 A 
ATOM     12  N   UNL     1       2.456  -2.707  -0.025  0.00  0.00    -0.285 N 
ATOM     13  C   UNL     1       1.319  -1.948  -0.015  0.00  0.00    +0.193 C 
ATOM     14  N   UNL     1       1.166  -0.633  -0.013  0.00  0.00    -0.222 NA
ATOM     15  H   UNL     1       3.365  -2.366  -0.027  0.00  0.00    +0.155 HD
ENDROOT
BRANCH   4  16
ATOM     16  C   UNL     1      -1.825  -2.716   1.217  0.00  0.00    +0.015 A 
ATOM     17  C   UNL     1      -3.077  -3.225   1.320  0.00  0.00    +0.013 A 
ATOM     18  C   UNL     1      -3.533  -3.639   2.557  0.00  0.00    +0.008 A 
ATOM     19  C   UNL     1      -2.714  -3.524   3.631  0.00  0.00    +0.045 A 
ATOM     20  S   UNL     1      -1.246  -2.818   2.902  0.00  0.00    -0.099 S 
ENDBRANCH   4  16
BRANCH   3  21
ATOM     21  C   UNL     1      -2.416  -0.016   0.014  0.00  0.00    +0.339 C 
ATOM     22  O   UNL     1      -2.446   1.202   0.021  0.00  0.00    -0.245 OA
BRANCH  21  23
ATOM     23  O   UNL     1      -3.569  -0.721   0.016  0.00  0.00    -0.465 OA
ATOM     24  C   UNL     1      -4.786   0.028   0.026  0.00  0.00    +0.280 C 
ENDBRANCH  21  23
ENDBRANCH   3  21
TORSDOF 3
