REMARK  Name = ZINC41512011
REMARK  6 active torsions:
REMARK  status: ('A' for Active; 'I' for Inactive)
REMARK    1  A    between atoms: C_1  and  C_2
REMARK    2  A    between atoms: C_4  and  O_27
REMARK    3  A    between atoms: C_5  and  C_18
REMARK    4  A    between atoms: C_11  and  C_12
REMARK    5  A    between atoms: C_18  and  N_19
REMARK    6  A    between atoms: C_23  and  C_26
REMARK                            x       y       z     vdW  Elec       q    Type
REMARK                         _______ _______ _______ _____ _____    ______ ____
ROOT
ATOM      1  C   UNL     1      -1.123   1.481   0.148  0.00  0.00    +0.045 C 
ATOM      2  C   UNL     1      -0.873  -0.004   0.097  0.00  0.00    -0.033 A 
ATOM      3  C   UNL     1      -0.924  -0.666  -1.098  0.00  0.00    +0.050 A 
ATOM      4  C   UNL     1      -0.694  -2.038  -1.149  0.00  0.00    +0.122 A 
ATOM      5  C   UNL     1      -0.412  -2.749   0.006  0.00  0.00    +0.020 A 
ATOM      6  C   UNL     1      -0.356  -2.091   1.227  0.00  0.00    +0.145 A 
ATOM      7  C   UNL     1      -0.584  -0.705   1.267  0.00  0.00    +0.071 A 
ATOM      8  C   UNL     1      -0.450  -0.310   2.680  0.00  0.00    +0.232 C 
ATOM      9  O   UNL     1      -0.577   0.808   3.152  0.00  0.00    -0.283 OA
ATOM     10  C   UNL     1      -0.143  -1.510   3.374  0.00  0.00    +0.177 C 
ATOM     11  C   UNL     1       0.069  -1.622   4.718  0.00  0.00    +0.065 C 
ATOM     12  O   UNL     1      -0.108  -2.527   2.481  0.00  0.00    -0.451 OA
ENDROOT
BRANCH  11  13
ATOM     13  C   UNL     1       0.167  -0.461   5.516  0.00  0.00    +0.016 A 
ATOM     14  C   UNL     1      -0.255  -0.259   6.828  0.00  0.00    +0.015 A 
ATOM     15  C   UNL     1      -0.019   0.993   7.341  0.00  0.00    +0.008 A 
ATOM     16  C   UNL     1       0.591   1.922   6.563  0.00  0.00    +0.046 A 
ATOM     17  S   UNL     1       0.871   1.126   5.110  0.00  0.00    -0.097 S 
ENDBRANCH  11  13
BRANCH   4  18
ATOM     18  O   UNL     1      -0.748  -2.686  -2.341  0.00  0.00    -0.506 OA
ATOM     19  H   UNL     1       0.100  -2.724  -2.806  0.00  0.00    +0.292 HD
ENDBRANCH   4  18
BRANCH   5  20
ATOM     20  C   UNL     1      -0.166  -4.234  -0.062  0.00  0.00    -0.036 C 
BRANCH  20  21
ATOM     21  N   UNL     1       1.266  -4.484  -0.272  0.00  0.00    +0.383 N 
ATOM     22  C   UNL     1       1.667  -3.955  -1.581  0.00  0.00    -0.078 C 
ATOM     23  C   UNL     1       3.174  -4.140  -1.770  0.00  0.00    -0.018 C 
ATOM     24  C   UNL     1       3.513  -5.632  -1.695  0.00  0.00    -0.001 C 
ATOM     25  C   UNL     1       3.023  -6.190  -0.355  0.00  0.00    -0.031 C 
ATOM     26  C   UNL     1       1.522  -5.929  -0.219  0.00  0.00    -0.075 C 
ATOM     27  C   UNL     1       3.288  -7.696  -0.302  0.00  0.00    +0.005 C 
ATOM     28  H   UNL     1       1.796  -4.023   0.452  0.00  0.00    -0.081 HD
ENDBRANCH  20  21
ENDBRANCH   5  20
TORSDOF 4
