REMARK  Name = ZINC39687523
REMARK  5 active torsions:
REMARK  status: ('A' for Active; 'I' for Inactive)
REMARK    1  A    between atoms: C_1  and  C_2
REMARK    2  A    between atoms: C_5  and  C_8
REMARK    3  A    between atoms: C_8  and  C_9
REMARK    4  A    between atoms: C_13  and  C_22
REMARK    5  A    between atoms: N_24  and  C_25
REMARK                            x       y       z     vdW  Elec       q    Type
REMARK                         _______ _______ _______ _____ _____    ______ ____
ROOT
ATOM      1  C   UNL     1       1.498  -4.806  -0.003  0.00  0.00    +0.220 C 
ATOM      2  O   UNL     1       2.394  -3.989  -0.004  0.00  0.00    -0.275 OA
ATOM      3  N   UNL     1       1.785  -6.122  -0.033  0.00  0.00    -0.300 N 
ATOM      4  C   UNL     1       0.835  -7.259  -0.043  0.00  0.00    +0.121 C 
ATOM      5  C   UNL     1       1.458  -8.281  -1.020  0.00  0.00    +0.100 C 
ATOM      6  C   UNL     1       2.960  -7.949  -1.028  0.00  0.00    -0.004 C 
ATOM      7  C   UNL     1       3.123  -6.760  -0.071  0.00  0.00    +0.115 C 
ATOM      8  C   UNL     1       3.768  -9.144  -0.530  0.00  0.00    -0.010 C 
ATOM      9  C   UNL     1       5.261  -8.811  -0.602  0.00  0.00    -0.082 C 
ATOM     10  N   UNL     1       5.626  -8.491  -1.988  0.00  0.00    +0.379 N 
ATOM     11  C   UNL     1       4.914  -7.285  -2.428  0.00  0.00    -0.082 C 
ATOM     12  C   UNL     1       3.406  -7.554  -2.433  0.00  0.00    -0.010 C 
ATOM     13  H   UNL     1       6.621  -8.331  -2.043  0.00  0.00    -0.086 HD
ATOM     14  H   UNL     1       5.378  -9.264  -2.586  0.00  0.00    -0.086 HD
ENDROOT
BRANCH   5  15
ATOM     15  C   UNL     1       0.874  -8.113  -2.398  0.00  0.00    +0.218 C 
ATOM     16  O   UNL     1       0.417  -7.042  -2.737  0.00  0.00    -0.275 OA
ATOM     17  N   UNL     1       0.859  -9.153  -3.255  0.00  0.00    -0.312 N 
ATOM     18  H   UNL     1       1.225 -10.010  -2.984  0.00  0.00    +0.149 HD
BRANCH  17  19
ATOM     19  C   UNL     1       0.291  -8.990  -4.596  0.00  0.00    +0.076 C 
ATOM     20  C   UNL     1      -1.223  -9.204  -4.537  0.00  0.00    +0.041 C 
ATOM     21  C   UNL     1      -1.819  -8.999  -5.934  0.00  0.00    +0.108 C 
ATOM     22  N   UNL     1      -1.121  -9.881  -6.879  0.00  0.00    -0.317 N 
ATOM     23  C   UNL     1       0.346  -9.821  -6.951  0.00  0.00    +0.108 C 
ATOM     24  C   UNL     1       0.916 -10.017  -5.543  0.00  0.00    +0.041 C 
ATOM     25  C   UNL     1      -1.834 -10.755  -7.691  0.00  0.00    +0.099 A 
ATOM     26  C   UNL     1      -1.152 -11.677  -8.479  0.00  0.00    +0.042 A 
ATOM     27  C   UNL     1      -1.874 -12.541  -9.281  0.00  0.00    +0.005 A 
ATOM     28  C   UNL     1      -3.260 -12.455  -9.268  0.00  0.00    +0.018 A 
ATOM     29  C   UNL     1      -3.872 -11.517  -8.462  0.00  0.00    +0.084 A 
ATOM     30  N   UNL     1      -3.157 -10.708  -7.702  0.00  0.00    -0.350 N 
ATOM     31  H   UNL     1      -3.612 -10.060  -7.141  0.00  0.00    +0.166 HD
ENDBRANCH  17  19
ENDBRANCH   5  15
BRANCH   1  32
ATOM     32  C   UNL     1       0.062  -4.348   0.034  0.00  0.00    +0.131 C 
BRANCH  32  37
ATOM     33  C   UNL     1      -0.121   1.426   0.146  0.00  0.00    +0.044 C 
ATOM     34  C   UNL     1      -0.073  -0.080   0.117  0.00  0.00    -0.050 A 
ATOM     35  C   UNL     1      -0.073  -0.748  -1.093  0.00  0.00    +0.003 A 
ATOM     36  C   UNL     1      -0.029  -2.129  -1.120  0.00  0.00    +0.004 A 
ATOM     37  C   UNL     1       0.015  -2.842   0.063  0.00  0.00    -0.039 A 
ATOM     38  C   UNL     1       0.016  -2.174   1.273  0.00  0.00    +0.004 A 
ATOM     39  C   UNL     1      -0.023  -0.793   1.300  0.00  0.00    +0.003 A 
ENDBRANCH  32  37
ENDBRANCH   1  32
TORSDOF 4
