REMARK  Name = ZINC40066452
REMARK  10 active torsions:
REMARK  status: ('A' for Active; 'I' for Inactive)
REMARK    1  A    between atoms: C_1  and  C_2
REMARK    2  A    between atoms: C_2  and  N_3
REMARK    3  A    between atoms: C_4  and  N_29
REMARK    4  A    between atoms: C_5  and  C_13
REMARK    5  A    between atoms: C_6  and  C_12
REMARK    6  A    between atoms: C_7  and  C_10
REMARK    7  A    between atoms: N_17  and  C_21
REMARK    8  A    between atoms: C_21  and  C_22
REMARK    9  A    between atoms: N_29  and  C_30
REMARK   10  A    between atoms: C_30  and  C_31
REMARK                            x       y       z     vdW  Elec       q    Type
REMARK                         _______ _______ _______ _____ _____    ______ ____
ROOT
ATOM      1  N   UNL     1       0.750  -0.466   1.149  0.00  0.00    -0.296 N 
ATOM      2  C   UNL     1       2.075  -0.745   1.040  0.00  0.00    +0.109 A 
ATOM      3  C   UNL     1       2.808  -1.174   2.159  0.00  0.00    +0.019 A 
ATOM      4  C   UNL     1       2.160  -1.314   3.398  0.00  0.00    -0.017 A 
ATOM      5  C   UNL     1       0.801  -1.021   3.483  0.00  0.00    +0.120 A 
ATOM      6  C   UNL     1       0.108  -0.587   2.325  0.00  0.00    +0.270 A 
ATOM      7  O   UNL     1      -1.080  -0.325   2.395  0.00  0.00    -0.266 OA
ATOM      8  C   UNL     1       2.922  -1.773   4.614  0.00  0.00    +0.046 C 
ENDROOT
BRANCH   3   9
ATOM      9  C   UNL     1       4.236  -1.474   2.035  0.00  0.00    +0.032 C 
ATOM     10  C   UNL     1       5.093  -0.524   1.572  0.00  0.00    +0.077 C 
ATOM     11  C   UNL     1       6.498  -0.606   1.335  0.00  0.00    +0.259 C 
ATOM     12  O   UNL     1       7.111  -1.637   1.549  0.00  0.00    -0.269 OA
ATOM     13  N   UNL     1       7.115   0.469   0.875  0.00  0.00    -0.251 N 
ATOM     14  C   UNL     1       6.434   1.612   0.638  0.00  0.00    +0.121 C 
ATOM     15  S   UNL     1       7.023   3.109   0.050  0.00  0.00    -0.027 S 
ATOM     16  S   UNL     1       4.764   1.165   1.086  0.00  0.00    -0.061 S 
BRANCH  13  17
ATOM     17  C   UNL     1       8.556   0.421   0.621  0.00  0.00    +0.150 C 
BRANCH  17  18
ATOM     18  C   UNL     1       8.801  -0.021  -0.799  0.00  0.00    -0.029 A 
ATOM     19  C   UNL     1       8.934  -1.366  -1.090  0.00  0.00    +0.008 A 
ATOM     20  C   UNL     1       9.158  -1.773  -2.392  0.00  0.00    +0.038 A 
ATOM     21  C   UNL     1       9.250  -0.833  -3.404  0.00  0.00    +0.123 A 
ATOM     22  C   UNL     1       9.117   0.514  -3.111  0.00  0.00    +0.038 A 
ATOM     23  C   UNL     1       8.888   0.918  -1.810  0.00  0.00    +0.008 A 
ATOM     24  F   UNL     1       9.469  -1.229  -4.677  0.00  0.00    -0.205 F 
ENDBRANCH  17  18
ENDBRANCH  13  17
ENDBRANCH   3   9
BRANCH   1  26
ATOM     25  C   UNL     1       0.170   1.492  -0.196  0.00  0.00    +0.027 C 
ATOM     26  C   UNL     1       0.009  -0.021  -0.033  0.00  0.00    +0.123 C 
ENDBRANCH   1  26
BRANCH   5  27
ATOM     27  C   UNL     1       0.111  -1.154   4.731  0.00  0.00    +0.105 C 
ATOM     28  N   UNL     1      -0.436  -1.259   5.721  0.00  0.00    -0.191 NA
ENDBRANCH   5  27
BRANCH   2  29
ATOM     29  N   UNL     1       2.698  -0.608  -0.165  0.00  0.00    -0.326 N 
ATOM     30  H   UNL     1       3.033   0.260  -0.442  0.00  0.00    +0.148 HD
BRANCH  29  31
ATOM     31  C   UNL     1       2.862  -1.770  -1.042  0.00  0.00    +0.138 C 
BRANCH  31  32
ATOM     32  C   UNL     1       3.581  -1.353  -2.299  0.00  0.00    -0.030 A 
ATOM     33  C   UNL     1       2.860  -0.913  -3.394  0.00  0.00    +0.005 A 
ATOM     34  C   UNL     1       3.519  -0.531  -4.547  0.00  0.00    +0.000 A 
ATOM     35  C   UNL     1       4.899  -0.589  -4.606  0.00  0.00    +0.000 A 
ATOM     36  C   UNL     1       5.620  -1.028  -3.511  0.00  0.00    +0.000 A 
ATOM     37  C   UNL     1       4.961  -1.406  -2.356  0.00  0.00    +0.005 A 
ENDBRANCH  31  32
ENDBRANCH  29  31
ENDBRANCH   2  29
TORSDOF 8
