REMARK  Name = ZINC63078612
REMARK  9 active torsions:
REMARK  status: ('A' for Active; 'I' for Inactive)
REMARK    1  A    between atoms: C_1  and  C_2
REMARK    2  A    between atoms: C_2  and  C_4
REMARK    3  A    between atoms: C_2  and  O_8
REMARK    4  A    between atoms: C_4  and  C_5
REMARK    5  A    between atoms: C_5  and  C_6
REMARK    6  A    between atoms: C_5  and  C_7
REMARK    7  A    between atoms: O_8  and  C_9
REMARK    8  A    between atoms: C_9  and  C_10
REMARK    9  A    between atoms: N_16  and  C_17
REMARK                            x       y       z     vdW  Elec       q    Type
REMARK                         _______ _______ _______ _____ _____    ______ ____
ROOT
ATOM      1  C   UNL     1      -3.233  -1.238  -1.397  0.00  0.00    +0.158 A 
ATOM      2  N   UNL     1      -3.427  -2.538  -1.350  0.00  0.00    -0.210 NA
ATOM      3  C   UNL     1      -4.660  -3.037  -1.320  0.00  0.00    +0.163 A 
ATOM      4  C   UNL     1      -5.752  -2.142  -1.338  0.00  0.00    +0.075 A 
ATOM      5  C   UNL     1      -6.955  -2.962  -1.297  0.00  0.00    +0.147 A 
ATOM      6  N   UNL     1      -6.581  -4.210  -1.259  0.00  0.00    -0.177 NA
ATOM      7  N   UNL     1      -5.185  -4.293  -1.271  0.00  0.00    -0.249 N 
ATOM      8  C   UNL     1      -4.409  -5.536  -1.237  0.00  0.00    +0.174 C 
ATOM      9  C   UNL     1      -5.489  -0.769  -1.389  0.00  0.00    +0.144 A 
ATOM     10  N   UNL     1      -4.229  -0.369  -1.410  0.00  0.00    -0.217 NA
ATOM     11 CL   UNL     1      -6.788   0.383  -1.414  0.00  0.00    -0.061 Cl
ENDROOT
BRANCH   1  12
ATOM     12  C   UNL     1      -1.819  -0.719  -1.430  0.00  0.00    +0.236 C 
BRANCH  12  13
ATOM     13  O   UNL     1      -1.355  -0.514  -0.094  0.00  0.00    -0.369 OA
BRANCH  13  15
ATOM     14  C   UNL     1      -0.037   1.510  -0.017  0.00  0.00    +0.038 C 
ATOM     15  C   UNL     1      -0.017  -0.020  -0.012  0.00  0.00    +0.116 C 
BRANCH  15  16
ATOM     16  C   UNL     1       0.633  -0.517   1.281  0.00  0.00    +0.034 C 
BRANCH  16  17
ATOM     17  C   UNL     1       0.763  -2.041   1.233  0.00  0.00    -0.015 C 
ATOM     18  C   UNL     1       1.748  -2.434   0.130  0.00  0.00    +0.007 C 
ATOM     19  C   UNL     1       1.276  -2.551   2.581  0.00  0.00    +0.007 C 
ENDBRANCH  16  17
ENDBRANCH  15  16
ENDBRANCH  13  15
ENDBRANCH  12  13
ENDBRANCH   1  12
TORSDOF 5
