REMARK  Name = ZINC35815651
REMARK  12 active torsions:
REMARK  status: ('A' for Active; 'I' for Inactive)
REMARK    1  A    between atoms: C_1  and  C_2
REMARK    2  A    between atoms: C_5  and  C_8
REMARK    3  A    between atoms: C_8  and  N_9
REMARK    4  A    between atoms: N_9  and  C_10
REMARK    5  A    between atoms: N_9  and  C_25
REMARK    6  A    between atoms: C_10  and  C_11
REMARK    7  A    between atoms: C_11  and  C_12
REMARK    8  A    between atoms: C_12  and  C_13
REMARK    9  A    between atoms: C_12  and  C_19
REMARK   10  A    between atoms: C_25  and  C_26
REMARK   11  A    between atoms: C_28  and  C_31
REMARK   12  A    between atoms: N_33  and  C_34
REMARK                            x       y       z     vdW  Elec       q    Type
REMARK                         _______ _______ _______ _____ _____    ______ ____
ROOT
ATOM      1  N   UNL     1      -0.496  -5.561  -0.158  0.00  0.00    +0.386 N 
ATOM      2  H   UNL     1      -0.396  -4.698  -0.670  0.00  0.00    -0.081 HD
ENDROOT
BRANCH   1   3
ATOM      3  C   UNL     1      -1.920  -5.814   0.102  0.00  0.00    -0.042 C 
BRANCH   3   8
ATOM      4  C   UNL     1      -4.243  -1.225   2.736  0.00  0.00    +0.044 C 
ATOM      5  C   UNL     1      -3.637  -2.422   2.049  0.00  0.00    -0.050 A 
ATOM      6  C   UNL     1      -3.502  -2.434   0.673  0.00  0.00    +0.003 A 
ATOM      7  C   UNL     1      -2.946  -3.532   0.043  0.00  0.00    +0.002 A 
ATOM      8  C   UNL     1      -2.525  -4.617   0.789  0.00  0.00    -0.064 A 
ATOM      9  C   UNL     1      -2.660  -4.604   2.165  0.00  0.00    +0.002 A 
ATOM     10  C   UNL     1      -3.212  -3.505   2.795  0.00  0.00    +0.003 A 
ENDBRANCH   3   8
ENDBRANCH   1   3
BRANCH   1  11
ATOM     11  C   UNL     1       0.061  -6.667  -0.949  0.00  0.00    -0.077 C 
BRANCH  11  12
ATOM     12  C   UNL     1      -0.604  -6.694  -2.327  0.00  0.00    -0.006 C 
BRANCH  12  13
ATOM     13  C   UNL     1      -0.024  -7.846  -3.150  0.00  0.00    +0.047 C 
BRANCH  13  14
ATOM     14  C   UNL     1      -0.763  -7.949  -4.459  0.00  0.00    -0.040 A 
ATOM     15  C   UNL     1      -1.332  -9.150  -4.839  0.00  0.00    +0.004 A 
ATOM     16  C   UNL     1      -2.010  -9.245  -6.040  0.00  0.00    +0.000 A 
ATOM     17  C   UNL     1      -2.120  -8.138  -6.861  0.00  0.00    +0.000 A 
ATOM     18  C   UNL     1      -1.552  -6.937  -6.481  0.00  0.00    +0.000 A 
ATOM     19  C   UNL     1      -0.878  -6.841  -5.278  0.00  0.00    +0.004 A 
ENDBRANCH  13  14
BRANCH  13  20
ATOM     20  C   UNL     1       1.436  -7.586  -3.417  0.00  0.00    -0.040 A 
ATOM     21  C   UNL     1       1.835  -6.384  -3.971  0.00  0.00    +0.004 A 
ATOM     22  C   UNL     1       3.175  -6.146  -4.216  0.00  0.00    +0.000 A 
ATOM     23  C   UNL     1       4.115  -7.111  -3.907  0.00  0.00    +0.000 A 
ATOM     24  C   UNL     1       3.717  -8.313  -3.352  0.00  0.00    +0.000 A 
ATOM     25  C   UNL     1       2.378  -8.549  -3.103  0.00  0.00    +0.004 A 
ENDBRANCH  13  20
ENDBRANCH  12  13
ENDBRANCH  11  12
ENDBRANCH   1  11
BRANCH   1  26
ATOM     26  C   UNL     1       0.225  -5.461   1.118  0.00  0.00    -0.014 C 
BRANCH  26  27
ATOM     27  C   UNL     1       1.657  -5.074   0.857  0.00  0.00    +0.063 A 
ATOM     28  N   UNL     1       2.147  -3.878   0.670  0.00  0.00    -0.241 NA
ATOM     29  C   UNL     1       3.460  -3.757   0.452  0.00  0.00    +0.133 A 
ATOM     30  C   UNL     1       4.179  -4.923   0.446  0.00  0.00    +0.079 A 
ATOM     31  S   UNL     1       2.998  -6.078   0.745  0.00  0.00    -0.082 S 
BRANCH  29  32
ATOM     32  C   UNL     1       4.096  -2.448   0.231  0.00  0.00    +0.263 C 
ATOM     33  O   UNL     1       5.277  -2.385  -0.054  0.00  0.00    -0.269 OA
ATOM     34  N   UNL     1       3.370  -1.318   0.345  0.00  0.00    -0.307 N 
ATOM     35  H   UNL     1       2.446  -1.363   0.638  0.00  0.00    +0.149 HD
BRANCH  34  36
ATOM     36  C   UNL     1       3.976  -0.022   0.028  0.00  0.00    +0.073 C 
ATOM     37  C   UNL     1       3.700   1.140   0.984  0.00  0.00    +0.024 C 
ATOM     38  C   UNL     1       3.040   1.111  -0.396  0.00  0.00    +0.024 C 
ENDBRANCH  34  36
ENDBRANCH  29  32
ENDBRANCH  26  27
ENDBRANCH   1  26
TORSDOF 11
