REMARK  Name = ZINC35292862
REMARK  16 active torsions:
REMARK  status: ('A' for Active; 'I' for Inactive)
REMARK    1  A    between atoms: C_1  and  C_2
REMARK    2  A    between atoms: C_2  and  O_3
REMARK    3  A    between atoms: O_3  and  C_4
REMARK    4  A    between atoms: C_4  and  C_6
REMARK    5  A    between atoms: C_7  and  C_37
REMARK    6  A    between atoms: N_8  and  C_28
REMARK    7  A    between atoms: C_12  and  C_14
REMARK    8  A    between atoms: C_17  and  O_20
REMARK    9  A    between atoms: O_20  and  C_21
REMARK   10  A    between atoms: C_21  and  C_22
REMARK   11  A    between atoms: C_28  and  C_29
REMARK   12  A    between atoms: N_31  and  C_32
REMARK   13  A    between atoms: C_32  and  C_33
REMARK   14  A    between atoms: C_33  and  N_34
REMARK   15  A    between atoms: N_34  and  C_35
REMARK   16  A    between atoms: N_34  and  C_36
REMARK                            x       y       z     vdW  Elec       q    Type
REMARK                         _______ _______ _______ _____ _____    ______ ____
ROOT
ATOM      1  C   UNL     1       1.396  -2.668  -2.726  0.00  0.00    +0.061 C 
ATOM      2  C   UNL     1       1.876  -3.912  -2.894  0.00  0.00    +0.021 C 
ATOM      3  N   UNL     1       2.860  -4.175  -3.809  0.00  0.00    -0.266 N 
ATOM      4  C   UNL     1       3.575  -3.180  -4.364  0.00  0.00    +0.221 C 
ATOM      5  O   UNL     1       4.379  -3.428  -5.237  0.00  0.00    -0.275 OA
ATOM      6  C   UNL     1       3.378  -1.758  -3.905  0.00  0.00    +0.109 C 
ATOM      7  C   UNL     1       1.897  -1.532  -3.579  0.00  0.00    +0.066 C 
ATOM      8  C   UNL     1       1.321  -5.037  -2.060  0.00  0.00    +0.061 C 
ENDROOT
BRANCH   7   9
ATOM      9  C   UNL     1       1.100  -1.473  -4.857  0.00  0.00    -0.039 A 
ATOM     10  C   UNL     1       0.965  -2.605  -5.639  0.00  0.00    +0.008 A 
ATOM     11  C   UNL     1       0.235  -2.554  -6.811  0.00  0.00    +0.046 A 
ATOM     12  C   UNL     1      -0.363  -1.365  -7.202  0.00  0.00    +0.121 A 
ATOM     13  C   UNL     1      -0.227  -0.231  -6.415  0.00  0.00    +0.046 A 
ATOM     14  C   UNL     1       0.500  -0.288  -5.242  0.00  0.00    +0.008 A 
BRANCH  12  15
ATOM     15  O   UNL     1      -1.081  -1.312  -8.354  0.00  0.00    -0.487 OA
BRANCH  15  16
ATOM     16  C   UNL     1      -1.669  -0.055  -8.695  0.00  0.00    +0.264 C 
BRANCH  16  17
ATOM     17  C   UNL     1      -2.421  -0.187  -9.995  0.00  0.00    -0.010 A 
ATOM     18  C   UNL     1      -1.774   0.046 -11.194  0.00  0.00    +0.007 A 
ATOM     19  C   UNL     1      -2.464  -0.075 -12.386  0.00  0.00    +0.000 A 
ATOM     20  C   UNL     1      -3.800  -0.431 -12.378  0.00  0.00    +0.000 A 
ATOM     21  C   UNL     1      -4.446  -0.665 -11.179  0.00  0.00    +0.000 A 
ATOM     22  C   UNL     1      -3.756  -0.548  -9.987  0.00  0.00    +0.007 A 
ENDBRANCH  16  17
ENDBRANCH  15  16
ENDBRANCH  12  15
ENDBRANCH   7   9
BRANCH   1  23
ATOM     23  C   UNL     1       0.407  -2.424  -1.743  0.00  0.00    +0.337 C 
ATOM     24  O   UNL     1       0.719  -1.930  -0.676  0.00  0.00    -0.245 OA
BRANCH  23  25
ATOM     25  O   UNL     1      -0.881  -2.740  -1.990  0.00  0.00    -0.462 OA
BRANCH  25  27
ATOM     26  C   UNL     1      -3.224  -2.889  -1.413  0.00  0.00    +0.048 C 
ATOM     27  C   UNL     1      -1.826  -2.467  -0.954  0.00  0.00    +0.229 C 
ENDBRANCH  25  27
ENDBRANCH  23  25
ENDBRANCH   1  23
BRANCH   3  28
ATOM     28  C   UNL     1       3.140  -5.562  -4.188  0.00  0.00    +0.209 C 
BRANCH  28  29
ATOM     29  C   UNL     1       4.278  -6.091  -3.354  0.00  0.00    +0.231 C 
ATOM     30  O   UNL     1       4.769  -5.398  -2.488  0.00  0.00    -0.274 OA
ATOM     31  N   UNL     1       4.751  -7.335  -3.570  0.00  0.00    -0.316 N 
ATOM     32  H   UNL     1       4.358  -7.889  -4.262  0.00  0.00    +0.149 HD
BRANCH  31  33
ATOM     33  C   UNL     1       5.857  -7.849  -2.759  0.00  0.00    +0.085 C 
BRANCH  33  34
ATOM     34  C   UNL     1       6.197  -9.273  -3.204  0.00  0.00    -0.061 C 
BRANCH  34  35
ATOM     35  N   UNL     1       7.307  -9.789  -2.391  0.00  0.00    +0.377 N 
ATOM     36  C   UNL     1       7.554 -11.195  -2.737  0.00  0.00    -0.097 C 
ATOM     37  C   UNL     1       8.517  -8.999  -2.657  0.00  0.00    -0.097 C 
ATOM     38  H   UNL     1       7.067  -9.719  -1.413  0.00  0.00    -0.083 HD
ENDBRANCH  34  35
ENDBRANCH  33  34
ENDBRANCH  31  33
ENDBRANCH  28  29
ENDBRANCH   3  28
TORSDOF 12
