REMARK  Name = ZINC05041086
REMARK  11 active torsions:
REMARK  status: ('A' for Active; 'I' for Inactive)
REMARK    1  A    between atoms: C_1  and  C_2
REMARK    2  A    between atoms: C_4  and  C_33
REMARK    3  A    between atoms: C_5  and  N_9
REMARK    4  A    between atoms: C_6  and  C_8
REMARK    5  A    between atoms: C_10  and  C_12
REMARK    6  A    between atoms: C_12  and  C_14
REMARK    7  A    between atoms: C_12  and  O_15
REMARK    8  A    between atoms: O_15  and  C_16
REMARK    9  A    between atoms: C_16  and  C_18
REMARK   10  A    between atoms: C_18  and  N_19
REMARK   11  A    between atoms: C_27  and  C_29
REMARK                            x       y       z     vdW  Elec       q    Type
REMARK                         _______ _______ _______ _____ _____    ______ ____
ROOT
ATOM      1  C   UNL     1       8.192  -0.322  -1.275  0.00  0.00    +0.326 C 
ATOM      2  O   UNL     1       8.185  -1.433  -1.749  0.00  0.00    -0.249 OA
ENDROOT
BRANCH   1   3
ATOM      3  O   UNL     1       7.146   0.104  -0.549  0.00  0.00    -0.451 OA
BRANCH   3   4
ATOM      4  C   UNL     1       6.043  -0.824  -0.375  0.00  0.00    +0.259 C 
ATOM      5  C   UNL     1       6.277  -1.663   0.883  0.00  0.00    +0.062 C 
BRANCH   4   7
ATOM      6  N   UNL     1       3.592  -0.710  -0.058  0.00  0.00    -0.282 N 
ATOM      7  C   UNL     1       4.756  -0.053  -0.232  0.00  0.00    +0.258 C 
ATOM      8  O   UNL     1       4.767   1.159  -0.273  0.00  0.00    -0.271 OA
ATOM      9  H   UNL     1       3.589  -1.677   0.024  0.00  0.00    +0.155 HD
BRANCH   6  14
ATOM     10  C   UNL     1      -1.283   2.180   0.192  0.00  0.00    +0.044 C 
ATOM     11  C   UNL     1       0.010   1.409   0.122  0.00  0.00    -0.050 A 
ATOM     12  C   UNL     1       0.275   0.421   1.053  0.00  0.00    +0.008 A 
ATOM     13  C   UNL     1       1.461  -0.283   0.996  0.00  0.00    -0.029 A 
ATOM     14  C   UNL     1       2.389   0.002   0.002  0.00  0.00    +0.039 A 
ATOM     15  C   UNL     1       2.120   0.994  -0.931  0.00  0.00    -0.029 A 
ATOM     16  C   UNL     1       0.931   1.695  -0.868  0.00  0.00    +0.008 A 
ATOM     17  C   UNL     1       3.124   1.307  -2.010  0.00  0.00    +0.045 C 
ATOM     18  C   UNL     1       1.749  -1.360   2.010  0.00  0.00    +0.045 C 
ENDBRANCH   6  14
ENDBRANCH   4   7
ENDBRANCH   3   4
ENDBRANCH   1   3
BRANCH   1  19
ATOM     19  C   UNL     1       9.373   0.586  -1.499  0.00  0.00    +0.238 C 
BRANCH  19  20
ATOM     20  N   UNL     1      10.373  -0.107  -2.316  0.00  0.00    -0.213 N 
ATOM     21  C   UNL     1      11.375  -0.858  -1.813  0.00  0.00    +0.247 C 
ATOM     22  O   UNL     1      11.609  -1.081  -0.644  0.00  0.00    -0.273 OA
ATOM     23  C   UNL     1      12.140  -1.366  -3.013  0.00  0.00    +0.115 C 
ATOM     24  C   UNL     1      12.099  -2.889  -3.071  0.00  0.00    +0.035 C 
ATOM     25  C   UNL     1      12.817  -3.469  -1.849  0.00  0.00    +0.003 C 
ATOM     26  C   UNL     1      14.267  -2.981  -1.833  0.00  0.00    +0.000 C 
ATOM     27  C   UNL     1      14.292  -1.454  -1.750  0.00  0.00    +0.006 C 
ATOM     28  C   UNL     1      13.580  -0.866  -2.971  0.00  0.00    +0.018 C 
ATOM     29  C   UNL     1      13.587   0.661  -2.878  0.00  0.00    +0.010 C 
ATOM     30  N   UNL     1      11.429  -0.788  -4.160  0.00  0.00    -0.285 N 
ATOM     31  C   UNL     1      10.410  -0.068  -3.653  0.00  0.00    +0.310 C 
ATOM     32  O   UNL     1       9.614   0.549  -4.333  0.00  0.00    -0.252 OA
ATOM     33  H   UNL     1      11.649  -0.903  -5.098  0.00  0.00    +0.151 HD
ENDBRANCH  19  20
ENDBRANCH   1  19
TORSDOF 6
