REMARK  Name = ZINC06198330
REMARK  7 active torsions:
REMARK  status: ('A' for Active; 'I' for Inactive)
REMARK    1  A    between atoms: C_1  and  C_2
REMARK    2  A    between atoms: C_2  and  C_3
REMARK    3  A    between atoms: C_10  and  C_15
REMARK    4  A    between atoms: C_15  and  C_17
REMARK    5  A    between atoms: C_15  and  N_60
REMARK    6  A    between atoms: N_21  and  C_22
REMARK    7  A    between atoms: C_22  and  C_23
REMARK                            x       y       z     vdW  Elec       q    Type
REMARK                         _______ _______ _______ _____ _____    ______ ____
ROOT
ATOM      1  C   UNL     1       0.651  -1.955   1.280  0.00  0.00    +0.039 C 
ENDROOT
BRANCH   1   9
ATOM      2  C   UNL     1       2.200  -4.989   6.445  0.00  0.00    -0.047 A 
ATOM      3  C   UNL     1       3.507  -4.524   6.513  0.00  0.00    +0.005 A 
ATOM      4  C   UNL     1       3.996  -3.659   5.558  0.00  0.00    +0.026 A 
ATOM      5  C   UNL     1       3.173  -3.246   4.515  0.00  0.00    +0.049 A 
ATOM      6  C   UNL     1       1.849  -3.719   4.450  0.00  0.00    -0.001 A 
ATOM      7  C   UNL     1       1.375  -4.597   5.430  0.00  0.00    +0.013 A 
ATOM      8  C   UNL     1       0.992  -3.279   3.348  0.00  0.00    +0.017 A 
ATOM      9  C   UNL     1       1.507  -2.428   2.427  0.00  0.00    +0.011 A 
ATOM     10  C   UNL     1       2.843  -1.987   2.535  0.00  0.00    +0.251 A 
ATOM     11  O   UNL     1       3.288  -1.226   1.693  0.00  0.00    -0.268 OA
ATOM     12  N   UNL     1       3.637  -2.381   3.546  0.00  0.00    -0.322 N 
ATOM     13  H   UNL     1       4.576  -2.043   3.596  0.00  0.00    +0.169 HD
BRANCH   2  15
ATOM     14  C   UNL     1       1.955  -7.377   7.067  0.00  0.00    +0.009 C 
ATOM     15  C   UNL     1       1.688  -5.934   7.502  0.00  0.00    +0.032 C 
ENDBRANCH   2  15
ENDBRANCH   1   9
BRANCH   1  21
ATOM     16  C   UNL     1       0.088   0.084   2.457  0.00  0.00    -0.077 C 
ATOM     17  C   UNL     1       0.249   1.606   2.437  0.00  0.00    -0.019 C 
ATOM     18  C   UNL     1      -0.462   2.173   1.205  0.00  0.00    -0.004 C 
ATOM     19  C   UNL     1       0.122   1.526  -0.054  0.00  0.00    -0.019 C 
ATOM     20  C   UNL     1      -0.035   0.007   0.038  0.00  0.00    -0.077 C 
ATOM     21  N   UNL     1       0.692  -0.479   1.231  0.00  0.00    +0.389 N 
ATOM     22  H   UNL     1       1.670  -0.174   1.171  0.00  0.00    -0.080 HD
ENDBRANCH   1  21
BRANCH   1  23
ATOM     23  C   UNL     1       1.196  -2.504  -0.013  0.00  0.00    +0.143 A 
ATOM     24  N   UNL     1       2.263  -2.089  -0.651  0.00  0.00    -0.115 NA
ATOM     25  N   UNL     1       2.398  -2.810  -1.711  0.00  0.00    -0.023 NA
ATOM     26  N   UNL     1       1.441  -3.668  -1.769  0.00  0.00    -0.044 NA
ATOM     27  N   UNL     1       0.678  -3.511  -0.740  0.00  0.00    -0.226 N 
BRANCH  27  28
ATOM     28  C   UNL     1      -0.525  -4.285  -0.423  0.00  0.00    +0.182 C 
BRANCH  28  29
ATOM     29  C   UNL     1      -1.727  -3.619  -1.042  0.00  0.00    -0.026 A 
ATOM     30  C   UNL     1      -2.435  -2.671  -0.328  0.00  0.00    +0.008 A 
ATOM     31  C   UNL     1      -3.535  -2.056  -0.896  0.00  0.00    +0.038 A 
ATOM     32  C   UNL     1      -3.934  -2.398  -2.177  0.00  0.00    +0.123 A 
ATOM     33  C   UNL     1      -3.227  -3.353  -2.889  0.00  0.00    +0.038 A 
ATOM     34  C   UNL     1      -2.124  -3.962  -2.321  0.00  0.00    +0.008 A 
ATOM     35  F   UNL     1      -5.011  -1.802  -2.732  0.00  0.00    -0.205 F 
ENDBRANCH  28  29
ENDBRANCH  27  28
ENDBRANCH   1  23
TORSDOF 6
