REMARK  Name = ZINC11520848
REMARK  10 active torsions:
REMARK  status: ('A' for Active; 'I' for Inactive)
REMARK    1  A    between atoms: C_1  and  C_2
REMARK    2  A    between atoms: C_3  and  C_8
REMARK    3  A    between atoms: C_4  and  C_7
REMARK    4  A    between atoms: C_8  and  S_9
REMARK    5  A    between atoms: S_9  and  C_10
REMARK    6  A    between atoms: C_15  and  C_16
REMARK    7  A    between atoms: C_16  and  O_18
REMARK    8  A    between atoms: O_18  and  C_19
REMARK    9  A    between atoms: C_19  and  C_20
REMARK   10  A    between atoms: C_33  and  C_35
REMARK                            x       y       z     vdW  Elec       q    Type
REMARK                         _______ _______ _______ _____ _____    ______ ____
ROOT
ATOM      1  O   UNL     1       5.525   6.124   2.422  0.00  0.00    -0.452 OA
ENDROOT
BRANCH   1   2
ATOM      2  C   UNL     1       4.537   5.210   2.493  0.00  0.00    +0.341 C 
ATOM      3  O   UNL     1       3.416   5.497   2.123  0.00  0.00    -0.245 OA
BRANCH   2   9
ATOM      4  C   UNL     1       3.790   2.907   3.094  0.00  0.00    +0.022 A 
ATOM      5  C   UNL     1       4.067   1.640   3.597  0.00  0.00    +0.015 A 
ATOM      6  C   UNL     1       5.345   1.324   4.008  0.00  0.00    +0.001 A 
ATOM      7  C   UNL     1       6.360   2.266   3.934  0.00  0.00    +0.001 A 
ATOM      8  C   UNL     1       6.105   3.527   3.444  0.00  0.00    +0.016 A 
ATOM      9  C   UNL     1       4.816   3.863   3.018  0.00  0.00    +0.072 A 
BRANCH   4  10
ATOM     10  S   UNL     1       2.160   3.312   2.562  0.00  0.00    -0.120 S 
BRANCH  10  11
ATOM     11  C   UNL     1       1.322   1.742   2.892  0.00  0.00    +0.114 C 
BRANCH  11  14
ATOM     12  C   UNL     1      -0.013   1.086   0.008  0.00  0.00    +0.069 C 
ATOM     13  C   UNL     1      -0.718   1.572   1.248  0.00  0.00    +0.085 A 
ATOM     14  C   UNL     1      -0.129   1.855   2.501  0.00  0.00    +0.027 A 
ATOM     15  C   UNL     1      -1.171   2.253   3.270  0.00  0.00    +0.138 A 
ATOM     16  O   UNL     1      -2.261   2.193   2.493  0.00  0.00    -0.359 OA
ATOM     17  N   UNL     1      -1.990   1.819   1.375  0.00  0.00    -0.083 NA
ATOM     18  C   UNL     1      -1.115   2.679   4.715  0.00  0.00    +0.089 C 
ENDBRANCH  11  14
ENDBRANCH  10  11
ENDBRANCH   4  10
ENDBRANCH   2   9
ENDBRANCH   1   2
BRANCH   1  19
ATOM     19  C   UNL     1       5.177   7.431   1.894  0.00  0.00    +0.328 C 
BRANCH  19  20
ATOM     20  C   UNL     1       6.399   8.313   1.890  0.00  0.00    +0.258 C 
ATOM     21  O   UNL     1       7.459   7.882   2.294  0.00  0.00    -0.271 OA
ATOM     22  N   UNL     1       6.314   9.580   1.439  0.00  0.00    -0.264 N 
ATOM     23  C   UNL     1       5.096  10.091   0.970  0.00  0.00    +0.058 A 
ATOM     24  C   UNL     1       4.573   9.670  -0.241  0.00  0.00    +0.025 A 
ATOM     25  C   UNL     1       3.381  10.202  -0.699  0.00  0.00    +0.002 A 
ATOM     26  C   UNL     1       2.711  11.153   0.048  0.00  0.00    +0.002 A 
ATOM     27  C   UNL     1       3.221  11.572   1.263  0.00  0.00    +0.025 A 
ATOM     28  C   UNL     1       4.409  11.036   1.733  0.00  0.00    +0.055 A 
ATOM     29  N   UNL     1       4.917  11.403   2.984  0.00  0.00    -0.284 N 
ATOM     30  C   UNL     1       6.215  11.750   3.122  0.00  0.00    +0.219 C 
ATOM     31  O   UNL     1       6.662  11.986   4.225  0.00  0.00    -0.275 OA
ATOM     32  C   UNL     1       7.111  11.847   1.915  0.00  0.00    +0.118 C 
ATOM     33  C   UNL     1       7.491  10.450   1.436  0.00  0.00    +0.087 C 
ATOM     34  C   UNL     1       8.053  10.541   0.015  0.00  0.00    +0.029 C 
ATOM     35  H   UNL     1       4.332  11.409   3.759  0.00  0.00    +0.155 HD
ENDBRANCH  19  20
ENDBRANCH   1  19
TORSDOF 7
