REMARK  Name = ZINC46642626
REMARK  4 active torsions:
REMARK  status: ('A' for Active; 'I' for Inactive)
REMARK    1  A    between atoms: C_3  and  N_8
REMARK    2  A    between atoms: C_10  and  C_13
REMARK    3  A    between atoms: N_15  and  N_16
REMARK    4  A    between atoms: C_17  and  C_19
REMARK                            x       y       z     vdW  Elec       q    Type
REMARK                         _______ _______ _______ _____ _____    ______ ____
ROOT
ATOM      1  C   UNL     1       7.172   2.568  -0.061  0.00  0.00    +0.282 C 
ATOM      2  O   UNL     1       7.712   1.478  -0.077  0.00  0.00    -0.267 OA
ATOM      3  N   UNL     1       7.920   3.689  -0.061  0.00  0.00    -0.229 N 
ATOM      4  H   UNL     1       7.489   4.559  -0.048  0.00  0.00    +0.173 HD
ENDROOT
BRANCH   1   7
ATOM      5  N   UNL     1       3.586   2.127  -0.021  0.00  0.00    -0.219 N 
ATOM      6  C   UNL     1       4.833   1.607  -0.041  0.00  0.00    +0.149 A 
ATOM      7  C   UNL     1       5.700   2.662  -0.043  0.00  0.00    +0.169 A 
ATOM      8  N   UNL     1       4.986   3.801  -0.024  0.00  0.00    -0.124 NA
ATOM      9  N   UNL     1       3.729   3.521  -0.016  0.00  0.00    -0.060 NA
BRANCH   5  12
ATOM     10  C   UNL     1      -0.017   1.378   0.010  0.00  0.00    +0.003 A 
ATOM     11  C   UNL     1       1.169   2.087   0.002  0.00  0.00    +0.028 A 
ATOM     12  C   UNL     1       2.381   1.410  -0.013  0.00  0.00    +0.068 A 
ATOM     13  C   UNL     1       2.398   0.021  -0.021  0.00  0.00    +0.043 A 
ATOM     14  C   UNL     1       1.208  -0.682  -0.013  0.00  0.00    +0.020 A 
ATOM     15  C   UNL     1       0.002  -0.004   0.002  0.00  0.00    +0.015 A 
ATOM     16 BR   UNL     1       1.229  -2.573  -0.024  0.00  0.00    -0.050 Br
ENDBRANCH   5  12
ENDBRANCH   1   7
BRANCH   3  17
ATOM     17  N   UNL     1       9.318   3.600  -0.078  0.00  0.00    -0.234 N 
ATOM     18  C   UNL     1      10.065   4.722  -0.078  0.00  0.00    +0.235 C 
ATOM     19  O   UNL     1       9.527   5.809  -0.062  0.00  0.00    -0.274 OA
ATOM     20  H   UNL     1       9.748   2.731  -0.091  0.00  0.00    +0.173 HD
BRANCH  18  21
ATOM     21  C   UNL     1      11.569   4.625  -0.097  0.00  0.00    +0.049 C 
ATOM     22  C   UNL     1      12.046   3.862   1.140  0.00  0.00    +0.019 C 
ATOM     23  C   UNL     1      13.573   3.764   1.121  0.00  0.00    -0.009 C 
ATOM     24  C   UNL     1      14.175   5.171   1.126  0.00  0.00    +0.007 C 
ATOM     25  C   UNL     1      13.697   5.934  -0.111  0.00  0.00    -0.009 C 
ATOM     26  C   UNL     1      12.170   6.032  -0.092  0.00  0.00    +0.019 C 
ATOM     27  C   UNL     1      14.144   5.193  -1.373  0.00  0.00    +0.007 C 
ATOM     28  C   UNL     1      13.543   3.786  -1.378  0.00  0.00    -0.009 C 
ATOM     29  C   UNL     1      14.021   3.023  -0.141  0.00  0.00    +0.007 C 
ATOM     30  C   UNL     1      12.016   3.884  -1.358  0.00  0.00    +0.019 C 
ENDBRANCH  18  21
ENDBRANCH   3  17
TORSDOF 4
