REMARK  Name = ZINC01788286
REMARK  11 active torsions:
REMARK  status: ('A' for Active; 'I' for Inactive)
REMARK    1  A    between atoms: C_1  and  C_2
REMARK    2  A    between atoms: C_2  and  C_3
REMARK    3  A    between atoms: C_11  and  C_12
REMARK    4  A    between atoms: N_14  and  C_21
REMARK    5  A    between atoms: C_21  and  C_22
REMARK    6  A    between atoms: C_22  and  O_23
REMARK    7  A    between atoms: O_23  and  C_24
REMARK    8  A    between atoms: C_26  and  C_33
REMARK    9  A    between atoms: C_29  and  C_30
REMARK   10  A    between atoms: C_30  and  C_31
REMARK   11  A    between atoms: C_30  and  C_32
REMARK                            x       y       z     vdW  Elec       q    Type
REMARK                         _______ _______ _______ _____ _____    ______ ____
ROOT
ATOM      1  C   UNL     1      -4.927  -4.721   5.778  0.00  0.00    +0.001 A 
ATOM      2  C   UNL     1      -4.133  -5.071   6.853  0.00  0.00    +0.095 A 
ATOM      3  N   UNL     1      -4.907  -5.532   7.855  0.00  0.00    -0.343 N 
ATOM      4  C   UNL     1      -6.239  -5.509   7.493  0.00  0.00    +0.050 A 
ATOM      5  C   UNL     1      -6.318  -4.998   6.188  0.00  0.00    +0.007 A 
ATOM      6  C   UNL     1      -7.555  -4.857   5.566  0.00  0.00    +0.010 A 
ATOM      7  C   UNL     1      -8.703  -5.218   6.239  0.00  0.00    +0.001 A 
ATOM      8  C   UNL     1      -8.627  -5.719   7.530  0.00  0.00    +0.002 A 
ATOM      9  C   UNL     1      -7.408  -5.873   8.154  0.00  0.00    +0.026 A 
ENDROOT
BRANCH   1  18
ATOM     10  C   UNL     1       1.790  -2.567   1.410  0.00  0.00    +0.007 C 
ATOM     11  C   UNL     1       0.856  -3.265   2.050  0.00  0.00    +0.092 A 
ATOM     12  N   UNL     1      -0.525  -3.059   2.088  0.00  0.00    -0.283 N 
ATOM     13  H   UNL     1      -0.924  -2.298   1.637  0.00  0.00    +0.188 HD
ATOM     14  N   UNL     1      -1.309  -3.959   2.780  0.00  0.00    -0.212 N 
ATOM     15  C   UNL     1      -2.719  -3.972   2.780  0.00  0.00    +0.160 A 
ATOM     16  N   UNL     1      -3.442  -3.462   1.817  0.00  0.00    -0.281 NA
ATOM     17  C   UNL     1      -3.302  -4.622   3.986  0.00  0.00    +0.085 A 
ATOM     18  C   UNL     1      -4.496  -4.197   4.538  0.00  0.00    +0.027 C 
ATOM     19  C   UNL     1      -2.534  -5.750   4.560  0.00  0.00    +0.283 A 
ATOM     20  O   UNL     1      -3.087  -6.609   5.228  0.00  0.00    -0.265 OA
ATOM     21  N   UNL     1      -1.204  -5.802   4.326  0.00  0.00    -0.182 NA
ATOM     22  C   UNL     1      -0.661  -4.936   3.513  0.00  0.00    +0.199 A 
ATOM     23  S   UNL     1       1.043  -4.716   3.077  0.00  0.00    -0.031 S 
ATOM     24  H   UNL     1      -4.410  -3.498   1.867  0.00  0.00    +0.188 HD
BRANCH  10  26
ATOM     25  C   UNL     1       2.198  -0.145   1.063  0.00  0.00    +0.008 C 
ATOM     26  C   UNL     1       1.401  -1.363   0.591  0.00  0.00    +0.026 C 
ENDBRANCH  10  26
ENDBRANCH   1  18
BRANCH   3  27
ATOM     27  C   UNL     1      -4.404  -5.995   9.150  0.00  0.00    +0.163 C 
BRANCH  27  28
ATOM     28  C   UNL     1      -4.226  -7.514   9.116  0.00  0.00    +0.250 C 
BRANCH  28  29
ATOM     29  O   UNL     1      -3.736  -7.965  10.380  0.00  0.00    -0.490 OA
BRANCH  29  30
ATOM     30  C   UNL     1      -3.522  -9.300  10.518  0.00  0.00    +0.124 A 
ATOM     31  C   UNL     1      -3.774 -10.158   9.457  0.00  0.00    +0.049 A 
ATOM     32  C   UNL     1      -3.556 -11.514   9.599  0.00  0.00    -0.047 A 
ATOM     33  C   UNL     1      -3.087 -12.018  10.798  0.00  0.00    +0.004 A 
ATOM     34  C   UNL     1      -2.835 -11.166  11.857  0.00  0.00    +0.008 A 
ATOM     35  C   UNL     1      -3.046  -9.807  11.718  0.00  0.00    -0.003 A 
ATOM     36  C   UNL     1      -3.830 -12.446   8.447  0.00  0.00    +0.044 C 
BRANCH  35  37
ATOM     37  C   UNL     1      -2.766  -8.878  12.871  0.00  0.00    +0.016 C 
ATOM     38  C   UNL     1      -3.636  -9.272  14.066  0.00  0.00    +0.012 C 
ATOM     39  C   UNL     1      -1.290  -8.979  13.260  0.00  0.00    +0.012 C 
ENDBRANCH  35  37
ENDBRANCH  29  30
ENDBRANCH  28  29
ENDBRANCH  27  28
ENDBRANCH   3  27
TORSDOF 7
