REMARK  Name = ZINC36586661
REMARK  15 active torsions:
REMARK  status: ('A' for Active; 'I' for Inactive)
REMARK    1  A    between atoms: C_1  and  C_2
REMARK    2  A    between atoms: C_5  and  S_8
REMARK    3  A    between atoms: S_8  and  C_11
REMARK    4  A    between atoms: C_11  and  N_12
REMARK    5  A    between atoms: C_13  and  C_15
REMARK    6  A    between atoms: C_15  and  C_17
REMARK    7  A    between atoms: C_15  and  N_24
REMARK    8  A    between atoms: C_22  and  C_23
REMARK    9  A    between atoms: N_24  and  C_35
REMARK   10  A    between atoms: C_25  and  C_27
REMARK   11  A    between atoms: C_28  and  O_34
REMARK   12  A    between atoms: C_32  and  O_33
REMARK   13  A    between atoms: C_35  and  C_36
REMARK   14  A    between atoms: C_35  and  C_37
REMARK   15  A    between atoms: C_35  and  C_38
REMARK                            x       y       z     vdW  Elec       q    Type
REMARK                         _______ _______ _______ _____ _____    ______ ____
ROOT
ATOM      1  C   UNL     1       4.503  -4.413   2.749  0.00  0.00    +0.193 C 
ENDROOT
BRANCH   1   2
ATOM      2  C   UNL     1       4.293  -3.002   3.234  0.00  0.00    -0.015 A 
ATOM      3  C   UNL     1       3.248  -2.247   2.733  0.00  0.00    +0.006 A 
ATOM      4  C   UNL     1       3.055  -0.953   3.179  0.00  0.00    +0.000 A 
ATOM      5  C   UNL     1       3.907  -0.413   4.125  0.00  0.00    +0.000 A 
ATOM      6  C   UNL     1       4.951  -1.168   4.626  0.00  0.00    +0.004 A 
ATOM      7  C   UNL     1       5.141  -2.464   4.184  0.00  0.00    -0.045 A 
ATOM      8  C   UNL     1       6.276  -3.289   4.734  0.00  0.00    +0.044 C 
ENDBRANCH   1   2
BRANCH   1  10
ATOM      9  N   UNL     1       4.197  -4.060   0.320  0.00  0.00    -0.294 N 
ATOM     10  C   UNL     1       3.748  -4.619   1.461  0.00  0.00    +0.239 C 
ATOM     11  O   UNL     1       2.736  -5.287   1.452  0.00  0.00    -0.273 OA
ATOM     12  H   UNL     1       4.961  -3.462   0.340  0.00  0.00    +0.150 HD
BRANCH   9  13
ATOM     13  C   UNL     1       3.532  -4.356  -0.952  0.00  0.00    +0.278 C 
BRANCH  13  14
ATOM     14  S   UNL     1       2.310  -3.063  -1.309  0.00  0.00    +0.013 S 
ATOM     15  O   UNL     1       1.517  -2.807  -0.158  0.00  0.00    -0.168 OA
ATOM     16  O   UNL     1       1.700  -3.302  -2.571  0.00  0.00    -0.168 OA
BRANCH  14  21
ATOM     17  C   UNL     1       5.551   1.965  -2.094  0.00  0.00    +0.044 C 
ATOM     18  C   UNL     1       4.742   0.709  -1.898  0.00  0.00    -0.050 A 
ATOM     19  C   UNL     1       4.460  -0.107  -2.977  0.00  0.00    +0.005 A 
ATOM     20  C   UNL     1       3.718  -1.259  -2.798  0.00  0.00    +0.027 A 
ATOM     21  C   UNL     1       3.257  -1.595  -1.538  0.00  0.00    +0.090 A 
ATOM     22  C   UNL     1       3.540  -0.780  -0.459  0.00  0.00    +0.027 A 
ATOM     23  C   UNL     1       4.286   0.370  -0.638  0.00  0.00    +0.005 A 
ENDBRANCH  14  21
ENDBRANCH  13  14
ENDBRANCH   9  13
ENDBRANCH   1  10
BRANCH   1  24
ATOM     24  N   UNL     1       4.013  -5.354   3.758  0.00  0.00    -0.277 N 
ATOM     25  C   UNL     1       2.766  -5.224   4.252  0.00  0.00    +0.255 C 
ATOM     26  O   UNL     1       2.007  -4.401   3.778  0.00  0.00    -0.270 OA
BRANCH  25  27
ATOM     27  C   UNL     1       2.323  -6.079   5.367  0.00  0.00    +0.119 A 
ATOM     28  C   UNL     1       2.572  -5.696   6.693  0.00  0.00    +0.133 A 
ATOM     29  C   UNL     1       2.150  -6.507   7.734  0.00  0.00    +0.046 A 
ATOM     30  C   UNL     1       1.486  -7.690   7.469  0.00  0.00    +0.007 A 
ATOM     31  C   UNL     1       1.235  -8.077   6.165  0.00  0.00    +0.046 A 
ATOM     32  C   UNL     1       1.643  -7.278   5.110  0.00  0.00    +0.133 A 
BRANCH  32  33
ATOM     33  O   UNL     1       1.391  -7.657   3.832  0.00  0.00    -0.506 OA
ATOM     34  H   UNL     1       2.088  -8.199   3.437  0.00  0.00    +0.292 HD
ENDBRANCH  32  33
BRANCH  28  35
ATOM     35  O   UNL     1       3.224  -4.535   6.955  0.00  0.00    -0.506 OA
ATOM     36  H   UNL     1       2.642  -3.770   7.052  0.00  0.00    +0.292 HD
ENDBRANCH  28  35
ENDBRANCH  25  27
BRANCH  24  37
ATOM     37  C   UNL     1       4.879  -6.438   4.231  0.00  0.00    +0.030 C 
ATOM     38  C   UNL     1       6.239  -6.345   3.535  0.00  0.00    +0.031 C 
ATOM     39  C   UNL     1       5.071  -6.315   5.744  0.00  0.00    +0.031 C 
ATOM     40  C   UNL     1       4.232  -7.786   3.906  0.00  0.00    +0.031 C 
ENDBRANCH  24  37
ENDBRANCH   1  24
TORSDOF 10
