REMARK  Name = ZINC09222231
REMARK  9 active torsions:
REMARK  status: ('A' for Active; 'I' for Inactive)
REMARK    1  A    between atoms: C_1  and  C_2
REMARK    2  A    between atoms: C_14  and  C_33
REMARK    3  A    between atoms: N_16  and  C_17
REMARK    4  A    between atoms: C_17  and  C_19
REMARK    5  A    between atoms: C_22  and  N_25
REMARK    6  A    between atoms: N_28  and  C_29
REMARK    7  A    between atoms: C_29  and  C_30
REMARK    8  A    between atoms: C_30  and  C_31
REMARK    9  A    between atoms: C_30  and  C_32
REMARK                            x       y       z     vdW  Elec       q    Type
REMARK                         _______ _______ _______ _____ _____    ______ ____
ROOT
ATOM      1  C   UNL     1      -2.300   1.283  -1.625  0.00  0.00    +0.047 C 
ATOM      2  C   UNL     1      -1.029   2.021  -1.292  0.00  0.00    -0.007 A 
ATOM      3  C   UNL     1       0.174   1.387  -1.378  0.00  0.00    +0.008 A 
ATOM      4  C   UNL     1       1.349   2.087  -1.071  0.00  0.00    +0.019 A 
ATOM      5  C   UNL     1       1.285   3.381  -0.688  0.00  0.00    +0.096 A 
ATOM      6  N   UNL     1       0.086   4.023  -0.595  0.00  0.00    -0.267 N 
ATOM      7  C   UNL     1      -1.078   3.369  -0.887  0.00  0.00    +0.145 A 
ATOM      8  N   UNL     1      -2.266   3.968  -0.806  0.00  0.00    -0.211 NA
ATOM      9  C   UNL     1      -2.397   5.234  -0.438  0.00  0.00    +0.150 A 
ATOM     10  C   UNL     1      -1.239   5.983  -0.117  0.00  0.00    +0.084 A 
ATOM     11  C   UNL     1       0.063   5.320  -0.208  0.00  0.00    +0.268 A 
ATOM     12  O   UNL     1       1.091   5.916   0.055  0.00  0.00    -0.267 OA
ATOM     13  C   UNL     1      -1.350   7.320   0.274  0.00  0.00    +0.039 A 
ATOM     14  C   UNL     1      -2.615   7.901   0.343  0.00  0.00    +0.093 A 
ATOM     15  C   UNL     1      -3.759   7.131   0.018  0.00  0.00    +0.146 A 
ATOM     16  N   UNL     1      -4.967   7.685   0.084  0.00  0.00    -0.158 NA
ATOM     17  N   UNL     1      -3.633   5.823  -0.364  0.00  0.00    -0.311 N 
ENDROOT
BRANCH  16  18
ATOM     18  C   UNL     1      -5.143   8.827   0.755  0.00  0.00    +0.269 C 
ATOM     19  O   UNL     1      -4.770   8.918   1.911  0.00  0.00    -0.268 OA
BRANCH  18  20
ATOM     20  C   UNL     1      -5.791   9.983   0.092  0.00  0.00    +0.039 A 
ATOM     21  C   UNL     1      -6.213   9.883  -1.233  0.00  0.00    +0.015 A 
ATOM     22  C   UNL     1      -6.820  10.962  -1.843  0.00  0.00    +0.033 A 
ATOM     23  C   UNL     1      -7.001  12.143  -1.146  0.00  0.00    +0.126 A 
ATOM     24  C   UNL     1      -6.579  12.249   0.168  0.00  0.00    +0.033 A 
ATOM     25  C   UNL     1      -5.976  11.176   0.790  0.00  0.00    +0.015 A 
BRANCH  23  26
ATOM     26  N   UNL     1      -7.648  13.298  -1.808  0.00  0.00    +0.056 N 
ATOM     27  O   UNL     1      -7.808  14.339  -1.196  0.00  0.00    -0.126 OA
ATOM     28  O   UNL     1      -8.021  13.208  -2.964  0.00  0.00    -0.126 OA
ENDBRANCH  23  26
ENDBRANCH  18  20
ENDBRANCH  16  18
BRANCH  14  29
ATOM     29  C   UNL     1      -2.758   9.269   0.741  0.00  0.00    +0.103 C 
ATOM     30  N   UNL     1      -2.872  10.355   1.056  0.00  0.00    -0.191 NA
ENDBRANCH  14  29
BRANCH  17  31
ATOM     31  C   UNL     1      -4.829   5.045  -0.696  0.00  0.00    +0.128 C 
BRANCH  31  32
ATOM     32  C   UNL     1      -5.360   4.362   0.567  0.00  0.00    +0.003 C 
ATOM     33  C   UNL     1      -6.677   3.652   0.247  0.00  0.00    +0.009 C 
ATOM     34  C   UNL     1      -4.336   3.338   1.061  0.00  0.00    +0.009 C 
ENDBRANCH  31  32
ENDBRANCH  17  31
TORSDOF 6
