REMARK  Name = ZINC13998646
REMARK  6 active torsions:
REMARK  status: ('A' for Active; 'I' for Inactive)
REMARK    1  A    between atoms: C_1  and  C_2
REMARK    2  A    between atoms: C_2  and  C_3
REMARK    3  A    between atoms: C_2  and  C_4
REMARK    4  A    between atoms: C_2  and  C_5
REMARK    5  A    between atoms: C_14  and  N_21
REMARK    6  A    between atoms: C_16  and  C_18
REMARK                            x       y       z     vdW  Elec       q    Type
REMARK                         _______ _______ _______ _____ _____    ______ ____
ROOT
ATOM      1  C   UNL     1      -0.238   3.563   0.930  0.00  0.00    -0.000 C 
ATOM      2  C   UNL     1      -0.205   2.046   1.140  0.00  0.00    +0.009 C 
ATOM      3  C   UNL     1       0.353   1.362  -0.109  0.00  0.00    +0.037 C 
ATOM      4  C   UNL     1      -0.430   1.839  -1.329  0.00  0.00    -0.025 A 
ATOM      5  C   UNL     1      -1.163   2.975  -1.274  0.00  0.00    -0.004 A 
ATOM      6  S   UNL     1      -1.890   3.141  -2.886  0.00  0.00    -0.073 S 
ATOM      7  C   UNL     1      -1.213   1.693  -3.631  0.00  0.00    +0.114 A 
ATOM      8  C   UNL     1      -0.435   1.121  -2.592  0.00  0.00    +0.051 A 
ATOM      9  C   UNL     1       0.254  -0.089  -2.897  0.00  0.00    +0.133 A 
ATOM     10  N   UNL     1       0.090  -0.554  -4.134  0.00  0.00    -0.216 NA
ATOM     11  C   UNL     1      -0.652   0.035  -5.050  0.00  0.00    +0.135 A 
ATOM     12  N   UNL     1      -1.319   1.162  -4.833  0.00  0.00    -0.224 NA
ATOM     13  C   UNL     1      -1.325   3.894  -0.103  0.00  0.00    +0.046 C 
ENDROOT
BRANCH   9  14
ATOM     14  N   UNL     1       1.043  -0.739  -1.966  0.00  0.00    -0.318 N 
ATOM     15  C   UNL     1       0.555  -2.104  -1.724  0.00  0.00    +0.087 C 
ATOM     16  C   UNL     1       1.405  -2.760  -0.632  0.00  0.00    -0.063 C 
ATOM     17  C   UNL     1       3.300  -1.409  -1.295  0.00  0.00    -0.063 C 
ATOM     18  C   UNL     1       2.451  -0.752  -2.386  0.00  0.00    +0.087 C 
ATOM     19  N   UNL     1       2.818  -2.782  -1.054  0.00  0.00    +0.381 N 
ATOM     20  H   UNL     1       2.906  -3.328  -1.919  0.00  0.00    -0.086 HD
ATOM     21  H   UNL     1       3.386  -3.216  -0.316  0.00  0.00    -0.086 HD
ENDBRANCH   9  14
BRANCH   1  23
ATOM     22  C   UNL     1      -1.917   3.769   2.769  0.00  0.00    +0.011 C 
ATOM     23  C   UNL     1      -0.561   4.257   2.255  0.00  0.00    -0.035 C 
ATOM     24  C   UNL     1       0.523   3.925   3.282  0.00  0.00    +0.011 C 
ATOM     25  C   UNL     1      -0.612   5.771   2.038  0.00  0.00    +0.011 C 
ENDBRANCH   1  23
BRANCH  11  26
ATOM     26  C   UNL     1      -0.748  -0.603  -6.412  0.00  0.00    +0.057 C 
ATOM     27  C   UNL     1      -1.442   0.195  -7.518  0.00  0.00    +0.012 C 
ATOM     28  C   UNL     1      -2.136  -1.021  -6.900  0.00  0.00    +0.012 C 
ENDBRANCH  11  26
TORSDOF 3
