REMARK  Name = ZINC09312039
REMARK  18 active torsions:
REMARK  status: ('A' for Active; 'I' for Inactive)
REMARK    1  A    between atoms: C_1  and  C_2
REMARK    2  A    between atoms: C_2  and  O_3
REMARK    3  A    between atoms: O_3  and  C_4
REMARK    4  A    between atoms: C_6  and  C_11
REMARK    5  A    between atoms: C_9  and  O_10
REMARK    6  A    between atoms: C_14  and  C_15
REMARK    7  A    between atoms: C_14  and  O_27
REMARK    8  A    between atoms: C_18  and  O_22
REMARK    9  A    between atoms: C_19  and  C_21
REMARK   10  A    between atoms: O_22  and  C_23
REMARK   11  A    between atoms: C_23  and  C_24
REMARK   12  A    between atoms: C_24  and  C_25
REMARK   13  A    between atoms: C_24  and  C_26
REMARK   14  A    between atoms: N_32  and  C_33
REMARK   15  A    between atoms: C_33  and  C_34
REMARK   16  A    between atoms: C_34  and  N_72
REMARK   17  A    between atoms: C_35  and  N_72
REMARK   18  A    between atoms: C_36  and  N_72
REMARK                            x       y       z     vdW  Elec       q    Type
REMARK                         _______ _______ _______ _____ _____    ______ ____
ROOT
ATOM      1  C   UNL     1      -2.438  -3.054  -0.211  0.00  0.00    +0.144 C 
ATOM      2  C   UNL     1      -1.242  -2.136  -0.102  0.00  0.00    +0.071 C 
ATOM      3  C   UNL     1      -1.260  -0.759   0.009  0.00  0.00    +0.133 C 
ATOM      4  C   UNL     1      -0.110  -2.964  -0.132  0.00  0.00    +0.249 C 
ATOM      5  O   UNL     1       1.048  -2.594  -0.062  0.00  0.00    -0.282 OA
ATOM      6  C   UNL     1      -0.570  -4.374  -0.262  0.00  0.00    +0.288 C 
ATOM      7  O   UNL     1       0.161  -5.341  -0.316  0.00  0.00    -0.266 OA
ATOM      8  N   UNL     1      -1.912  -4.418  -0.311  0.00  0.00    -0.285 N 
ENDROOT
BRANCH   3   9
ATOM      9  C   UNL     1      -0.012  -0.026   0.273  0.00  0.00    +0.017 A 
ATOM     10  C   UNL     1       0.344   1.066  -0.529  0.00  0.00    +0.015 A 
ATOM     11  C   UNL     1       1.512   1.748  -0.278  0.00  0.00    +0.046 A 
ATOM     12  C   UNL     1       2.338   1.355   0.769  0.00  0.00    +0.123 A 
ATOM     13  C   UNL     1       1.990   0.272   1.568  0.00  0.00    -0.008 A 
ATOM     14  C   UNL     1       0.823  -0.417   1.325  0.00  0.00    +0.018 A 
ATOM     15  C   UNL     1       2.890  -0.148   2.701  0.00  0.00    +0.047 C 
BRANCH  12  16
ATOM     16  O   UNL     1       3.489   2.032   1.012  0.00  0.00    -0.491 OA
BRANCH  16  17
ATOM     17  C   UNL     1       3.787   3.135   0.154  0.00  0.00    +0.232 C 
BRANCH  17  18
ATOM     18  C   UNL     1       5.114   3.768   0.579  0.00  0.00    +0.020 C 
ATOM     19  C   UNL     1       6.250   2.767   0.361  0.00  0.00    +0.010 C 
ATOM     20  C   UNL     1       5.371   5.023  -0.258  0.00  0.00    +0.010 C 
ENDBRANCH  17  18
ENDBRANCH  16  17
ENDBRANCH  12  16
ENDBRANCH   3   9
BRANCH   1  23
ATOM     21  C   UNL     1      -5.258  -2.039   2.088  0.00  0.00    +0.162 A 
ATOM     22  C   UNL     1      -4.458  -2.159   0.964  0.00  0.00    +0.055 A 
ATOM     23  C   UNL     1      -3.304  -2.920   1.014  0.00  0.00    -0.019 A 
ATOM     24  C   UNL     1      -2.941  -3.553   2.188  0.00  0.00    +0.009 A 
ATOM     25  C   UNL     1      -3.733  -3.432   3.316  0.00  0.00    +0.049 A 
ATOM     26  C   UNL     1      -4.893  -2.676   3.270  0.00  0.00    +0.158 A 
BRANCH  26  27
ATOM     27  O   UNL     1      -5.672  -2.556   4.378  0.00  0.00    -0.503 OA
ATOM     28  H   UNL     1      -5.440  -1.805   4.942  0.00  0.00    +0.292 HD
ENDBRANCH  26  27
BRANCH  21  29
ATOM     29  O   UNL     1      -6.396  -1.296   2.038  0.00  0.00    -0.489 OA
BRANCH  29  31
ATOM     30  C   UNL     1      -8.014   0.116   0.929  0.00  0.00    +0.048 C 
ATOM     31  C   UNL     1      -6.709  -0.671   0.792  0.00  0.00    +0.226 C 
ENDBRANCH  29  31
ENDBRANCH  21  29
ENDBRANCH   1  23
BRANCH   3  32
ATOM     32  O   UNL     1      -2.423  -0.086  -0.123  0.00  0.00    -0.506 OA
ATOM     33  H   UNL     1      -2.256   0.893  -0.014  0.00  0.00    +0.292 HD
ENDBRANCH   3  32
BRANCH   8  34
ATOM     34  C   UNL     1      -2.719  -5.635  -0.437  0.00  0.00    +0.090 C 
BRANCH  34  35
ATOM     35  C   UNL     1      -3.047  -6.175   0.956  0.00  0.00    -0.060 C 
BRANCH  35  38
ATOM     36  C   UNL     1      -3.993  -8.073   2.126  0.00  0.00    -0.097 C 
ATOM     37  C   UNL     1      -5.173  -7.096   0.251  0.00  0.00    -0.097 C 
ATOM     38  N   UNL     1      -3.843  -7.413   0.812  0.00  0.00    +0.377 N 
ATOM     39  H   UNL     1      -3.355  -8.050   0.172  0.00  0.00    -0.083 HD
ENDBRANCH  35  38
ENDBRANCH  34  35
ENDBRANCH   8  34
TORSDOF 12
