REMARK  Name = ZINC09262214
REMARK  6 active torsions:
REMARK  status: ('A' for Active; 'I' for Inactive)
REMARK    1  A    between atoms: C_1  and  C_2
REMARK    2  A    between atoms: C_2  and  O_3
REMARK    3  A    between atoms: O_3  and  C_4
REMARK    4  A    between atoms: C_4  and  C_6
REMARK    5  A    between atoms: C_8  and  C_22
REMARK    6  A    between atoms: C_25  and  O_28
REMARK                            x       y       z     vdW  Elec       q    Type
REMARK                         _______ _______ _______ _____ _____    ______ ____
ROOT
ATOM      1  C   UNL     1      -4.503   4.826   0.738  0.00  0.00    +0.211 C 
ATOM      2  C   UNL     1      -3.152   4.877   0.018  0.00  0.00    +0.143 C 
ATOM      3  N   UNL     1      -2.561   3.537   0.035  0.00  0.00    -0.303 N 
ATOM      4  C   UNL     1      -1.236   3.167   0.027  0.00  0.00    +0.071 A 
ATOM      5  C   UNL     1      -0.034   3.860   0.020  0.00  0.00    +0.028 A 
ATOM      6  C   UNL     1       1.159   3.169   0.007  0.00  0.00    +0.002 A 
ATOM      7  C   UNL     1       1.169   1.782   0.001  0.00  0.00    +0.002 A 
ATOM      8  C   UNL     1      -0.013   1.076   0.008  0.00  0.00    +0.030 A 
ATOM      9  C   UNL     1      -1.231   1.759   0.017  0.00  0.00    +0.091 A 
ATOM     10  N   UNL     1      -2.529   1.350   0.038  0.00  0.00    -0.214 NA
ATOM     11  C   UNL     1      -3.313   2.388   0.052  0.00  0.00    +0.204 A 
ATOM     12  N   UNL     1      -4.701   2.428   0.089  0.00  0.00    -0.255 N 
ATOM     13  C   UNL     1      -5.294   3.619   0.318  0.00  0.00    +0.236 C 
ATOM     14  O   UNL     1      -6.495   3.717   0.182  0.00  0.00    -0.274 OA
ATOM     15  H   UNL     1      -5.228   1.625  -0.046  0.00  0.00    +0.158 HD
ENDROOT
BRANCH   2  16
ATOM     16  C   UNL     1      -3.355   5.322  -1.408  0.00  0.00    -0.023 A 
ATOM     17  C   UNL     1      -4.165   4.585  -2.252  0.00  0.00    +0.009 A 
ATOM     18  C   UNL     1      -4.358   4.993  -3.557  0.00  0.00    +0.046 A 
ATOM     19  C   UNL     1      -3.728   6.138  -4.025  0.00  0.00    +0.117 A 
ATOM     20  C   UNL     1      -2.911   6.873  -3.177  0.00  0.00    +0.046 A 
ATOM     21  C   UNL     1      -2.727   6.463  -1.871  0.00  0.00    +0.009 A 
BRANCH  19  22
ATOM     22  O   UNL     1      -3.912   6.539  -5.310  0.00  0.00    -0.507 OA
ATOM     23  H   UNL     1      -3.270   6.171  -5.932  0.00  0.00    +0.292 HD
ENDBRANCH  19  22
ENDBRANCH   2  16
BRANCH   1  24
ATOM     24  C   UNL     1      -4.268   4.771   2.225  0.00  0.00    +0.322 C 
ATOM     25  O   UNL     1      -3.141   4.773   2.660  0.00  0.00    -0.250 OA
BRANCH  24  26
ATOM     26  O   UNL     1      -5.312   4.721   3.068  0.00  0.00    -0.464 OA
BRANCH  26  28
ATOM     27  C   UNL     1      -6.317   4.617   5.283  0.00  0.00    +0.048 C 
ATOM     28  C   UNL     1      -5.012   4.670   4.487  0.00  0.00    +0.229 C 
ENDBRANCH  26  28
ENDBRANCH  24  26
ENDBRANCH   1  24
TORSDOF 5
