REMARK  Name = ZINC59317141
REMARK  9 active torsions:
REMARK  status: ('A' for Active; 'I' for Inactive)
REMARK    1  A    between atoms: C_1  and  C_2
REMARK    2  A    between atoms: C_5  and  N_8
REMARK    3  A    between atoms: C_9  and  C_11
REMARK    4  A    between atoms: C_11  and  C_12
REMARK    5  A    between atoms: C_12  and  S_13
REMARK    6  A    between atoms: S_13  and  C_14
REMARK    7  A    between atoms: C_20  and  C_22
REMARK    8  A    between atoms: C_22  and  C_23
REMARK    9  A    between atoms: C_23  and  N_24
REMARK                            x       y       z     vdW  Elec       q    Type
REMARK                         _______ _______ _______ _____ _____    ______ ____
ROOT
ATOM      1  C   UNL     1       0.707  -9.109   4.240  0.00  0.00    +0.160 A 
ATOM      2  N   UNL     1       0.684  -8.341   5.319  0.00  0.00    -0.133 NA
ATOM      3  N   UNL     1       0.784  -8.821   6.481  0.00  0.00    -0.125 NA
ATOM      4  C   UNL     1       0.918 -10.120   6.694  0.00  0.00    +0.189 A 
ATOM      5  S   UNL     1       0.887 -10.717   5.007  0.00  0.00    -0.024 S 
ATOM      6  N   UNL     1       1.041 -10.823   7.891  0.00  0.00    -0.263 N 
ATOM      7  C   UNL     1       1.034 -10.161   9.065  0.00  0.00    +0.220 C 
ATOM      8  O   UNL     1       0.919  -8.954   9.080  0.00  0.00    -0.275 OA
ATOM      9  H   UNL     1       1.133 -11.789   7.878  0.00  0.00    +0.157 HD
ENDROOT
BRANCH   1  10
ATOM     10  S   UNL     1       0.585  -8.674   2.537  0.00  0.00    -0.096 S 
BRANCH  10  11
ATOM     11  C   UNL     1       0.424  -6.867   2.557  0.00  0.00    +0.085 C 
BRANCH  11  12
ATOM     12  C   UNL     1       0.309  -6.349   1.121  0.00  0.00    +0.107 C 
BRANCH  12  14
ATOM     13  N   UNL     1       0.059  -4.170  -0.021  0.00  0.00    -0.285 N 
ATOM     14  C   UNL     1       0.175  -4.848   1.138  0.00  0.00    +0.218 C 
ATOM     15  O   UNL     1       0.173  -4.251   2.193  0.00  0.00    -0.275 OA
ATOM     16  H   UNL     1      -0.017  -4.651  -0.860  0.00  0.00    +0.155 HD
BRANCH  13  21
ATOM     17  C   UNL     1       0.008   1.503   0.007  0.00  0.00    +0.044 C 
ATOM     18  C   UNL     1       0.022  -0.004  -0.001  0.00  0.00    -0.050 A 
ATOM     19  C   UNL     1       0.777  -0.692   0.931  0.00  0.00    +0.005 A 
ATOM     20  C   UNL     1       0.791  -2.073   0.927  0.00  0.00    +0.023 A 
ATOM     21  C   UNL     1       0.046  -2.771  -0.014  0.00  0.00    +0.033 A 
ATOM     22  C   UNL     1      -0.712  -2.077  -0.948  0.00  0.00    +0.023 A 
ATOM     23  C   UNL     1      -0.726  -0.696  -0.936  0.00  0.00    +0.005 A 
ENDBRANCH  13  21
ENDBRANCH  12  14
ENDBRANCH  11  12
ENDBRANCH  10  11
ENDBRANCH   1  10
BRANCH   7  24
ATOM     24  C   UNL     1       1.167 -10.922  10.359  0.00  0.00    +0.118 C 
BRANCH  24  25
ATOM     25  C   UNL     1       1.129  -9.941  11.533  0.00  0.00    +0.135 C 
BRANCH  25  26
ATOM     26  N   UNL     1       1.259 -10.681  12.791  0.00  0.00    -0.301 N 
ATOM     27  C   UNL     1       0.123 -11.145  13.433  0.00  0.00    +0.059 A 
ATOM     28  C   UNL     1      -1.214 -10.999  13.027  0.00  0.00    +0.027 A 
ATOM     29  C   UNL     1      -2.240 -11.520  13.778  0.00  0.00    +0.002 A 
ATOM     30  C   UNL     1      -1.993 -12.203  14.957  0.00  0.00    +0.001 A 
ATOM     31  C   UNL     1      -0.685 -12.362  15.382  0.00  0.00    +0.017 A 
ATOM     32  C   UNL     1       0.340 -11.842  14.631  0.00  0.00    +0.041 A 
ATOM     33  S   UNL     1       2.109 -11.815  14.800  0.00  0.00    -0.027 S 
ATOM     34  C   UNL     1       2.482 -10.907  13.308  0.00  0.00    +0.292 A 
ATOM     35  O   UNL     1       3.568 -10.574  12.870  0.00  0.00    -0.259 OA
ENDBRANCH  25  26
ENDBRANCH  24  25
ENDBRANCH   7  24
TORSDOF 8
