REMARK  Name = ZINC21182355
REMARK  10 active torsions:
REMARK  status: ('A' for Active; 'I' for Inactive)
REMARK    1  A    between atoms: C_1  and  C_2
REMARK    2  A    between atoms: C_6  and  C_13
REMARK    3  A    between atoms: C_13  and  S_14
REMARK    4  A    between atoms: S_14  and  C_15
REMARK    5  A    between atoms: N_28  and  C_29
REMARK    6  A    between atoms: C_29  and  C_30
REMARK    7  A    between atoms: C_30  and  C_31
REMARK    8  A    between atoms: C_31  and  N_32
REMARK    9  A    between atoms: N_32  and  C_33
REMARK   10  A    between atoms: N_32  and  C_34
REMARK                            x       y       z     vdW  Elec       q    Type
REMARK                         _______ _______ _______ _____ _____    ______ ____
ROOT
ATOM      1  C   UNL     1       3.823  -1.159  -0.041  0.00  0.00    +0.173 A 
ATOM      2  N   UNL     1       2.508  -1.333  -0.029  0.00  0.00    -0.216 NA
ATOM      3  C   UNL     1       1.751  -0.243  -0.016  0.00  0.00    +0.117 A 
ATOM      4  C   UNL     1       2.263   1.074  -0.013  0.00  0.00    +0.076 A 
ATOM      5  C   UNL     1       1.278   2.143   0.001  0.00  0.00    -0.023 A 
ATOM      6  C   UNL     1      -0.022   1.771   0.012  0.00  0.00    -0.004 A 
ATOM      7  S   UNL     1       0.002  -0.004   0.002  0.00  0.00    -0.073 S 
ATOM      8  C   UNL     1      -1.222   2.667   0.034  0.00  0.00    +0.043 C 
ATOM      9  C   UNL     1      -0.767   4.084   0.403  0.00  0.00    +0.005 C 
ATOM     10  C   UNL     1       0.456   4.447  -0.445  0.00  0.00    +0.005 C 
ATOM     11  C   UNL     1       1.662   3.621   0.004  0.00  0.00    +0.037 C 
ATOM     12  C   UNL     1       3.688   1.223  -0.026  0.00  0.00    +0.263 A 
ATOM     13  O   UNL     1       4.224   2.318  -0.025  0.00  0.00    -0.267 OA
ATOM     14  N   UNL     1       4.402   0.073  -0.040  0.00  0.00    -0.287 N 
ENDROOT
BRANCH   1  15
ATOM     15  S   UNL     1       4.863  -2.582  -0.059  0.00  0.00    -0.083 S 
BRANCH  15  16
ATOM     16  C   UNL     1       3.609  -3.888  -0.054  0.00  0.00    +0.113 C 
BRANCH  16  22
ATOM     17  C   UNL     1       5.588  -7.883  -4.988  0.00  0.00    +0.044 C 
ATOM     18  C   UNL     1       5.246  -7.189  -3.695  0.00  0.00    -0.047 A 
ATOM     19  C   UNL     1       4.622  -5.950  -3.724  0.00  0.00    +0.004 A 
ATOM     20  C   UNL     1       4.305  -5.306  -2.561  0.00  0.00    +0.012 A 
ATOM     21  C   UNL     1       4.607  -5.902  -1.333  0.00  0.00    +0.022 A 
ATOM     22  C   UNL     1       4.286  -5.234  -0.069  0.00  0.00    -0.020 A 
ATOM     23  C   UNL     1       4.611  -5.863   1.089  0.00  0.00    +0.097 A 
ATOM     24  C   UNL     1       5.245  -7.124   1.048  0.00  0.00    +0.338 A 
ATOM     25  O   UNL     1       5.531  -7.679   2.094  0.00  0.00    -0.245 OA
ATOM     26  O   UNL     1       5.540  -7.727  -0.114  0.00  0.00    -0.422 OA
ATOM     27  C   UNL     1       5.244  -7.155  -1.300  0.00  0.00    +0.140 A 
ATOM     28  C   UNL     1       5.557  -7.792  -2.494  0.00  0.00    +0.050 A 
ENDBRANCH  16  22
ENDBRANCH  15  16
ENDBRANCH   1  15
BRANCH  14  29
ATOM     29  C   UNL     1       5.865   0.158  -0.054  0.00  0.00    +0.125 C 
BRANCH  29  30
ATOM     30  C   UNL     1       6.388   0.180   1.383  0.00  0.00    +0.003 C 
BRANCH  30  31
ATOM     31  C   UNL     1       7.916   0.269   1.368  0.00  0.00    -0.078 C 
BRANCH  31  32
ATOM     32  N   UNL     1       8.418   0.289   2.748  0.00  0.00    +0.376 N 
ATOM     33  C   UNL     1       9.879   0.136   2.779  0.00  0.00    -0.097 C 
ATOM     34  C   UNL     1       8.004   1.517   3.441  0.00  0.00    -0.097 C 
ATOM     35  H   UNL     1       7.977  -0.566   3.282  0.00  0.00    -0.083 HD
ENDBRANCH  31  32
ENDBRANCH  30  31
ENDBRANCH  29  30
ENDBRANCH  14  29
TORSDOF 7
