REMARK  Name = ZINC34900791
REMARK  8 active torsions:
REMARK  status: ('A' for Active; 'I' for Inactive)
REMARK    1  A    between atoms: C_1  and  C_2
REMARK    2  A    between atoms: C_7  and  C_8
REMARK    3  A    between atoms: N_10  and  C_11
REMARK    4  A    between atoms: C_17  and  N_19
REMARK    5  A    between atoms: C_20  and  C_22
REMARK    6  A    between atoms: N_27  and  S_29
REMARK    7  A    between atoms: S_29  and  C_32
REMARK    8  A    between atoms: C_33  and  C_34
REMARK                            x       y       z     vdW  Elec       q    Type
REMARK                         _______ _______ _______ _____ _____    ______ ____
ROOT
ATOM      1  N   UNL     1      -1.169  -1.336   5.873  0.00  0.00    -0.310 N 
ATOM      2  C   UNL     1      -1.559  -2.503   6.424  0.00  0.00    +0.218 C 
ATOM      3  O   UNL     1      -0.770  -3.165   7.063  0.00  0.00    -0.275 OA
ATOM      4  H   UNL     1      -1.801  -0.806   5.362  0.00  0.00    +0.149 HD
ENDROOT
BRANCH   1  10
ATOM      5  C   UNL     1       0.578   0.067   4.894  0.00  0.00    +0.093 C 
ATOM      6  C   UNL     1       2.016   0.556   5.076  0.00  0.00    +0.024 C 
ATOM      7  C   UNL     1       2.134   1.311   6.401  0.00  0.00    +0.002 C 
ATOM      8  C   UNL     1       1.764   0.377   7.555  0.00  0.00    +0.002 C 
ATOM      9  C   UNL     1       0.326  -0.113   7.373  0.00  0.00    +0.024 C 
ATOM     10  C   UNL     1       0.207  -0.868   6.048  0.00  0.00    +0.093 C 
BRANCH   5  13
ATOM     11  C   UNL     1       0.242   0.021   2.481  0.00  0.00    +0.245 C 
ATOM     12  O   UNL     1       0.135   1.232   2.503  0.00  0.00    -0.270 OA
ATOM     13  N   UNL     1       0.465  -0.656   3.625  0.00  0.00    -0.307 N 
ATOM     14  H   UNL     1       0.551  -1.622   3.607  0.00  0.00    +0.149 HD
BRANCH  11  21
ATOM     15  C   UNL     1      -0.511   1.452   0.082  0.00  0.00    +0.044 C 
ATOM     16  C   UNL     1      -0.234  -0.028   0.036  0.00  0.00    -0.038 A 
ATOM     17  C   UNL     1      -0.334  -0.714  -1.157  0.00  0.00    +0.004 A 
ATOM     18  C   UNL     1      -0.080  -2.073  -1.200  0.00  0.00    +0.000 A 
ATOM     19  C   UNL     1       0.275  -2.754  -0.049  0.00  0.00    +0.001 A 
ATOM     20  C   UNL     1       0.378  -2.080   1.150  0.00  0.00    +0.013 A 
ATOM     21  C   UNL     1       0.128  -0.708   1.200  0.00  0.00    +0.040 A 
ENDBRANCH  11  21
ENDBRANCH   5  13
ENDBRANCH   1  10
BRANCH   2  22
ATOM     22  C   UNL     1      -2.976  -2.985   6.245  0.00  0.00    +0.091 C 
ATOM     23  C   UNL     1      -3.943  -1.958   6.836  0.00  0.00    +0.015 C 
ATOM     24  C   UNL     1      -5.384  -2.430   6.626  0.00  0.00    +0.018 C 
ATOM     25  C   UNL     1      -5.590  -3.764   7.351  0.00  0.00    +0.109 C 
ATOM     26  N   UNL     1      -4.569  -4.715   6.892  0.00  0.00    -0.176 NA
ATOM     27  C   UNL     1      -3.155  -4.325   6.965  0.00  0.00    +0.122 C 
BRANCH  26  28
ATOM     28  S   UNL     1      -5.005  -6.201   6.304  0.00  0.00    +0.054 S 
ATOM     29  O   UNL     1      -3.880  -7.052   6.477  0.00  0.00    -0.153 OA
ATOM     30  O   UNL     1      -6.279  -6.500   6.857  0.00  0.00    -0.153 OA
BRANCH  28  31
ATOM     31  C   UNL     1      -5.239  -6.024   4.566  0.00  0.00    +0.153 C 
ATOM     32  C   UNL     1      -4.439  -6.659   3.721  0.00  0.00    +0.028 C 
BRANCH  32  33
ATOM     33  C   UNL     1      -4.636  -6.511   2.264  0.00  0.00    -0.024 A 
ATOM     34  C   UNL     1      -5.659  -5.699   1.774  0.00  0.00    +0.008 A 
ATOM     35  C   UNL     1      -5.838  -5.565   0.413  0.00  0.00    +0.001 A 
ATOM     36  C   UNL     1      -5.005  -6.234  -0.466  0.00  0.00    +0.000 A 
ATOM     37  C   UNL     1      -3.988  -7.041   0.013  0.00  0.00    +0.001 A 
ATOM     38  C   UNL     1      -3.795  -7.178   1.372  0.00  0.00    +0.008 A 
ENDBRANCH  32  33
ENDBRANCH  28  31
ENDBRANCH  26  28
ENDBRANCH   2  22
TORSDOF 7
