REMARK  Name = ZINC02269454
REMARK  9 active torsions:
REMARK  status: ('A' for Active; 'I' for Inactive)
REMARK    1  A    between atoms: C_1  and  C_2
REMARK    2  A    between atoms: C_2  and  O_3
REMARK    3  A    between atoms: O_3  and  C_4
REMARK    4  A    between atoms: C_7  and  C_10
REMARK    5  A    between atoms: C_11  and  C_27
REMARK    6  A    between atoms: C_12  and  C_21
REMARK    7  A    between atoms: N_28  and  N_29
REMARK    8  A    between atoms: C_30  and  C_32
REMARK    9  A    between atoms: C_35  and  N_37
REMARK                            x       y       z     vdW  Elec       q    Type
REMARK                         _______ _______ _______ _____ _____    ______ ____
ROOT
ATOM      1  C   UNL     1       1.777   2.595  -0.980  0.00  0.00    +0.141 C 
ATOM      2  C   UNL     1       1.344   1.714   0.112  0.00  0.00    +0.027 C 
ATOM      3  C   UNL     1      -0.118   1.413   0.295  0.00  0.00    +0.088 C 
ATOM      4  C   UNL     1      -0.879   1.751  -0.960  0.00  0.00    +0.007 A 
ATOM      5  C   UNL     1      -2.142   1.210  -1.136  0.00  0.00    +0.008 A 
ATOM      6  C   UNL     1      -2.873   1.494  -2.273  0.00  0.00    +0.001 A 
ATOM      7  C   UNL     1      -2.343   2.324  -3.244  0.00  0.00    +0.004 A 
ATOM      8  C   UNL     1      -1.087   2.867  -3.076  0.00  0.00    +0.046 A 
ATOM      9  C   UNL     1      -0.345   2.583  -1.930  0.00  0.00    +0.133 A 
ATOM     10  O   UNL     1       0.883   3.138  -1.808  0.00  0.00    -0.455 OA
ENDROOT
BRANCH   1  14
ATOM     11  C   UNL     1       5.841   3.409  -1.500  0.00  0.00    +0.121 A 
ATOM     12  C   UNL     1       5.409   2.087  -1.368  0.00  0.00    +0.046 A 
ATOM     13  C   UNL     1       4.085   1.814  -1.198  0.00  0.00    +0.015 A 
ATOM     14  C   UNL     1       3.151   2.870  -1.156  0.00  0.00    +0.018 A 
ATOM     15  C   UNL     1       3.595   4.202  -1.295  0.00  0.00    +0.015 A 
ATOM     16  C   UNL     1       4.922   4.460  -1.459  0.00  0.00    +0.046 A 
BRANCH  11  17
ATOM     17  O   UNL     1       7.158   3.672  -1.669  0.00  0.00    -0.492 OA
BRANCH  17  19
ATOM     18  C   UNL     1       9.050   5.144  -1.980  0.00  0.00    +0.048 C 
ATOM     19  C   UNL     1       7.534   5.045  -1.798  0.00  0.00    +0.225 C 
ENDBRANCH  17  19
ENDBRANCH  11  17
ENDBRANCH   1  14
BRANCH   3  20
ATOM     20  C   UNL     1      -0.658   2.233   1.439  0.00  0.00    -0.035 A 
ATOM     21  C   UNL     1      -0.604   3.613   1.386  0.00  0.00    +0.004 A 
ATOM     22  C   UNL     1      -1.103   4.365   2.433  0.00  0.00    +0.000 A 
ATOM     23  C   UNL     1      -1.647   3.737   3.537  0.00  0.00    +0.000 A 
ATOM     24  C   UNL     1      -1.697   2.356   3.592  0.00  0.00    +0.000 A 
ATOM     25  C   UNL     1      -1.202   1.604   2.543  0.00  0.00    +0.004 A 
ENDBRANCH   3  20
BRANCH   2  26
ATOM     26  C   UNL     1       2.265   1.171   0.958  0.00  0.00    +0.138 C 
ATOM     27  N   UNL     1       1.882   0.284   1.883  0.00  0.00    -0.188 NA
BRANCH  27  28
ATOM     28  N   UNL     1       2.734  -0.156   2.746  0.00  0.00    -0.200 N 
ATOM     29  C   UNL     1       2.377  -1.127   3.610  0.00  0.00    +0.299 C 
ATOM     30  O   UNL     1       1.234  -1.543   3.620  0.00  0.00    -0.265 OA
ATOM     31  H   UNL     1       3.631   0.212   2.773  0.00  0.00    +0.178 HD
BRANCH  29  32
ATOM     32  C   UNL     1       3.366  -1.683   4.534  0.00  0.00    +0.194 A 
ATOM     33  C   UNL     1       3.140  -2.675   5.466  0.00  0.00    +0.057 A 
ATOM     34  C   UNL     1       4.358  -2.889   6.125  0.00  0.00    +0.076 A 
ATOM     35  C   UNL     1       5.261  -2.038   5.582  0.00  0.00    +0.280 A 
ATOM     36  O   UNL     1       4.662  -1.320   4.624  0.00  0.00    -0.429 OA
BRANCH  35  37
ATOM     37  N   UNL     1       6.682  -1.925   5.981  0.00  0.00    +0.093 N 
ATOM     38  O   UNL     1       7.160  -2.692   6.939  0.00  0.00    -0.123 OA
ATOM     39  O   UNL     1       7.468  -1.057   5.378  0.00  0.00    -0.123 OA
ENDBRANCH  35  37
ENDBRANCH  29  32
ENDBRANCH  27  28
ENDBRANCH   2  26
TORSDOF 8
