REMARK  Name = ZINC04035753
REMARK  12 active torsions:
REMARK  status: ('A' for Active; 'I' for Inactive)
REMARK    1  A    between atoms: C_1  and  C_2
REMARK    2  A    between atoms: C_3  and  C_15
REMARK    3  A    between atoms: C_5  and  C_7
REMARK    4  A    between atoms: C_11  and  O_13
REMARK    5  A    between atoms: O_13  and  C_14
REMARK    6  A    between atoms: C_15  and  S_16
REMARK    7  A    between atoms: S_16  and  C_19
REMARK    8  A    between atoms: C_19  and  C_20
REMARK    9  A    between atoms: N_22  and  C_23
REMARK   10  A    between atoms: C_23  and  C_24
REMARK   11  A    between atoms: C_24  and  C_25
REMARK   12  A    between atoms: C_25  and  N_26
REMARK                            x       y       z     vdW  Elec       q    Type
REMARK                         _______ _______ _______ _____ _____    ______ ____
ROOT
ATOM      1  C   UNL     1      -4.824   0.321  -1.473  0.00  0.00    +0.261 C 
ENDROOT
BRANCH   1   2
ATOM      2  C   UNL     1      -5.467   0.520  -2.821  0.00  0.00    +0.234 C 
ATOM      3  O   UNL     1      -4.825   0.331  -3.833  0.00  0.00    -0.274 OA
ATOM      4  N   UNL     1      -6.755   0.909  -2.903  0.00  0.00    -0.314 N 
ATOM      5  H   UNL     1      -7.268   1.061  -2.094  0.00  0.00    +0.149 HD
BRANCH   4   6
ATOM      6  C   UNL     1      -7.379   1.103  -4.214  0.00  0.00    +0.102 C 
BRANCH   6   7
ATOM      7  C   UNL     1      -8.833   1.541  -4.026  0.00  0.00    +0.000 C 
BRANCH   7   8
ATOM      8  C   UNL     1      -9.486   1.743  -5.395  0.00  0.00    -0.077 C 
BRANCH   8   9
ATOM      9  N   UNL     1     -10.882   2.163  -5.215  0.00  0.00    +0.383 N 
ATOM     10  C   UNL     1     -11.542   2.253  -6.526  0.00  0.00    -0.074 C 
ATOM     11  C   UNL     1     -13.049   2.387  -6.305  0.00  0.00    +0.017 C 
ATOM     12  C   UNL     1     -13.324   3.496  -5.322  0.00  0.00    -0.048 A 
ATOM     13  C   UNL     1     -14.609   4.011  -5.243  0.00  0.00    +0.004 A 
ATOM     14  C   UNL     1     -14.899   5.025  -4.352  0.00  0.00    +0.000 A 
ATOM     15  C   UNL     1     -13.904   5.529  -3.536  0.00  0.00    +0.000 A 
ATOM     16  C   UNL     1     -12.624   5.018  -3.616  0.00  0.00    +0.002 A 
ATOM     17  C   UNL     1     -12.330   4.001  -4.511  0.00  0.00    -0.061 A 
ATOM     18  C   UNL     1     -10.919   3.479  -4.570  0.00  0.00    -0.043 C 
ATOM     19  H   UNL     1     -11.365   1.491  -4.638  0.00  0.00    -0.081 HD
ENDBRANCH   8   9
ENDBRANCH   7   8
ENDBRANCH   6   7
ENDBRANCH   4   6
ENDBRANCH   1   2
BRANCH   1  20
ATOM     20  S   UNL     1      -3.100  -0.198  -1.695  0.00  0.00    -0.017 S 
ATOM     21  O   UNL     1      -2.385   0.869  -2.304  0.00  0.00    -0.174 OA
ATOM     22  O   UNL     1      -3.092  -1.477  -2.313  0.00  0.00    -0.174 OA
BRANCH  20  23
ATOM     23  C   UNL     1      -2.513  -0.381   0.011  0.00  0.00    +0.225 C 
BRANCH  23  26
ATOM     24  C   UNL     1      -0.018   1.503   0.010  0.00  0.00    +0.088 C 
ATOM     25  C   UNL     1       0.002  -0.004   0.002  0.00  0.00    +0.127 A 
ATOM     26  C   UNL     1      -1.071  -0.816   0.003  0.00  0.00    +0.104 A 
ATOM     27  N   UNL     1      -0.627  -2.083  -0.006  0.00  0.00    -0.212 NA
ATOM     28  C   UNL     1       0.685  -2.068  -0.012  0.00  0.00    +0.228 A 
ATOM     29  O   UNL     1       1.098  -0.788  -0.013  0.00  0.00    -0.440 OA
BRANCH  28  30
ATOM     30  C   UNL     1       1.562  -3.258  -0.022  0.00  0.00    +0.040 A 
ATOM     31  C   UNL     1       1.005  -4.538  -0.032  0.00  0.00    +0.013 A 
ATOM     32  C   UNL     1       1.826  -5.646  -0.042  0.00  0.00    +0.004 A 
ATOM     33  C   UNL     1       3.201  -5.494  -0.042  0.00  0.00    +0.045 A 
ATOM     34  C   UNL     1       3.764  -4.225  -0.032  0.00  0.00    +0.121 A 
ATOM     35  C   UNL     1       2.948  -3.106  -0.028  0.00  0.00    +0.058 A 
BRANCH  34  36
ATOM     36  O   UNL     1       5.115  -4.081  -0.031  0.00  0.00    -0.495 OA
ATOM     37  C   UNL     1       5.895  -5.279  -0.041  0.00  0.00    +0.277 C 
ENDBRANCH  34  36
ENDBRANCH  28  30
ENDBRANCH  23  26
ENDBRANCH  20  23
ENDBRANCH   1  20
TORSDOF 10
