REMARK  Name = ZINC12789617
REMARK  5 active torsions:
REMARK  status: ('A' for Active; 'I' for Inactive)
REMARK    1  A    between atoms: C_1  and  C_2
REMARK    2  A    between atoms: C_2  and  C_29
REMARK    3  A    between atoms: N_5  and  C_9
REMARK    4  A    between atoms: C_9  and  C_10
REMARK    5  A    between atoms: C_21  and  C_23
REMARK                            x       y       z     vdW  Elec       q    Type
REMARK                         _______ _______ _______ _____ _____    ______ ____
ROOT
ATOM      1  C   UNL     1       6.357   5.902   1.712  0.00  0.00    +0.214 C 
ENDROOT
BRANCH   1   2
ATOM      2  C   UNL     1       7.856   5.825   1.582  0.00  0.00    +0.238 C 
ATOM      3  O   UNL     1       8.358   5.485   0.532  0.00  0.00    -0.273 OA
ATOM      4  N   UNL     1       8.640   6.136   2.634  0.00  0.00    -0.261 N 
ATOM      5  C   UNL     1       8.045   6.695   3.767  0.00  0.00    +0.050 A 
ATOM      6  C   UNL     1       6.787   7.276   3.628  0.00  0.00    +0.024 A 
ATOM      7  C   UNL     1       6.151   7.835   4.717  0.00  0.00    +0.002 A 
ATOM      8  C   UNL     1       6.758   7.822   5.960  0.00  0.00    +0.001 A 
ATOM      9  C   UNL     1       8.006   7.252   6.111  0.00  0.00    +0.016 A 
ATOM     10  C   UNL     1       8.656   6.691   5.017  0.00  0.00    +0.029 A 
ATOM     11  S   UNL     1      10.259   5.990   5.240  0.00  0.00    -0.121 S 
ATOM     12  C   UNL     1      10.497   5.003   3.732  0.00  0.00    +0.102 C 
ATOM     13  C   UNL     1      10.072   5.866   2.538  0.00  0.00    +0.122 C 
BRANCH  13  14
ATOM     14  C   UNL     1      10.363   5.130   1.256  0.00  0.00    -0.026 A 
ATOM     15  C   UNL     1       9.967   3.814   1.109  0.00  0.00    +0.005 A 
ATOM     16  C   UNL     1      10.230   3.140  -0.069  0.00  0.00    +0.000 A 
ATOM     17  C   UNL     1      10.898   3.780  -1.097  0.00  0.00    +0.000 A 
ATOM     18  C   UNL     1      11.299   5.094  -0.947  0.00  0.00    +0.000 A 
ATOM     19  C   UNL     1      11.032   5.769   0.229  0.00  0.00    +0.005 A 
ENDBRANCH  13  14
ENDBRANCH   1   2
BRANCH   1  24
ATOM     20  C   UNL     1       5.614   3.236  -2.087  0.00  0.00    +0.050 C 
ATOM     21  C   UNL     1       4.797   3.798  -0.921  0.00  0.00    +0.168 C 
ATOM     22  C   UNL     1       5.387   5.106  -0.434  0.00  0.00    +0.254 C 
ATOM     23  O   UNL     1       5.515   6.132  -1.067  0.00  0.00    -0.272 OA
ATOM     24  N   UNL     1       5.740   4.892   0.849  0.00  0.00    -0.215 N 
ATOM     25  C   UNL     1       5.458   3.643   1.236  0.00  0.00    +0.310 C 
ATOM     26  O   UNL     1       5.686   3.213   2.350  0.00  0.00    -0.252 OA
ATOM     27  N   UNL     1       4.896   2.915   0.254  0.00  0.00    -0.279 N 
ATOM     28  H   UNL     1       4.611   1.989   0.309  0.00  0.00    +0.152 HD
BRANCH  21  29
ATOM     29  C   UNL     1       3.357   3.983  -1.326  0.00  0.00    +0.138 A 
ATOM     30  C   UNL     1       2.393   3.065  -1.172  0.00  0.00    +0.056 A 
ATOM     31  C   UNL     1       1.164   3.670  -1.700  0.00  0.00    +0.020 A 
ATOM     32  C   UNL     1      -0.156   3.242  -1.827  0.00  0.00    +0.011 A 
ATOM     33  C   UNL     1      -1.088   4.074  -2.384  0.00  0.00    +0.001 A 
ATOM     34  C   UNL     1      -0.729   5.343  -2.813  0.00  0.00    +0.004 A 
ATOM     35  C   UNL     1       0.572   5.784  -2.695  0.00  0.00    +0.047 A 
ATOM     36  C   UNL     1       1.535   4.953  -2.136  0.00  0.00    +0.135 A 
ATOM     37  O   UNL     1       2.853   5.093  -1.892  0.00  0.00    -0.457 OA
ENDBRANCH  21  29
ENDBRANCH   1  24
TORSDOF 4
