REMARK  Name = ZINC08920251
REMARK  12 active torsions:
REMARK  status: ('A' for Active; 'I' for Inactive)
REMARK    1  A    between atoms: C_1  and  C_2
REMARK    2  A    between atoms: C_2  and  N_3
REMARK    3  A    between atoms: N_3  and  C_4
REMARK    4  A    between atoms: N_3  and  S_6
REMARK    5  A    between atoms: C_4  and  C_5
REMARK    6  A    between atoms: S_6  and  C_9
REMARK    7  A    between atoms: C_12  and  C_15
REMARK    8  A    between atoms: N_17  and  C_18
REMARK    9  A    between atoms: C_19  and  C_27
REMARK   10  A    between atoms: C_26  and  N_63
REMARK   11  A    between atoms: N_29  and  N_30
REMARK   12  A    between atoms: C_31  and  C_33
REMARK                            x       y       z     vdW  Elec       q    Type
REMARK                         _______ _______ _______ _____ _____    ______ ____
ROOT
ATOM      1  C   UNL     1       1.179   1.675  -0.000  0.00  0.00    +0.085 A 
ATOM      2  C   UNL     1       2.478   1.181  -0.015  0.00  0.00    +0.070 A 
ATOM      3  C   UNL     1       3.560   2.147  -0.021  0.00  0.00    -0.027 A 
ATOM      4  C   UNL     1       3.177   3.444  -0.009  0.00  0.00    -0.021 A 
ATOM      5  S   UNL     1       1.409   3.393  -0.001  0.00  0.00    -0.079 S 
ATOM      6  C   UNL     1       4.081   4.637  -0.009  0.00  0.00    -0.036 C 
ATOM      7  C   UNL     1       5.827   3.025  -0.480  0.00  0.00    -0.074 C 
ATOM      8  C   UNL     1       5.041   1.787  -0.041  0.00  0.00    +0.018 C 
ATOM      9  C   UNL     1       6.412   5.277   0.191  0.00  0.00    -0.096 C 
ATOM     10  N   UNL     1       5.441   4.176   0.362  0.00  0.00    +0.381 N 
ATOM     11  H   UNL     1       5.438   3.884   1.346  0.00  0.00    -0.082 HD
ENDROOT
BRANCH   1  14
ATOM     12  C   UNL     1      -1.187   1.624   0.017  0.00  0.00    +0.249 C 
ATOM     13  O   UNL     1      -1.204   2.839   0.023  0.00  0.00    -0.270 OA
ATOM     14  N   UNL     1      -0.011   0.966   0.007  0.00  0.00    -0.275 N 
ATOM     15  H   UNL     1       0.002  -0.004   0.002  0.00  0.00    +0.156 HD
BRANCH  12  19
ATOM     16  C   UNL     1      -4.836  -0.550   0.021  0.00  0.00    +0.106 A 
ATOM     17  C   UNL     1      -4.859   0.834   0.029  0.00  0.00    +0.029 A 
ATOM     18  C   UNL     1      -3.677   1.546   0.028  0.00  0.00    +0.015 A 
ATOM     19  C   UNL     1      -2.457   0.868   0.018  0.00  0.00    +0.037 A 
ATOM     20  C   UNL     1      -2.442  -0.528   0.005  0.00  0.00    +0.015 A 
ATOM     21  C   UNL     1      -3.631  -1.228   0.012  0.00  0.00    +0.029 A 
BRANCH  16  22
ATOM     22  S   UNL     1      -6.350  -1.451   0.023  0.00  0.00    +0.061 S 
ATOM     23  O   UNL     1      -6.059  -2.732   0.565  0.00  0.00    -0.153 OA
ATOM     24  O   UNL     1      -7.334  -0.592   0.583  0.00  0.00    -0.153 OA
BRANCH  22  25
ATOM     25  N   UNL     1      -6.778  -1.693  -1.559  0.00  0.00    -0.177 NA
BRANCH  25  27
ATOM     26  C   UNL     1      -7.396  -3.973  -2.192  0.00  0.00    +0.022 C 
ATOM     27  C   UNL     1      -6.318  -2.889  -2.268  0.00  0.00    +0.106 C 
ENDBRANCH  25  27
BRANCH  25  28
ATOM     28  C   UNL     1      -7.616  -0.709  -2.249  0.00  0.00    +0.106 C 
ATOM     29  C   UNL     1      -6.727   0.268  -3.020  0.00  0.00    +0.022 C 
ENDBRANCH  25  28
ENDBRANCH  22  25
ENDBRANCH  16  22
ENDBRANCH  12  19
ENDBRANCH   1  14
BRANCH   2  30
ATOM     30  C   UNL     1       2.744  -0.261  -0.026  0.00  0.00    +0.263 C 
ATOM     31  O   UNL     1       2.844  -0.853  -1.084  0.00  0.00    -0.269 OA
ATOM     32  N   UNL     1       2.877  -0.929   1.137  0.00  0.00    -0.230 N 
ATOM     33  H   UNL     1       2.798  -0.457   1.980  0.00  0.00    +0.173 HD
BRANCH  32  34
ATOM     34  N   UNL     1       3.132  -2.307   1.127  0.00  0.00    -0.234 N 
ATOM     35  C   UNL     1       3.266  -2.976   2.289  0.00  0.00    +0.226 C 
ATOM     36  O   UNL     1       3.166  -2.386   3.344  0.00  0.00    -0.275 OA
ATOM     37  C   UNL     1       3.539  -4.458   2.278  0.00  0.00    +0.110 C 
ATOM     38  H   UNL     1       3.212  -2.780   0.283  0.00  0.00    +0.173 HD
ENDBRANCH  32  34
ENDBRANCH   2  30
TORSDOF 8
