REMARK  Name = ZINC22184629
REMARK  8 active torsions:
REMARK  status: ('A' for Active; 'I' for Inactive)
REMARK    1  A    between atoms: C_1  and  C_2
REMARK    2  A    between atoms: C_5  and  N_9
REMARK    3  A    between atoms: C_10  and  C_12
REMARK    4  A    between atoms: C_12  and  C_13
REMARK    5  A    between atoms: N_18  and  N_19
REMARK    6  A    between atoms: C_20  and  C_21
REMARK    7  A    between atoms: C_20  and  C_22
REMARK    8  A    between atoms: C_25  and  N_28
REMARK                            x       y       z     vdW  Elec       q    Type
REMARK                         _______ _______ _______ _____ _____    ______ ____
ROOT
ATOM      1  C   UNL     1       0.426  -6.869   2.554  0.00  0.00    +0.149 C 
ATOM      2  C   UNL     1       0.539  -8.387   2.586  0.00  0.00    +0.233 C 
ATOM      3  N   UNL     1       1.684  -8.811   3.105  0.00  0.00    -0.263 N 
ATOM      4  C   UNL     1       2.641  -7.967   3.554  0.00  0.00    +0.183 C 
ATOM      5  N   UNL     1       3.848  -8.306   4.102  0.00  0.00    -0.126 NA
ATOM      6  S   UNL     1       2.043  -6.414   3.300  0.00  0.00    -0.075 S 
ATOM      7  O   UNL     1      -0.327  -9.131   2.180  0.00  0.00    -0.274 OA
ATOM      8  H   UNL     1       1.841  -9.766   3.165  0.00  0.00    +0.157 HD
ENDROOT
BRANCH   5   9
ATOM      9  N   UNL     1       4.664  -7.384   4.487  0.00  0.00    -0.152 NA
ATOM     10  C   UNL     1       5.856  -7.720   5.028  0.00  0.00    +0.068 C 
ATOM     11  C   UNL     1       6.232  -9.171   5.183  0.00  0.00    +0.068 C 
BRANCH  10  12
ATOM     12  C   UNL     1       6.742  -6.718   5.446  0.00  0.00    -0.002 A 
ATOM     13  C   UNL     1       7.996  -7.062   6.008  0.00  0.00    +0.012 A 
ATOM     14  C   UNL     1       8.848  -6.076   6.410  0.00  0.00    +0.033 A 
ATOM     15  C   UNL     1       8.493  -4.740   6.270  0.00  0.00    +0.126 A 
ATOM     16  C   UNL     1       7.266  -4.388   5.719  0.00  0.00    +0.033 A 
ATOM     17  C   UNL     1       6.396  -5.353   5.304  0.00  0.00    +0.012 A 
BRANCH  15  18
ATOM     18  N   UNL     1       9.429  -3.682   6.711  0.00  0.00    +0.056 N 
ATOM     19  O   UNL     1      10.593  -4.008   7.234  0.00  0.00    -0.126 OA
ATOM     20  O   UNL     1       9.099  -2.413   6.581  0.00  0.00    -0.126 OA
ENDBRANCH  15  18
ENDBRANCH  10  12
ENDBRANCH   5   9
BRANCH   1  21
ATOM     21  C   UNL     1       0.310  -6.351   1.119  0.00  0.00    +0.120 C 
BRANCH  21  23
ATOM     22  N   UNL     1       0.059  -4.170  -0.022  0.00  0.00    -0.285 N 
ATOM     23  C   UNL     1       0.176  -4.850   1.136  0.00  0.00    +0.219 C 
ATOM     24  O   UNL     1       0.174  -4.254   2.192  0.00  0.00    -0.275 OA
ATOM     25  H   UNL     1      -0.015  -4.651  -0.861  0.00  0.00    +0.155 HD
BRANCH  22  30
ATOM     26  C   UNL     1       0.008   1.503   0.012  0.00  0.00    +0.045 C 
ATOM     27  C   UNL     1       0.022  -0.004   0.003  0.00  0.00    -0.032 A 
ATOM     28  C   UNL     1       0.777  -0.693   0.934  0.00  0.00    +0.006 A 
ATOM     29  C   UNL     1       0.792  -2.074   0.928  0.00  0.00    +0.023 A 
ATOM     30  C   UNL     1       0.046  -2.771  -0.014  0.00  0.00    +0.035 A 
ATOM     31  C   UNL     1      -0.712  -2.078  -0.948  0.00  0.00    +0.043 A 
ATOM     32  C   UNL     1      -0.726  -0.695  -0.934  0.00  0.00    +0.046 A 
ATOM     33 CL   UNL     1      -1.678   0.174  -2.096  0.00  0.00    -0.083 Cl
ENDBRANCH  22  30
ENDBRANCH  21  23
ENDBRANCH   1  21
TORSDOF 6
