REMARK  Name = ZINC32104630
REMARK  5 active torsions:
REMARK  status: ('A' for Active; 'I' for Inactive)
REMARK    1  A    between atoms: C_1  and  C_2
REMARK    2  A    between atoms: N_8  and  C_28
REMARK    3  A    between atoms: C_13  and  O_27
REMARK    4  A    between atoms: N_19  and  C_20
REMARK    5  A    between atoms: C_28  and  C_29
REMARK                            x       y       z     vdW  Elec       q    Type
REMARK                         _______ _______ _______ _____ _____    ______ ____
ROOT
ATOM      1  C   UNL     1      -0.420   1.489   0.077  0.00  0.00    +0.045 C 
ATOM      2  C   UNL     1      -0.346  -0.016   0.060  0.00  0.00    -0.029 A 
ATOM      3  C   UNL     1      -0.579  -0.737  -1.101  0.00  0.00    +0.005 A 
ATOM      4  C   UNL     1      -0.514  -2.115  -1.130  0.00  0.00    +0.001 A 
ATOM      5  C   UNL     1      -0.210  -2.850   0.011  0.00  0.00    +0.007 A 
ATOM      6  C   UNL     1       0.023  -2.140   1.169  0.00  0.00    -0.006 A 
ATOM      7  C   UNL     1      -0.034  -0.741   1.210  0.00  0.00    +0.045 A 
ATOM      8  N   UNL     1       0.247  -0.286   2.487  0.00  0.00    -0.258 N 
ATOM      9  C   UNL     1       0.505  -1.299   3.340  0.00  0.00    +0.236 C 
ATOM     10  O   UNL     1       0.782  -1.199   4.517  0.00  0.00    -0.274 OA
ATOM     11  C   UNL     1       0.370  -2.584   2.553  0.00  0.00    +0.112 C 
ATOM     12  C   UNL     1      -0.724  -3.471   3.144  0.00  0.00    +0.121 C 
ATOM     13  C   UNL     1      -0.587  -4.894   2.685  0.00  0.00    +0.191 C 
ATOM     14  N   UNL     1       0.554  -5.458   2.423  0.00  0.00    -0.197 NA
ATOM     15  C   UNL     1       1.701  -4.727   2.516  0.00  0.00    +0.164 A 
ATOM     16  C   UNL     1       1.670  -3.338   2.580  0.00  0.00    +0.036 A 
ATOM     17  C   UNL     1       2.975  -2.889   2.664  0.00  0.00    +0.142 A 
ATOM     18  N   UNL     1       3.776  -3.930   2.641  0.00  0.00    -0.172 NA
ATOM     19  N   UNL     1       3.001  -5.097   2.540  0.00  0.00    -0.213 N 
ENDROOT
BRANCH  19  20
ATOM     20  C   UNL     1       3.488  -6.410   2.473  0.00  0.00    +0.086 A 
ATOM     21  C   UNL     1       2.604  -7.475   2.367  0.00  0.00    +0.029 A 
ATOM     22  C   UNL     1       3.087  -8.768   2.302  0.00  0.00    +0.002 A 
ATOM     23  C   UNL     1       4.449  -9.002   2.343  0.00  0.00    +0.002 A 
ATOM     24  C   UNL     1       5.333  -7.944   2.449  0.00  0.00    +0.022 A 
ATOM     25  C   UNL     1       4.856  -6.647   2.508  0.00  0.00    +0.066 A 
ATOM     26 CL   UNL     1       5.966  -5.318   2.633  0.00  0.00    -0.081 Cl
ENDBRANCH  19  20
BRANCH  13  27
ATOM     27  O   UNL     1      -1.710  -5.627   2.536  0.00  0.00    -0.495 OA
ATOM     28  H   UNL     1      -1.551  -6.533   2.238  0.00  0.00    +0.293 HD
ENDBRANCH  13  27
BRANCH   8  29
ATOM     29  C   UNL     1       0.263   1.129   2.867  0.00  0.00    +0.202 C 
BRANCH  29  30
ATOM     30  C   UNL     1      -1.096   1.551   3.244  0.00  0.00    -0.086 C 
ATOM     31  C   UNL     1      -2.180   1.887   3.545  0.00  0.00    +0.005 C 
ENDBRANCH  29  30
ENDBRANCH   8  29
TORSDOF 4
