REMARK  Name = ZINC13425581
REMARK  7 active torsions:
REMARK  status: ('A' for Active; 'I' for Inactive)
REMARK    1  A    between atoms: C_4  and  C_7
REMARK    2  A    between atoms: C_9  and  S_33
REMARK    3  A    between atoms: C_10  and  C_31
REMARK    4  A    between atoms: C_11  and  C_24
REMARK    5  A    between atoms: C_13  and  C_15
REMARK    6  A    between atoms: S_33  and  C_34
REMARK    7  A    between atoms: C_34  and  C_35
REMARK                            x       y       z     vdW  Elec       q    Type
REMARK                         _______ _______ _______ _____ _____    ______ ____
ROOT
ATOM      1  C   UNL     1       1.852  -0.565   3.203  0.00  0.00    +0.078 C 
ATOM      2  N   UNL     1       1.242   0.226   2.371  0.00  0.00    -0.243 NA
ATOM      3  C   UNL     1       0.181   0.969   2.739  0.00  0.00    +0.093 C 
ATOM      4  C   UNL     1      -0.108   1.176   4.070  0.00  0.00    +0.158 C 
ATOM      5  C   UNL     1       0.792   0.594   5.125  0.00  0.00    +0.078 C 
ATOM      6  C   UNL     1       1.369  -0.731   4.619  0.00  0.00    +0.020 C 
ENDROOT
BRANCH   6   7
ATOM      7  C   UNL     1       1.612  -2.150   5.066  0.00  0.00    +0.108 A 
ATOM      8  N   UNL     1       1.142  -3.251   4.551  0.00  0.00    -0.239 NA
ATOM      9  C   UNL     1       1.443  -4.469   5.048  0.00  0.00    +0.079 A 
ATOM     10  C   UNL     1       1.020  -5.742   4.603  0.00  0.00    +0.029 A 
ATOM     11  C   UNL     1       1.427  -6.871   5.242  0.00  0.00    +0.002 A 
ATOM     12  C   UNL     1       2.266  -6.821   6.347  0.00  0.00    +0.001 A 
ATOM     13  C   UNL     1       2.701  -5.595   6.813  0.00  0.00    +0.017 A 
ATOM     14  C   UNL     1       2.296  -4.448   6.175  0.00  0.00    +0.040 A 
ATOM     15  S   UNL     1       2.579  -2.710   6.395  0.00  0.00    -0.067 S 
ENDBRANCH   6   7
BRANCH   5  16
ATOM     16  C   UNL     1       1.916   1.559   5.404  0.00  0.00    -0.020 A 
ATOM     17  C   UNL     1       2.782   1.923   4.391  0.00  0.00    +0.006 A 
ATOM     18  C   UNL     1       3.810   2.811   4.646  0.00  0.00    +0.000 A 
ATOM     19  C   UNL     1       3.978   3.329   5.917  0.00  0.00    +0.001 A 
ATOM     20  C   UNL     1       3.115   2.962   6.932  0.00  0.00    +0.020 A 
ATOM     21  C   UNL     1       2.083   2.076   6.676  0.00  0.00    +0.045 A 
ATOM     22 CL   UNL     1       0.999   1.614   7.951  0.00  0.00    -0.083 Cl
ENDBRANCH   5  16
BRANCH   1  26
ATOM     23  C   UNL     1       5.287  -2.692   1.914  0.00  0.00    +0.000 A 
ATOM     24  C   UNL     1       4.630  -1.848   1.036  0.00  0.00    +0.001 A 
ATOM     25  C   UNL     1       3.513  -1.153   1.446  0.00  0.00    +0.010 A 
ATOM     26  C   UNL     1       3.043  -1.303   2.756  0.00  0.00    +0.001 A 
ATOM     27  C   UNL     1       3.715  -2.155   3.639  0.00  0.00    +0.010 A 
ATOM     28  C   UNL     1       4.828  -2.846   3.211  0.00  0.00    +0.001 A 
ENDBRANCH   1  26
BRANCH   4  29
ATOM     29  C   UNL     1      -1.261   1.938   4.447  0.00  0.00    +0.074 C 
ATOM     30  N   UNL     1      -2.175   2.542   4.747  0.00  0.00    -0.196 NA
ENDBRANCH   4  29
BRANCH   3  31
ATOM     31  S   UNL     1      -0.851   1.684   1.502  0.00  0.00    -0.100 S 
BRANCH  31  32
ATOM     32  C   UNL     1      -0.007   1.099   0.012  0.00  0.00    +0.171 C 
BRANCH  32  33
ATOM     33  C   UNL     1      -0.735   1.603  -1.208  0.00  0.00    +0.221 C 
ATOM     34  O   UNL     1      -1.726   2.291  -1.082  0.00  0.00    -0.275 OA
ATOM     35  N   UNL     1      -0.283   1.290  -2.439  0.00  0.00    -0.329 N 
ATOM     36  H   UNL     1       0.509   0.741  -2.540  0.00  0.00    +0.145 HD
ATOM     37  H   UNL     1      -0.751   1.615  -3.224  0.00  0.00    +0.145 HD
ENDBRANCH  32  33
ENDBRANCH  31  32
ENDBRANCH   3  31
TORSDOF 7
