REMARK  Name = ZINC38311480
REMARK  9 active torsions:
REMARK  status: ('A' for Active; 'I' for Inactive)
REMARK    1  A    between atoms: C_1  and  C_2
REMARK    2  A    between atoms: C_3  and  C_29
REMARK    3  A    between atoms: C_4  and  C_21
REMARK    4  A    between atoms: C_10  and  C_11
REMARK    5  A    between atoms: C_24  and  O_27
REMARK    6  A    between atoms: O_27  and  C_28
REMARK    7  A    between atoms: C_29  and  O_31
REMARK    8  A    between atoms: O_31  and  C_32
REMARK    9  A    between atoms: C_32  and  C_33
REMARK                            x       y       z     vdW  Elec       q    Type
REMARK                         _______ _______ _______ _____ _____    ______ ____
ROOT
ATOM      1  C   UNL     1      -0.018   1.503   0.010  0.00  0.00    +0.066 C 
ATOM      2  C   UNL     1       0.002  -0.004   0.002  0.00  0.00    +0.053 C 
ATOM      3  C   UNL     1      -1.175  -0.697   0.004  0.00  0.00    +0.085 C 
ATOM      4  C   UNL     1      -1.112  -2.207  -0.005  0.00  0.00    +0.162 C 
ATOM      5  N   UNL     1       0.242  -2.831  -0.015  0.00  0.00    -0.275 N 
ATOM      6  C   UNL     1       0.501  -4.145  -0.023  0.00  0.00    +0.268 A 
ATOM      7  O   UNL     1      -0.399  -4.963  -0.024  0.00  0.00    -0.266 OA
ATOM      8  C   UNL     1       1.917  -4.568  -0.033  0.00  0.00    +0.076 A 
ATOM      9  C   UNL     1       2.436  -5.801  -0.043  0.00  0.00    -0.003 C 
ATOM     10  S   UNL     1       2.746  -2.986  -0.028  0.00  0.00    -0.046 S 
ATOM     11  C   UNL     1       1.298  -1.948  -0.015  0.00  0.00    +0.178 A 
ATOM     12  N   UNL     1       1.164  -0.646  -0.013  0.00  0.00    -0.228 NA
ENDROOT
BRANCH   9  13
ATOM     13  C   UNL     1       3.931  -5.989  -0.051  0.00  0.00    +0.017 C 
ATOM     14  C   UNL     1       4.358  -6.787   1.188  0.00  0.00    +0.012 C 
ATOM     15  C   UNL     1       5.887  -6.808   1.246  0.00  0.00    +0.027 C 
ATOM     16  C   UNL     1       6.450  -7.216  -0.084  0.00  0.00    -0.031 C 
ATOM     17  C   UNL     1       5.780  -7.197  -1.191  0.00  0.00    -0.030 C 
ATOM     18  C   UNL     1       4.345  -6.770  -1.301  0.00  0.00    +0.034 C 
ENDBRANCH   9  13
BRANCH   4  19
ATOM     19  C   UNL     1      -1.855  -2.696  -1.221  0.00  0.00    -0.020 A 
ATOM     20  C   UNL     1      -1.238  -2.682  -2.458  0.00  0.00    +0.009 A 
ATOM     21  C   UNL     1      -1.917  -3.129  -3.575  0.00  0.00    +0.046 A 
ATOM     22  C   UNL     1      -3.220  -3.592  -3.454  0.00  0.00    +0.120 A 
ATOM     23  C   UNL     1      -3.836  -3.604  -2.212  0.00  0.00    +0.046 A 
ATOM     24  C   UNL     1      -3.151  -3.162  -1.097  0.00  0.00    +0.009 A 
BRANCH  22  25
ATOM     25  O   UNL     1      -3.890  -4.031  -4.552  0.00  0.00    -0.495 OA
ATOM     26  C   UNL     1      -5.228  -4.494  -4.352  0.00  0.00    +0.277 C 
ENDBRANCH  22  25
ENDBRANCH   4  19
BRANCH   3  27
ATOM     27  C   UNL     1      -2.409  -0.026   0.014  0.00  0.00    +0.340 C 
ATOM     28  O   UNL     1      -2.440   1.192   0.021  0.00  0.00    -0.245 OA
BRANCH  27  29
ATOM     29  O   UNL     1      -3.562  -0.731   0.016  0.00  0.00    -0.457 OA
BRANCH  29  30
ATOM     30  C   UNL     1      -4.779   0.017   0.026  0.00  0.00    +0.259 C 
BRANCH  30  31
ATOM     31  C   UNL     1      -5.951  -0.931   0.026  0.00  0.00    +0.006 C 
ATOM     32  C   UNL     1      -6.961  -0.724   0.835  0.00  0.00    +0.007 C 
ENDBRANCH  30  31
ENDBRANCH  29  30
ENDBRANCH  27  29
ENDBRANCH   3  27
TORSDOF 7
