REMARK  Name = ZINC22619378
REMARK  7 active torsions:
REMARK  status: ('A' for Active; 'I' for Inactive)
REMARK    1  A    between atoms: C_5  and  C_7
REMARK    2  A    between atoms: C_7  and  C_9
REMARK    3  A    between atoms: C_7  and  N_26
REMARK    4  A    between atoms: C_9  and  N_10
REMARK    5  A    between atoms: C_11  and  C_13
REMARK    6  A    between atoms: C_13  and  N_14
REMARK    7  A    between atoms: C_15  and  C_17
REMARK                            x       y       z     vdW  Elec       q    Type
REMARK                         _______ _______ _______ _____ _____    ______ ____
ROOT
ATOM      1  N   UNL     1       7.960  -3.800   4.786  0.00  0.00    -0.315 N 
ATOM      2  C   UNL     1       6.712  -3.562   4.338  0.00  0.00    +0.230 C 
ATOM      3  O   UNL     1       5.929  -4.479   4.208  0.00  0.00    -0.274 OA
ATOM      4  H   UNL     1       8.670  -2.968   4.903  0.00  0.00    +0.149 HD
ENDROOT
BRANCH   1   5
ATOM      5  C   UNL     1       8.372  -5.166   5.117  0.00  0.00    +0.093 C 
BRANCH   5   6
ATOM      6  C   UNL     1       9.860  -5.178   5.473  0.00  0.00    -0.019 C 
BRANCH   6  11
ATOM      7  C   UNL     1      11.895  -3.172   3.006  0.00  0.00    +0.000 A 
ATOM      8  C   UNL     1      12.157  -4.117   2.030  0.00  0.00    +0.001 A 
ATOM      9  C   UNL     1      11.675  -5.405   2.168  0.00  0.00    +0.020 A 
ATOM     10  C   UNL     1      10.931  -5.749   3.283  0.00  0.00    +0.043 A 
ATOM     11  C   UNL     1      10.670  -4.804   4.259  0.00  0.00    -0.041 A 
ATOM     12  C   UNL     1      11.148  -3.515   4.117  0.00  0.00    +0.003 A 
ATOM     13 CL   UNL     1      10.326  -7.367   3.457  0.00  0.00    -0.083 Cl
ENDBRANCH   6  11
BRANCH   6  14
ATOM     14  N   UNL     1      10.114  -4.211   6.548  0.00  0.00    +0.385 N 
ATOM     15  C   UNL     1       9.238  -4.474   7.719  0.00  0.00    -0.078 C 
ATOM     16  C   UNL     1       9.975  -3.760   8.880  0.00  0.00    -0.020 C 
ATOM     17  C   UNL     1      11.464  -4.021   8.557  0.00  0.00    -0.020 C 
ATOM     18  C   UNL     1      11.501  -4.326   7.048  0.00  0.00    -0.078 C 
ATOM     19  H   UNL     1       9.924  -3.220   6.111  0.00  0.00    -0.081 HD
ENDBRANCH   6  14
ENDBRANCH   5   6
ENDBRANCH   1   5
BRANCH   2  20
ATOM     20  C   UNL     1       6.288  -2.156   3.997  0.00  0.00    +0.200 C 
BRANCH  20  21
ATOM     21  N   UNL     1       4.897  -2.163   3.537  0.00  0.00    -0.303 N 
ATOM     22  C   UNL     1       4.302  -1.009   3.175  0.00  0.00    +0.245 C 
ATOM     23  O   UNL     1       4.918   0.037   3.231  0.00  0.00    -0.270 OA
ATOM     24  H   UNL     1       4.340  -3.110   3.486  0.00  0.00    +0.150 HD
BRANCH  22  25
ATOM     25  C   UNL     1       2.901  -1.016   2.711  0.00  0.00    +0.040 A 
ATOM     26  C   UNL     1       2.191  -2.218   2.646  0.00  0.00    +0.017 A 
ATOM     27  C   UNL     1       0.883  -2.222   2.212  0.00  0.00    +0.050 A 
ATOM     28  C   UNL     1       0.266  -1.035   1.840  0.00  0.00    +0.166 A 
ATOM     29  C   UNL     1       0.970   0.168   1.903  0.00  0.00    +0.167 A 
ATOM     30  C   UNL     1       2.281   0.179   2.336  0.00  0.00    +0.062 A 
ATOM     31  O   UNL     1       0.147   1.176   1.488  0.00  0.00    -0.453 OA
ATOM     32  C   UNL     1      -1.186   0.637   1.560  0.00  0.00    +0.466 C 
ATOM     33  O   UNL     1      -0.994  -0.779   1.385  0.00  0.00    -0.453 OA
ENDBRANCH  22  25
ENDBRANCH  20  21
ENDBRANCH   2  20
TORSDOF 7
