REMARK  Name = ZINC30763487
REMARK  6 active torsions:
REMARK  status: ('A' for Active; 'I' for Inactive)
REMARK    1  A    between atoms: C_1  and  C_2
REMARK    2  A    between atoms: C_5  and  S_8
REMARK    3  A    between atoms: S_8  and  N_11
REMARK    4  A    between atoms: N_15  and  C_18
REMARK    5  A    between atoms: C_21  and  N_26
REMARK    6  A    between atoms: C_23  and  C_24
REMARK                            x       y       z     vdW  Elec       q    Type
REMARK                         _______ _______ _______ _____ _____    ______ ____
ROOT
ATOM      1  N   UNL     1       1.373   1.144  -2.348  0.00  0.00    -0.175 NA
ATOM      2  C   UNL     1       1.856   2.213  -1.451  0.00  0.00    +0.111 C 
ATOM      3  C   UNL     1       1.405   1.972  -0.001  0.00  0.00    +0.036 C 
ATOM      4  C   UNL     1      -0.018   1.458   0.010  0.00  0.00    +0.106 C 
ATOM      5  N   UNL     1       0.002  -0.004   0.002  0.00  0.00    -0.328 N 
ATOM      6  C   UNL     1       0.064  -0.624  -1.268  0.00  0.00    +0.122 C 
ATOM      7  C   UNL     1       1.392  -0.255  -1.972  0.00  0.00    +0.128 C 
ENDROOT
BRANCH   5   8
ATOM      8  C   UNL     1      -1.044  -0.521   0.758  0.00  0.00    +0.047 A 
ATOM      9  C   UNL     1      -2.360  -0.289   0.379  0.00  0.00    +0.026 A 
ATOM     10  C   UNL     1      -3.397  -0.808   1.128  0.00  0.00    +0.034 A 
ATOM     11  C   UNL     1      -3.135  -1.551   2.268  0.00  0.00    +0.128 A 
ATOM     12  C   UNL     1      -1.836  -1.787   2.663  0.00  0.00    +0.053 A 
ATOM     13  C   UNL     1      -0.776  -1.274   1.912  0.00  0.00    +0.075 A 
BRANCH  11  14
ATOM     14  N   UNL     1      -4.257  -2.096   3.065  0.00  0.00    +0.056 N 
ATOM     15  O   UNL     1      -4.031  -2.750   4.067  0.00  0.00    -0.126 OA
ATOM     16  O   UNL     1      -5.407  -1.889   2.719  0.00  0.00    -0.126 OA
ENDBRANCH  11  14
BRANCH  13  17
ATOM     17  C   UNL     1       0.577  -1.514   2.317  0.00  0.00    +0.101 C 
ATOM     18  N   UNL     1       1.649  -1.705   2.638  0.00  0.00    -0.191 NA
ENDBRANCH  13  17
ENDBRANCH   5   8
BRANCH   1  19
ATOM     19  S   UNL     1       0.786   1.561  -3.839  0.00  0.00    +0.061 S 
ATOM     20  O   UNL     1       1.371   2.813  -4.170  0.00  0.00    -0.153 OA
ATOM     21  O   UNL     1       0.924   0.413  -4.665  0.00  0.00    -0.153 OA
BRANCH  19  26
ATOM     22  C   UNL     1      -5.136   2.535  -3.219  0.00  0.00    +0.044 C 
ATOM     23  C   UNL     1      -3.657   2.292  -3.374  0.00  0.00    -0.050 A 
ATOM     24  C   UNL     1      -2.764   3.333  -3.207  0.00  0.00    +0.005 A 
ATOM     25  C   UNL     1      -1.407   3.110  -3.349  0.00  0.00    +0.029 A 
ATOM     26  C   UNL     1      -0.944   1.845  -3.658  0.00  0.00    +0.105 A 
ATOM     27  C   UNL     1      -1.837   0.804  -3.830  0.00  0.00    +0.029 A 
ATOM     28  C   UNL     1      -3.193   1.027  -3.683  0.00  0.00    +0.005 A 
ENDBRANCH  19  26
ENDBRANCH   1  19
TORSDOF 5
