REMARK  Name = ZINC44441704
REMARK  3 active torsions:
REMARK  status: ('A' for Active; 'I' for Inactive)
REMARK    1  A    between atoms: C_1  and  C_2
REMARK    2  A    between atoms: C_8  and  C_10
REMARK    3  A    between atoms: C_21  and  C_23
REMARK                            x       y       z     vdW  Elec       q    Type
REMARK                         _______ _______ _______ _____ _____    ______ ____
ROOT
ATOM      1  C   UNL     1       0.697  -6.321  -0.034  0.00  0.00    +0.125 C 
ATOM      2  C   UNL     1      -0.471  -7.310  -0.042  0.00  0.00    +0.019 C 
ATOM      3  C   UNL     1       0.048  -8.736  -0.246  0.00  0.00    +0.006 C 
ATOM      4  C   UNL     1       0.563  -8.875  -1.688  0.00  0.00    +0.044 C 
ATOM      5  C   UNL     1       1.433  -7.702  -1.986  0.00  0.00    +0.015 A 
ATOM      6  C   UNL     1       1.536  -6.542  -1.284  0.00  0.00    +0.066 A 
ATOM      7  N   UNL     1       2.401  -5.660  -1.778  0.00  0.00    -0.229 NA
ATOM      8  C   UNL     1       3.099  -5.905  -2.865  0.00  0.00    +0.165 A 
ATOM      9  S   UNL     1       2.581  -7.452  -3.312  0.00  0.00    -0.057 S 
ATOM     10  N   UNL     1       4.031  -5.090  -3.494  0.00  0.00    -0.261 N 
ATOM     11  C   UNL     1       4.653  -5.516  -4.611  0.00  0.00    +0.250 C 
ATOM     12  O   UNL     1       4.399  -6.613  -5.069  0.00  0.00    -0.270 OA
ATOM     13  H   UNL     1       4.234  -4.214  -3.130  0.00  0.00    +0.157 HD
ENDROOT
BRANCH   1  21
ATOM     14  C   UNL     1      -0.018   1.503   0.010  0.00  0.00    +0.053 C 
ATOM     15  C   UNL     1       0.002  -0.004   0.002  0.00  0.00    +0.008 A 
ATOM     16  C   UNL     1      -1.030  -0.883   0.002  0.00  0.00    +0.124 A 
ATOM     17  N   UNL     1      -0.725  -2.167  -0.007  0.00  0.00    -0.233 NA
ATOM     18  C   UNL     1       0.528  -2.568  -0.014  0.00  0.00    +0.165 A 
ATOM     19  S   UNL     1       1.392  -1.124  -0.018  0.00  0.00    -0.057 S 
ATOM     20  N   UNL     1       1.019  -3.869  -0.023  0.00  0.00    -0.264 N 
ATOM     21  C   UNL     1       0.165  -4.911  -0.024  0.00  0.00    +0.228 C 
ATOM     22  O   UNL     1      -1.032  -4.715  -0.019  0.00  0.00    -0.275 OA
ATOM     23  H   UNL     1       1.976  -4.026  -0.027  0.00  0.00    +0.157 HD
ENDBRANCH   1  21
BRANCH  11  24
ATOM     24  C   UNL     1       5.643  -4.649  -5.280  0.00  0.00    +0.041 A 
ATOM     25  C   UNL     1       5.941  -3.390  -4.753  0.00  0.00    +0.017 A 
ATOM     26  C   UNL     1       6.866  -2.583  -5.379  0.00  0.00    +0.050 A 
ATOM     27  C   UNL     1       7.505  -3.017  -6.533  0.00  0.00    +0.166 A 
ATOM     28  C   UNL     1       7.212  -4.273  -7.064  0.00  0.00    +0.167 A 
ATOM     29  C   UNL     1       6.289  -5.089  -6.439  0.00  0.00    +0.062 A 
ATOM     30  O   UNL     1       7.965  -4.457  -8.188  0.00  0.00    -0.453 OA
ATOM     31  C   UNL     1       8.415  -3.143  -8.567  0.00  0.00    +0.466 C 
ATOM     32  O   UNL     1       8.440  -2.417  -7.324  0.00  0.00    -0.453 OA
ENDBRANCH  11  24
TORSDOF 2
