REMARK  Name = ZINC12340193
REMARK  5 active torsions:
REMARK  status: ('A' for Active; 'I' for Inactive)
REMARK    1  A    between atoms: C_1  and  N_49
REMARK    2  A    between atoms: C_4  and  C_5
REMARK    3  A    between atoms: C_6  and  C_7
REMARK    4  A    between atoms: C_16  and  C_17
REMARK    5  A    between atoms: C_18  and  C_19
REMARK                            x       y       z     vdW  Elec       q    Type
REMARK                         _______ _______ _______ _____ _____    ______ ____
ROOT
ATOM      1  C   UNL     1      -6.613  -0.558  -2.491  0.00  0.00    -0.095 C 
ATOM      2  C   UNL     1      -4.414  -0.286  -1.515  0.00  0.00    -0.039 C 
ATOM      3  C   UNL     1      -3.152  -1.019  -1.135  0.00  0.00    -0.017 C 
ATOM      4  C   UNL     1      -1.949  -0.397  -1.222  0.00  0.00    +0.005 C 
ATOM      5  C   UNL     1      -3.228  -2.366  -0.691  0.00  0.00    +0.182 C 
ATOM      6  O   UNL     1      -2.214  -2.970  -0.384  0.00  0.00    -0.287 OA
ATOM      7  C   UNL     1      -4.495  -3.002  -0.602  0.00  0.00    -0.017 C 
ATOM      8  C   UNL     1      -4.584  -4.288  -0.176  0.00  0.00    +0.005 C 
ATOM      9  C   UNL     1      -5.739  -2.244  -0.988  0.00  0.00    -0.039 C 
ATOM     10  N   UNL     1      -5.394  -1.261  -2.037  0.00  0.00    +0.383 N 
ATOM     11  H   UNL     1      -4.979  -1.757  -2.835  0.00  0.00    -0.081 HD
ENDROOT
BRANCH   4  12
ATOM     12  C   UNL     1      -0.804  -0.990  -0.648  0.00  0.00    +0.001 C 
ATOM     13  C   UNL     1       0.415  -0.436  -0.844  0.00  0.00    +0.008 C 
BRANCH  13  14
ATOM     14  C   UNL     1       0.530   0.877  -1.494  0.00  0.00    -0.025 A 
ATOM     15  C   UNL     1       1.532   1.106  -2.444  0.00  0.00    +0.008 A 
ATOM     16  C   UNL     1       1.629   2.339  -3.053  0.00  0.00    +0.001 A 
ATOM     17  C   UNL     1       0.748   3.353  -2.718  0.00  0.00    +0.000 A 
ATOM     18  C   UNL     1      -0.242   3.136  -1.775  0.00  0.00    +0.001 A 
ATOM     19  C   UNL     1      -0.357   1.907  -1.161  0.00  0.00    +0.008 A 
ENDBRANCH  13  14
ENDBRANCH   4  12
BRANCH   8  20
ATOM     20  C   UNL     1      -3.466  -4.914   0.416  0.00  0.00    +0.001 C 
ATOM     21  C   UNL     1      -3.517  -6.229   0.735  0.00  0.00    +0.008 C 
BRANCH  21  22
ATOM     22  C   UNL     1      -4.787  -6.962   0.630  0.00  0.00    -0.025 A 
ATOM     23  C   UNL     1      -5.980  -6.367   1.056  0.00  0.00    +0.008 A 
ATOM     24  C   UNL     1      -7.167  -7.060   0.949  0.00  0.00    +0.001 A 
ATOM     25  C   UNL     1      -7.179  -8.344   0.433  0.00  0.00    +0.000 A 
ATOM     26  C   UNL     1      -6.003  -8.942   0.015  0.00  0.00    +0.001 A 
ATOM     27  C   UNL     1      -4.808  -8.261   0.110  0.00  0.00    +0.008 A 
ENDBRANCH  21  22
ENDBRANCH   8  20
TORSDOF 4
