REMARK  Name = ZINC08489085
REMARK  12 active torsions:
REMARK  status: ('A' for Active; 'I' for Inactive)
REMARK    1  A    between atoms: C_1  and  C_2
REMARK    2  A    between atoms: C_9  and  C_11
REMARK    3  A    between atoms: C_11  and  S_12
REMARK    4  A    between atoms: S_12  and  C_13
REMARK    5  A    between atoms: C_16  and  C_19
REMARK    6  A    between atoms: N_17  and  N_18
REMARK    7  A    between atoms: C_19  and  O_20
REMARK    8  A    between atoms: O_20  and  C_21
REMARK    9  A    between atoms: C_24  and  C_27
REMARK   10  A    between atoms: C_27  and  C_28
REMARK   11  A    between atoms: C_27  and  C_29
REMARK   12  A    between atoms: C_27  and  C_30
REMARK                            x       y       z     vdW  Elec       q    Type
REMARK                         _______ _______ _______ _____ _____    ______ ____
ROOT
ATOM      1  C   UNL     1      -6.308   3.573  -3.386  0.00  0.00    +0.209 A 
ATOM      2  N   UNL     1      -5.504   3.272  -4.379  0.00  0.00    -0.121 NA
ATOM      3  N   UNL     1      -6.019   3.660  -5.491  0.00  0.00    -0.128 NA
ATOM      4  C   UNL     1      -7.169   4.234  -5.275  0.00  0.00    +0.189 A 
ATOM      5  N   UNL     1      -7.394   4.200  -3.927  0.00  0.00    -0.225 N 
ENDROOT
BRANCH   5   6
ATOM      6  N   UNL     1      -8.481   4.690  -3.260  0.00  0.00    -0.295 N 
ATOM      7  H   UNL     1      -8.336   5.651  -2.990  0.00  0.00    +0.163 HD
ATOM      8  H   UNL     1      -9.319   4.592  -3.812  0.00  0.00    +0.163 HD
ENDBRANCH   5   6
BRANCH   1   9
ATOM      9  S   UNL     1      -6.034   3.239  -1.678  0.00  0.00    -0.075 S 
BRANCH   9  10
ATOM     10  C   UNL     1      -4.427   2.413  -1.773  0.00  0.00    +0.173 C 
BRANCH  10  18
ATOM     11  C   UNL     1      -3.195   1.794   2.173  0.00  0.00    +0.028 C 
ATOM     12  C   UNL     1      -2.292   1.119   1.138  0.00  0.00    +0.073 C 
ATOM     13  C   UNL     1      -0.872   1.681   1.251  0.00  0.00    +0.022 C 
ATOM     14  C   UNL     1      -0.008   1.106   0.126  0.00  0.00    +0.003 C 
ATOM     15  C   UNL     1      -0.587   1.525  -1.228  0.00  0.00    +0.019 C 
ATOM     16  C   UNL     1      -2.004   0.961  -1.369  0.00  0.00    +0.108 C 
ATOM     17  N   UNL     1      -2.802   1.391  -0.213  0.00  0.00    -0.298 N 
ATOM     18  C   UNL     1      -3.979   2.024  -0.388  0.00  0.00    +0.226 C 
ATOM     19  O   UNL     1      -4.678   2.280   0.570  0.00  0.00    -0.275 OA
ENDBRANCH  10  18
ENDBRANCH   9  10
ENDBRANCH   1   9
BRANCH   4  20
ATOM     20  C   UNL     1      -8.081   4.827  -6.319  0.00  0.00    +0.306 C 
BRANCH  20  21
ATOM     21  O   UNL     1      -7.750   6.203  -6.514  0.00  0.00    -0.484 OA
BRANCH  21  22
ATOM     22  C   UNL     1      -8.483   6.890  -7.429  0.00  0.00    +0.121 A 
ATOM     23  C   UNL     1      -9.497   6.251  -8.128  0.00  0.00    +0.046 A 
ATOM     24  C   UNL     1     -10.245   6.953  -9.053  0.00  0.00    +0.008 A 
ATOM     25  C   UNL     1      -9.977   8.288  -9.291  0.00  0.00    -0.042 A 
ATOM     26  C   UNL     1      -8.963   8.926  -8.600  0.00  0.00    +0.008 A 
ATOM     27  C   UNL     1      -8.216   8.230  -7.669  0.00  0.00    +0.046 A 
BRANCH  25  28
ATOM     28  C   UNL     1     -10.790   9.050 -10.306  0.00  0.00    -0.013 C 
ATOM     29  C   UNL     1      -9.868   9.579 -11.406  0.00  0.00    +0.015 C 
ATOM     30  C   UNL     1     -11.837   8.120 -10.922  0.00  0.00    +0.015 C 
ATOM     31  C   UNL     1     -11.492  10.223  -9.620  0.00  0.00    +0.015 C 
ENDBRANCH  25  28
ENDBRANCH  21  22
ENDBRANCH  20  21
ENDBRANCH   4  20
TORSDOF 8
