REMARK  Name = ZINC36538781
REMARK  12 active torsions:
REMARK  status: ('A' for Active; 'I' for Inactive)
REMARK    1  A    between atoms: C_1  and  C_2
REMARK    2  A    between atoms: C_2  and  C_3
REMARK    3  A    between atoms: C_3  and  C_4
REMARK    4  A    between atoms: C_4  and  N_5
REMARK    5  A    between atoms: C_6  and  C_8
REMARK    6  A    between atoms: C_8  and  C_10
REMARK    7  A    between atoms: C_8  and  N_19
REMARK    8  A    between atoms: C_11  and  O_18
REMARK    9  A    between atoms: C_13  and  O_17
REMARK   10  A    between atoms: C_15  and  O_16
REMARK   11  A    between atoms: N_19  and  C_20
REMARK   12  A    between atoms: C_21  and  C_23
REMARK                            x       y       z     vdW  Elec       q    Type
REMARK                         _______ _______ _______ _____ _____    ______ ____
ROOT
ATOM      1  C   UNL     1       2.429  -4.218  -4.243  0.00  0.00    +0.199 C 
ENDROOT
BRANCH   1   2
ATOM      2  C   UNL     1       2.275  -3.355  -5.469  0.00  0.00    +0.065 A 
ATOM      3  C   UNL     1       1.370  -3.710  -6.457  0.00  0.00    +0.129 A 
ATOM      4  C   UNL     1       1.228  -2.916  -7.585  0.00  0.00    +0.091 A 
ATOM      5  C   UNL     1       1.992  -1.767  -7.725  0.00  0.00    +0.124 A 
ATOM      6  C   UNL     1       2.897  -1.412  -6.736  0.00  0.00    +0.091 A 
ATOM      7  C   UNL     1       3.036  -2.204  -5.606  0.00  0.00    +0.129 A 
BRANCH   7   8
ATOM      8  O   UNL     1       3.919  -1.853  -4.635  0.00  0.00    -0.506 OA
ATOM      9  H   UNL     1       4.806  -2.217  -4.760  0.00  0.00    +0.292 HD
ENDBRANCH   7   8
BRANCH   5  10
ATOM     10  O   UNL     1       1.855  -0.990  -8.831  0.00  0.00    -0.507 OA
ATOM     11  H   UNL     1       1.186  -0.297  -8.744  0.00  0.00    +0.292 HD
ENDBRANCH   5  10
BRANCH   3  12
ATOM     12  O   UNL     1       0.621  -4.836  -6.320  0.00  0.00    -0.506 OA
ATOM     13  H   UNL     1      -0.260  -4.680  -5.952  0.00  0.00    +0.292 HD
ENDBRANCH   3  12
ENDBRANCH   1   2
BRANCH   1  15
ATOM     14  N   UNL     1       0.316  -3.444  -3.216  0.00  0.00    -0.313 N 
ATOM     15  C   UNL     1       1.073  -4.476  -3.637  0.00  0.00    +0.238 C 
ATOM     16  O   UNL     1       0.664  -5.612  -3.528  0.00  0.00    -0.273 OA
ATOM     17  H   UNL     1       0.643  -2.535  -3.303  0.00  0.00    +0.149 HD
BRANCH  14  18
ATOM     18  C   UNL     1      -1.002  -3.694  -2.627  0.00  0.00    +0.104 C 
BRANCH  18  19
ATOM     19  C   UNL     1      -1.647  -2.364  -2.237  0.00  0.00    +0.018 C 
BRANCH  19  21
ATOM     20  C   UNL     1      -3.670  -1.294  -1.231  0.00  0.00    +0.004 C 
ATOM     21  C   UNL     1      -3.024  -2.625  -1.622  0.00  0.00    -0.002 C 
ENDBRANCH  19  21
ENDBRANCH  18  19
ENDBRANCH  14  18
ENDBRANCH   1  15
BRANCH   1  22
ATOM     22  N   UNL     1       3.047  -5.492  -4.617  0.00  0.00    -0.285 N 
ATOM     23  C   UNL     1       2.320  -6.438  -5.467  0.00  0.00    +0.133 C 
ATOM     24  C   UNL     1       4.285  -5.795  -4.178  0.00  0.00    +0.249 C 
ATOM     25  O   UNL     1       4.849  -5.058  -3.392  0.00  0.00    -0.270 OA
BRANCH  24  26
ATOM     26  C   UNL     1       4.957  -7.023  -4.652  0.00  0.00    +0.055 A 
ATOM     27  C   UNL     1       4.936  -7.354  -6.008  0.00  0.00    +0.014 A 
ATOM     28  C   UNL     1       5.566  -8.501  -6.445  0.00  0.00    +0.001 A 
ATOM     29  C   UNL     1       6.218  -9.323  -5.542  0.00  0.00    +0.001 A 
ATOM     30  C   UNL     1       6.243  -9.002  -4.197  0.00  0.00    +0.021 A 
ATOM     31  C   UNL     1       5.622  -7.853  -3.747  0.00  0.00    +0.053 A 
ATOM     32 CL   UNL     1       5.661  -7.447  -2.060  0.00  0.00    -0.083 Cl
ENDBRANCH  24  26
ENDBRANCH   1  22
TORSDOF 10
