REMARK  Name = ZINC06410085
REMARK  7 active torsions:
REMARK  status: ('A' for Active; 'I' for Inactive)
REMARK    1  A    between atoms: C_1  and  C_2
REMARK    2  A    between atoms: C_7  and  C_14
REMARK    3  A    between atoms: C_14  and  C_16
REMARK    4  A    between atoms: C_14  and  N_60
REMARK    5  A    between atoms: N_20  and  C_21
REMARK    6  A    between atoms: C_21  and  C_22
REMARK    7  A    between atoms: C_31  and  C_34
REMARK                            x       y       z     vdW  Elec       q    Type
REMARK                         _______ _______ _______ _____ _____    ______ ____
ROOT
ATOM      1  C   UNL     1      -4.985   1.048   0.051  0.00  0.00    +0.039 C 
ENDROOT
BRANCH   1   8
ATOM      2  C   UNL     1       1.203   5.872  -1.385  0.00  0.00    +0.044 C 
ATOM      3  C   UNL     1      -0.048   5.035  -1.319  0.00  0.00    -0.048 A 
ATOM      4  C   UNL     1      -0.966   5.088  -2.360  0.00  0.00    +0.004 A 
ATOM      5  C   UNL     1      -2.106   4.337  -2.321  0.00  0.00    +0.010 A 
ATOM      6  C   UNL     1      -2.354   3.510  -1.220  0.00  0.00    -0.001 A 
ATOM      7  C   UNL     1      -3.563   2.688  -1.148  0.00  0.00    +0.017 A 
ATOM      8  C   UNL     1      -3.748   1.902  -0.058  0.00  0.00    +0.011 A 
ATOM      9  C   UNL     1      -2.787   1.882   0.975  0.00  0.00    +0.251 A 
ATOM     10  O   UNL     1      -2.972   1.169   1.946  0.00  0.00    -0.268 OA
ATOM     11  N   UNL     1      -1.671   2.630   0.915  0.00  0.00    -0.322 N 
ATOM     12  H   UNL     1      -1.030   2.591   1.642  0.00  0.00    +0.169 HD
ATOM     13  C   UNL     1      -1.424   3.449  -0.166  0.00  0.00    +0.049 A 
ATOM     14  C   UNL     1      -0.270   4.224  -0.228  0.00  0.00    +0.029 A 
ENDBRANCH   1   8
BRANCH   1  21
ATOM     15  C   UNL     1      -5.990   2.867   1.292  0.00  0.00    -0.077 C 
ATOM     16  C   UNL     1      -6.640   3.240   2.626  0.00  0.00    -0.015 C 
ATOM     17  C   UNL     1      -7.952   2.466   2.784  0.00  0.00    -0.018 C 
ATOM     18  C   UNL     1      -7.663   0.965   2.696  0.00  0.00    -0.015 C 
ATOM     19  C   UNL     1      -6.984   0.658   1.360  0.00  0.00    -0.077 C 
ATOM     20  C   UNL     1      -8.576   2.789   4.143  0.00  0.00    +0.007 C 
ATOM     21  N   UNL     1      -5.716   1.415   1.281  0.00  0.00    +0.389 N 
ATOM     22  H   UNL     1      -5.137   1.179   2.096  0.00  0.00    -0.080 HD
ENDBRANCH   1  21
BRANCH   1  23
ATOM     23  C   UNL     1      -5.851   1.262  -1.164  0.00  0.00    +0.143 A 
ATOM     24  N   UNL     1      -6.600   2.308  -1.417  0.00  0.00    -0.115 NA
ATOM     25  N   UNL     1      -7.184   2.115  -2.549  0.00  0.00    -0.023 NA
ATOM     26  N   UNL     1      -6.828   0.973  -3.025  0.00  0.00    -0.044 NA
ATOM     27  N   UNL     1      -6.002   0.419  -2.202  0.00  0.00    -0.226 N 
BRANCH  27  28
ATOM     28  C   UNL     1      -5.353  -0.884  -2.366  0.00  0.00    +0.182 C 
BRANCH  28  29
ATOM     29  C   UNL     1      -6.219  -1.956  -1.757  0.00  0.00    -0.026 A 
ATOM     30  C   UNL     1      -6.053  -2.306  -0.430  0.00  0.00    +0.008 A 
ATOM     31  C   UNL     1      -6.850  -3.286   0.132  0.00  0.00    +0.038 A 
ATOM     32  C   UNL     1      -7.806  -3.925  -0.639  0.00  0.00    +0.123 A 
ATOM     33  C   UNL     1      -7.968  -3.578  -1.969  0.00  0.00    +0.038 A 
ATOM     34  C   UNL     1      -7.173  -2.594  -2.527  0.00  0.00    +0.008 A 
ATOM     35  F   UNL     1      -8.582  -4.887  -0.092  0.00  0.00    -0.205 F 
ENDBRANCH  28  29
ENDBRANCH  27  28
ENDBRANCH   1  23
TORSDOF 5
