REMARK  Name = ZINC35402996
REMARK  9 active torsions:
REMARK  status: ('A' for Active; 'I' for Inactive)
REMARK    1  A    between atoms: C_1  and  C_2
REMARK    2  A    between atoms: C_3  and  C_27
REMARK    3  A    between atoms: C_4  and  N_9
REMARK    4  A    between atoms: C_6  and  C_8
REMARK    5  A    between atoms: N_12  and  S_15
REMARK    6  A    between atoms: S_15  and  C_18
REMARK    7  A    between atoms: C_21  and  N_24
REMARK    8  A    between atoms: C_27  and  C_28
REMARK    9  A    between atoms: C_27  and  C_29
REMARK                            x       y       z     vdW  Elec       q    Type
REMARK                         _______ _______ _______ _____ _____    ______ ____
ROOT
ATOM      1  N   UNL     1      -0.136  -1.773  -2.482  0.00  0.00    -0.312 N 
ATOM      2  C   UNL     1      -0.473  -0.929  -3.637  0.00  0.00    +0.123 C 
ATOM      3  C   UNL     1       0.753  -0.840  -4.553  0.00  0.00    +0.128 C 
ATOM      4  N   UNL     1       1.260  -2.199  -4.792  0.00  0.00    -0.174 NA
ATOM      5  C   UNL     1       1.597  -3.043  -3.637  0.00  0.00    +0.128 C 
ATOM      6  C   UNL     1       0.376  -3.129  -2.721  0.00  0.00    +0.123 C 
ENDROOT
BRANCH   1  10
ATOM      7  C   UNL     1      -2.723  -1.482   1.696  0.00  0.00    +0.064 C 
ATOM      8  C   UNL     1      -1.528  -1.140   0.844  0.00  0.00    +0.021 A 
ATOM      9  C   UNL     1      -1.418  -1.641  -0.438  0.00  0.00    +0.014 A 
ATOM     10  C   UNL     1      -0.293  -1.296  -1.190  0.00  0.00    +0.128 A 
ATOM     11  N   UNL     1       0.625  -0.502  -0.647  0.00  0.00    -0.219 NA
ATOM     12  C   UNL     1       0.479  -0.047   0.581  0.00  0.00    +0.106 A 
ATOM     13  N   UNL     1      -0.573  -0.350   1.314  0.00  0.00    -0.347 N 
ATOM     14  C   UNL     1       1.542   0.850   1.161  0.00  0.00    +0.086 C 
ATOM     15  H   UNL     1      -0.648   0.007   2.213  0.00  0.00    +0.167 HD
BRANCH   9  16
ATOM     16  C   UNL     1      -2.485  -2.538  -1.012  0.00  0.00    +0.018 C 
ATOM     17  C   UNL     1      -2.732  -2.165  -2.475  0.00  0.00    +0.012 C 
ATOM     18  C   UNL     1      -2.026  -3.995  -0.927  0.00  0.00    +0.012 C 
ENDBRANCH   9  16
ENDBRANCH   1  10
BRANCH   4  19
ATOM     19  S   UNL     1       1.448  -2.769  -6.336  0.00  0.00    +0.061 S 
ATOM     20  O   UNL     1       1.394  -4.187  -6.254  0.00  0.00    -0.153 OA
ATOM     21  O   UNL     1       0.562  -2.019  -7.156  0.00  0.00    -0.153 OA
BRANCH  19  22
ATOM     22  C   UNL     1       3.082  -2.356  -6.849  0.00  0.00    +0.106 A 
ATOM     23  C   UNL     1       3.324  -1.149  -7.478  0.00  0.00    +0.031 A 
ATOM     24  C   UNL     1       4.606  -0.825  -7.881  0.00  0.00    +0.034 A 
ATOM     25  C   UNL     1       5.646  -1.707  -7.653  0.00  0.00    +0.126 A 
ATOM     26  C   UNL     1       5.404  -2.913  -7.023  0.00  0.00    +0.034 A 
ATOM     27  C   UNL     1       4.122  -3.236  -6.617  0.00  0.00    +0.031 A 
BRANCH  25  28
ATOM     28  N   UNL     1       7.019  -1.361  -8.085  0.00  0.00    +0.056 N 
ATOM     29  O   UNL     1       7.231  -0.306  -8.637  0.00  0.00    -0.126 OA
ATOM     30  O   UNL     1       7.928  -2.132  -7.886  0.00  0.00    -0.126 OA
ENDBRANCH  25  28
ENDBRANCH  19  22
ENDBRANCH   4  19
TORSDOF 5
