REMARK  Name = ZINC03306346
REMARK  5 active torsions:
REMARK  status: ('A' for Active; 'I' for Inactive)
REMARK    1  A    between atoms: C_1  and  C_2
REMARK    2  A    between atoms: C_9  and  N_14
REMARK    3  A    between atoms: C_10  and  C_11
REMARK    4  A    between atoms: C_15  and  C_17
REMARK    5  A    between atoms: C_17  and  N_18
REMARK                            x       y       z     vdW  Elec       q    Type
REMARK                         _______ _______ _______ _____ _____    ______ ____
ROOT
ATOM      1  N   UNL     1       2.465   1.733  -0.011  0.00  0.00    -0.278 N 
ATOM      2  C   UNL     1       3.491   2.607  -0.017  0.00  0.00    +0.236 C 
ATOM      3  O   UNL     1       3.272   3.800  -0.009  0.00  0.00    -0.274 OA
ATOM      4  H   UNL     1       2.641   0.779  -0.017  0.00  0.00    +0.155 HD
ENDROOT
BRANCH   1  12
ATOM      5  C   UNL     1      -4.747   4.757   0.165  0.00  0.00    +0.008 C 
ATOM      6  C   UNL     1      -3.555   3.836   0.433  0.00  0.00    -0.009 C 
ATOM      7  C   UNL     1      -3.687   2.563  -0.409  0.00  0.00    +0.008 C 
ATOM      8  C   UNL     1      -2.643   1.537   0.033  0.00  0.00    +0.037 C 
ATOM      9  C   UNL     1      -1.270   2.199   0.020  0.00  0.00    -0.023 A 
ATOM     10  C   UNL     1      -1.147   3.543   0.032  0.00  0.00    -0.004 A 
ATOM     11  S   UNL     1       0.599   3.837   0.017  0.00  0.00    -0.077 S 
ATOM     12  C   UNL     1       1.159   2.198   0.003  0.00  0.00    +0.084 A 
ATOM     13  C   UNL     1      -0.018   1.462   0.010  0.00  0.00    +0.068 A 
ATOM     14  C   UNL     1      -2.253   4.552   0.048  0.00  0.00    +0.046 C 
BRANCH  13  15
ATOM     15  C   UNL     1       0.002  -0.004   0.002  0.00  0.00    +0.244 C 
ATOM     16  O   UNL     1       0.020  -0.618   1.053  0.00  0.00    -0.270 OA
ATOM     17  N   UNL     1       0.001  -0.672  -1.169  0.00  0.00    -0.325 N 
ATOM     18  H   UNL     1      -0.014  -0.182  -2.006  0.00  0.00    +0.145 HD
ATOM     19  H   UNL     1       0.014  -1.641  -1.174  0.00  0.00    +0.145 HD
ENDBRANCH  13  15
ENDBRANCH   1  12
BRANCH   2  20
ATOM     20  C   UNL     1       4.911   2.103  -0.032  0.00  0.00    +0.214 C 
BRANCH  20  21
ATOM     21  N   UNL     1       5.834   3.240  -0.035  0.00  0.00    -0.215 N 
ATOM     22  C   UNL     1       6.322   3.824   1.079  0.00  0.00    +0.247 C 
ATOM     23  O   UNL     1       6.088   3.520   2.229  0.00  0.00    -0.273 OA
ATOM     24  C   UNL     1       7.219   4.938   0.592  0.00  0.00    +0.113 C 
ATOM     25  C   UNL     1       8.653   4.706   1.056  0.00  0.00    +0.035 C 
ATOM     26  C   UNL     1       9.551   5.829   0.528  0.00  0.00    +0.003 C 
ATOM     27  C   UNL     1       9.040   7.175   1.047  0.00  0.00    +0.000 C 
ATOM     28  C   UNL     1       7.611   7.403   0.553  0.00  0.00    +0.003 C 
ATOM     29  C   UNL     1       6.705   6.287   1.080  0.00  0.00    +0.035 C 
ATOM     30  N   UNL     1       7.131   4.852  -0.872  0.00  0.00    -0.285 N 
ATOM     31  C   UNL     1       6.302   3.826  -1.144  0.00  0.00    +0.310 C 
ATOM     32  O   UNL     1       6.010   3.474  -2.269  0.00  0.00    -0.252 OA
ATOM     33  H   UNL     1       7.584   5.419  -1.515  0.00  0.00    +0.151 HD
ENDBRANCH  20  21
ENDBRANCH   2  20
TORSDOF 4
