REMARK  Name = ZINC02641614
REMARK  10 active torsions:
REMARK  status: ('A' for Active; 'I' for Inactive)
REMARK    1  A    between atoms: C_1  and  C_2
REMARK    2  A    between atoms: C_15  and  C_17
REMARK    3  A    between atoms: C_17  and  S_18
REMARK    4  A    between atoms: S_18  and  C_19
REMARK    5  A    between atoms: N_29  and  C_30
REMARK    6  A    between atoms: C_30  and  C_31
REMARK    7  A    between atoms: C_31  and  C_32
REMARK    8  A    between atoms: C_32  and  N_63
REMARK    9  A    between atoms: C_33  and  N_63
REMARK   10  A    between atoms: C_34  and  N_63
REMARK                            x       y       z     vdW  Elec       q    Type
REMARK                         _______ _______ _______ _____ _____    ______ ____
ROOT
ATOM      1  S   UNL     1       2.218  -5.572  -4.924  0.00  0.00    -0.080 S 
ENDROOT
BRANCH   1   2
ATOM      2  C   UNL     1       2.069  -7.225  -5.514  0.00  0.00    +0.173 A 
ATOM      3  N   UNL     1       1.205  -8.020  -4.932  0.00  0.00    -0.223 NA
ATOM      4  C   UNL     1       1.036  -9.296  -5.334  0.00  0.00    +0.079 A 
ATOM      5  C   UNL     1       0.110 -10.143  -4.717  0.00  0.00    +0.028 A 
ATOM      6  C   UNL     1      -0.025 -11.430  -5.154  0.00  0.00    +0.002 A 
ATOM      7  C   UNL     1       0.745 -11.913  -6.204  0.00  0.00    +0.001 A 
ATOM      8  C   UNL     1       1.659 -11.109  -6.828  0.00  0.00    +0.015 A 
ATOM      9  C   UNL     1       1.817  -9.791  -6.403  0.00  0.00    +0.065 A 
ATOM     10  C   UNL     1       2.783  -8.882  -7.036  0.00  0.00    +0.262 A 
ATOM     11  O   UNL     1       3.484  -9.250  -7.960  0.00  0.00    -0.267 OA
ATOM     12  N   UNL     1       2.864  -7.621  -6.552  0.00  0.00    -0.287 N 
BRANCH  12  13
ATOM     13  C   UNL     1       3.810  -6.673  -7.145  0.00  0.00    +0.125 C 
BRANCH  13  14
ATOM     14  C   UNL     1       5.152  -6.767  -6.415  0.00  0.00    +0.003 C 
BRANCH  14  15
ATOM     15  C   UNL     1       6.140  -5.778  -7.035  0.00  0.00    -0.078 C 
BRANCH  15  18
ATOM     16  C   UNL     1       8.468  -5.112  -7.045  0.00  0.00    -0.097 C 
ATOM     17  C   UNL     1       7.304  -5.414  -4.943  0.00  0.00    -0.097 C 
ATOM     18  N   UNL     1       7.436  -5.896  -6.334  0.00  0.00    +0.376 N 
ATOM     19  H   UNL     1       7.718  -6.883  -6.319  0.00  0.00    -0.083 HD
ENDBRANCH  15  18
ENDBRANCH  14  15
ENDBRANCH  13  14
ENDBRANCH  12  13
ENDBRANCH   1   2
BRANCH   1  20
ATOM     20  C   UNL     1       0.983  -5.597  -3.601  0.00  0.00    +0.151 C 
BRANCH  20  34
ATOM     21  C   UNL     1       1.397   3.572   0.259  0.00  0.00    +0.008 C 
ATOM     22  C   UNL     1       1.414   2.064  -0.000  0.00  0.00    -0.009 C 
ATOM     23  C   UNL     1      -0.019   1.524   0.010  0.00  0.00    +0.008 C 
ATOM     24  C   UNL     1       0.002  -0.004   0.002  0.00  0.00    +0.037 C 
ATOM     25  C   UNL     1       0.873  -0.481  -1.157  0.00  0.00    -0.023 A 
ATOM     26  C   UNL     1       1.763   0.357  -1.738  0.00  0.00    -0.004 A 
ATOM     27  S   UNL     1       2.540  -0.601  -3.015  0.00  0.00    -0.073 S 
ATOM     28  C   UNL     1       1.673  -2.118  -2.768  0.00  0.00    +0.116 A 
ATOM     29  C   UNL     1       0.802  -1.828  -1.694  0.00  0.00    +0.075 A 
ATOM     30  C   UNL     1      -0.057  -2.888  -1.247  0.00  0.00    +0.260 A 
ATOM     31  O   UNL     1      -0.845  -2.741  -0.329  0.00  0.00    -0.267 OA
ATOM     32  N   UNL     1       0.064  -4.062  -1.911  0.00  0.00    -0.310 N 
ATOM     33  H   UNL     1      -0.497  -4.806  -1.642  0.00  0.00    +0.170 HD
ATOM     34  C   UNL     1       0.933  -4.246  -2.935  0.00  0.00    +0.121 A 
ATOM     35  N   UNL     1       1.735  -3.301  -3.372  0.00  0.00    -0.226 NA
ATOM     36  C   UNL     1       2.034   1.785  -1.377  0.00  0.00    +0.046 C 
ENDBRANCH  20  34
ENDBRANCH   1  20
TORSDOF 7
