REMARK  Name = ZINC11997999
REMARK  13 active torsions:
REMARK  status: ('A' for Active; 'I' for Inactive)
REMARK    1  A    between atoms: C_1  and  C_2
REMARK    2  A    between atoms: C_2  and  C_3
REMARK    3  A    between atoms: C_6  and  C_9
REMARK    4  A    between atoms: C_9  and  C_11
REMARK    5  A    between atoms: C_9  and  N_64
REMARK    6  A    between atoms: C_11  and  N_12
REMARK    7  A    between atoms: N_12  and  S_13
REMARK    8  A    between atoms: S_13  and  C_16
REMARK    9  A    between atoms: C_19  and  N_22
REMARK   10  A    between atoms: C_25  and  C_30
REMARK   11  A    between atoms: C_25  and  C_31
REMARK   12  A    between atoms: C_32  and  N_64
REMARK   13  A    between atoms: C_33  and  N_64
REMARK                            x       y       z     vdW  Elec       q    Type
REMARK                         _______ _______ _______ _____ _____    ______ ____
ROOT
ATOM      1  S   UNL     1       3.058   3.057  -0.306  0.00  0.00    +0.058 S 
ATOM      2  O   UNL     1       2.229   3.957   0.416  0.00  0.00    -0.153 OA
ATOM      3  O   UNL     1       4.279   2.556   0.221  0.00  0.00    -0.153 OA
ENDROOT
BRANCH   1   4
ATOM      4  C   UNL     1       2.063   1.655  -0.692  0.00  0.00    +0.105 A 
ATOM      5  C   UNL     1       2.660   0.431  -0.936  0.00  0.00    +0.030 A 
ATOM      6  C   UNL     1       1.883  -0.669  -1.240  0.00  0.00    +0.027 A 
ATOM      7  C   UNL     1       0.501  -0.546  -1.303  0.00  0.00    +0.059 A 
ATOM      8  C   UNL     1      -0.096   0.683  -1.051  0.00  0.00    +0.027 A 
ATOM      9  C   UNL     1       0.687   1.780  -0.749  0.00  0.00    +0.030 A 
BRANCH   7  10
ATOM     10  N   UNL     1      -0.289  -1.658  -1.615  0.00  0.00    -0.143 N 
ATOM     11  C   UNL     1       0.102  -2.732  -2.317  0.00  0.00    +0.246 C 
ATOM     12  O   UNL     1       1.241  -2.826  -2.724  0.00  0.00    -0.273 OA
ATOM     13  C   UNL     1      -0.898  -3.816  -2.583  0.00  0.00    +0.064 C 
ATOM     14  C   UNL     1      -2.071  -3.668  -1.579  0.00  0.00    +0.205 C 
ATOM     15  S   UNL     1      -1.892  -1.880  -1.185  0.00  0.00    +0.053 S 
ATOM     16  O   UNL     1      -1.948  -1.661   0.217  0.00  0.00    -0.155 OA
ATOM     17  O   UNL     1      -2.646  -1.084  -2.089  0.00  0.00    -0.155 OA
ATOM     18  C   UNL     1      -0.238  -5.185  -2.406  0.00  0.00    +0.022 C 
ATOM     19  C   UNL     1      -1.425  -3.679  -4.013  0.00  0.00    +0.022 C 
ENDBRANCH   7  10
ENDBRANCH   1   4
BRANCH   1  20
ATOM     20  N   UNL     1       3.431   3.801  -1.737  0.00  0.00    -0.191 NA
ATOM     21  H   UNL     1       4.352   3.837  -2.040  0.00  0.00    +0.148 HD
BRANCH  20  22
ATOM     22  C   UNL     1       2.370   4.405  -2.547  0.00  0.00    +0.095 C 
BRANCH  22  23
ATOM     23  C   UNL     1       2.992   5.331  -3.594  0.00  0.00    -0.023 C 
BRANCH  23  27
ATOM     24  C   UNL     1      -0.107   7.358  -5.724  0.00  0.00    -0.048 A 
ATOM     25  C   UNL     1      -0.129   7.321  -4.342  0.00  0.00    +0.004 A 
ATOM     26  C   UNL     1       0.874   6.665  -3.653  0.00  0.00    +0.002 A 
ATOM     27  C   UNL     1       1.898   6.046  -4.346  0.00  0.00    -0.060 A 
ATOM     28  C   UNL     1       1.922   6.088  -5.727  0.00  0.00    +0.002 A 
ATOM     29  C   UNL     1       0.917   6.740  -6.416  0.00  0.00    +0.004 A 
BRANCH  24  31
ATOM     30  C   UNL     1      -0.802   9.536  -6.684  0.00  0.00    +0.009 C 
ATOM     31  C   UNL     1      -1.200   8.074  -6.475  0.00  0.00    +0.032 C 
ENDBRANCH  24  31
ENDBRANCH  23  27
BRANCH  23  34
ATOM     32  C   UNL     1       4.610   7.104  -3.909  0.00  0.00    -0.096 C 
ATOM     33  C   UNL     1       3.068   7.190  -2.045  0.00  0.00    -0.096 C 
ATOM     34  N   UNL     1       3.872   6.302  -2.911  0.00  0.00    +0.381 N 
ATOM     35  H   UNL     1       4.546   5.790  -2.330  0.00  0.00    -0.082 HD
ENDBRANCH  23  34
ENDBRANCH  22  23
ENDBRANCH  20  22
ENDBRANCH   1  20
TORSDOF 8
