REMARK  Name = ZINC09524278
REMARK  10 active torsions:
REMARK  status: ('A' for Active; 'I' for Inactive)
REMARK    1  A    between atoms: C_1  and  C_2
REMARK    2  A    between atoms: C_2  and  O_3
REMARK    3  A    between atoms: O_3  and  C_4
REMARK    4  A    between atoms: C_4  and  C_6
REMARK    5  A    between atoms: C_7  and  C_32
REMARK    6  A    between atoms: C_14  and  C_15
REMARK    7  A    between atoms: C_18  and  N_21
REMARK    8  A    between atoms: N_21  and  C_22
REMARK    9  A    between atoms: N_21  and  C_23
REMARK   10  A    between atoms: C_25  and  C_27
REMARK                            x       y       z     vdW  Elec       q    Type
REMARK                         _______ _______ _______ _____ _____    ______ ____
ROOT
ATOM      1  C   UNL     1       1.242   6.208   1.380  0.00  0.00    +0.085 C 
ATOM      2  C   UNL     1      -0.085   6.466   1.176  0.00  0.00    +0.053 C 
ATOM      3  N   UNL     1      -0.917   5.490   0.833  0.00  0.00    -0.228 NA
ATOM      4  C   UNL     1      -0.571   4.239   0.663  0.00  0.00    +0.178 A 
ATOM      5  N   UNL     1       0.711   3.766   0.819  0.00  0.00    -0.274 N 
ATOM      6  C   UNL     1       0.944   2.462   0.618  0.00  0.00    +0.268 A 
ATOM      7  O   UNL     1       2.062   1.998   0.744  0.00  0.00    -0.266 OA
ATOM      8  C   UNL     1      -0.191   1.609   0.242  0.00  0.00    +0.081 A 
ATOM      9  C   UNL     1      -0.220   0.275  -0.015  0.00  0.00    +0.028 C 
ATOM     10  S   UNL     1      -1.520   2.801   0.206  0.00  0.00    -0.046 S 
ATOM     11  C   UNL     1       1.726   4.787   1.204  0.00  0.00    +0.168 C 
ATOM     12  C   UNL     1      -0.607   7.870   1.341  0.00  0.00    +0.066 C 
ENDROOT
BRANCH   9  13
ATOM     13  C   UNL     1       1.033  -0.483  -0.102  0.00  0.00    -0.024 A 
ATOM     14  C   UNL     1       2.165   0.095  -0.692  0.00  0.00    +0.010 A 
ATOM     15  C   UNL     1       3.335  -0.615  -0.766  0.00  0.00    +0.023 A 
ATOM     16  C   UNL     1       3.396  -1.914  -0.267  0.00  0.00    +0.029 A 
ATOM     17  C   UNL     1       2.273  -2.495   0.315  0.00  0.00    +0.023 A 
ATOM     18  C   UNL     1       1.100  -1.790   0.399  0.00  0.00    +0.010 A 
BRANCH  16  19
ATOM     19  N   UNL     1       4.585  -2.633  -0.350  0.00  0.00    -0.336 N 
ATOM     20  C   UNL     1       4.652  -4.000   0.174  0.00  0.00    +0.129 C 
ATOM     21  C   UNL     1       5.769  -2.024  -0.962  0.00  0.00    +0.129 C 
ENDBRANCH  16  19
ENDBRANCH   9  13
BRANCH  11  22
ATOM     22  C   UNL     1       2.355   4.348   2.501  0.00  0.00    +0.017 A 
ATOM     23  C   UNL     1       3.653   4.416   2.886  0.00  0.00    +0.013 A 
ATOM     24  C   UNL     1       4.006   3.947   4.138  0.00  0.00    +0.008 A 
ATOM     25  C   UNL     1       3.044   3.434   4.943  0.00  0.00    +0.045 A 
ATOM     26  S   UNL     1       1.583   3.610   3.932  0.00  0.00    -0.099 S 
ENDBRANCH  11  22
BRANCH   1  27
ATOM     27  C   UNL     1       2.130   7.234   1.743  0.00  0.00    +0.339 C 
ATOM     28  O   UNL     1       1.706   8.349   1.986  0.00  0.00    -0.245 OA
BRANCH  27  29
ATOM     29  O   UNL     1       3.455   6.983   1.821  0.00  0.00    -0.462 OA
BRANCH  29  31
ATOM     30  C   UNL     1       5.755   7.601   2.231  0.00  0.00    +0.048 C 
ATOM     31  C   UNL     1       4.300   8.073   2.196  0.00  0.00    +0.229 C 
ENDBRANCH  29  31
ENDBRANCH  27  29
ENDBRANCH   1  27
TORSDOF 6
