REMARK  Name = ZINC21992911
REMARK  16 active torsions:
REMARK  status: ('A' for Active; 'I' for Inactive)
REMARK    1  A    between atoms: C_1  and  C_2
REMARK    2  A    between atoms: C_3  and  C_4
REMARK    3  A    between atoms: C_3  and  C_5
REMARK    4  A    between atoms: C_5  and  O_7
REMARK    5  A    between atoms: O_7  and  C_8
REMARK    6  A    between atoms: C_12  and  O_38
REMARK    7  A    between atoms: C_13  and  O_36
REMARK    8  A    between atoms: C_14  and  O_34
REMARK    9  A    between atoms: C_21  and  O_22
REMARK   10  A    between atoms: O_22  and  C_23
REMARK   11  A    between atoms: C_28  and  C_33
REMARK   12  A    between atoms: C_30  and  C_31
REMARK   13  A    between atoms: C_30  and  O_32
REMARK   14  A    between atoms: O_34  and  C_35
REMARK   15  A    between atoms: O_36  and  C_37
REMARK   16  A    between atoms: O_38  and  C_39
REMARK                            x       y       z     vdW  Elec       q    Type
REMARK                         _______ _______ _______ _____ _____    ______ ____
ROOT
ATOM      1  C   UNL     1       3.892   2.145   0.122  0.00  0.00    +0.239 C 
ATOM      2  C   UNL     1       2.387   2.128  -0.052  0.00  0.00    +0.011 A 
ATOM      3  C   UNL     1       1.624   3.211   0.315  0.00  0.00    +0.057 A 
ATOM      4  C   UNL     1       0.251   3.195   0.104  0.00  0.00    +0.166 A 
ATOM      5  C   UNL     1      -0.348   2.082  -0.478  0.00  0.00    +0.204 A 
ATOM      6  C   UNL     1       0.418   0.983  -0.836  0.00  0.00    +0.173 A 
ATOM      7  C   UNL     1       1.801   0.993  -0.611  0.00  0.00    +0.038 A 
ATOM      8  C   UNL     1       2.604  -0.206  -0.913  0.00  0.00    +0.035 A 
ATOM      9  C   UNL     1       3.310  -0.866   0.089  0.00  0.00    -0.032 A 
ATOM     10  C   UNL     1       4.095  -1.958  -0.200  0.00  0.00    +0.054 A 
ATOM     11  C   UNL     1       4.172  -2.431  -1.504  0.00  0.00    +0.170 A 
ATOM     12  C   UNL     1       3.453  -1.800  -2.514  0.00  0.00    +0.208 A 
ATOM     13  C   UNL     1       2.671  -0.691  -2.225  0.00  0.00    +0.173 A 
ATOM     14  O   UNL     1       3.684  -2.458  -3.690  0.00  0.00    -0.449 OA
ATOM     15  C   UNL     1       4.234  -3.735  -3.315  0.00  0.00    +0.467 C 
ATOM     16  O   UNL     1       4.861  -3.478  -2.045  0.00  0.00    -0.452 OA
ATOM     17  C   UNL     1       3.187  -0.359   1.512  0.00  0.00    +0.042 C 
ATOM     18  C   UNL     1       4.437   0.434   1.884  0.00  0.00    +0.026 C 
ATOM     19  C   UNL     1       4.240   1.920   1.593  0.00  0.00    +0.107 C 
ATOM     20  C   UNL     1       5.529   2.674   1.926  0.00  0.00    +0.046 C 
ATOM     21  C   UNL     1       4.728   0.247   3.374  0.00  0.00    +0.011 C 
ENDROOT
BRANCH  13  22
ATOM     22  O   UNL     1       1.970  -0.075  -3.215  0.00  0.00    -0.491 OA
ATOM     23  C   UNL     1       2.631   0.980  -3.917  0.00  0.00    +0.277 C 
ENDBRANCH  13  22
BRANCH  19  24
ATOM     24  O   UNL     1       3.179   2.422   2.408  0.00  0.00    -0.385 OA
ATOM     25  H   UNL     1       3.246   2.350   3.504  0.00  0.00    +0.210 HD
ENDBRANCH  19  24
BRANCH   6  26
ATOM     26  O   UNL     1      -0.171  -0.102  -1.405  0.00  0.00    -0.491 OA
ATOM     27  C   UNL     1      -0.735  -1.072  -0.520  0.00  0.00    +0.277 C 
ENDBRANCH   6  26
BRANCH   5  28
ATOM     28  O   UNL     1      -1.691   2.072  -0.697  0.00  0.00    -0.488 OA
ATOM     29  C   UNL     1      -2.155   2.669  -1.909  0.00  0.00    +0.277 C 
ENDBRANCH   5  28
BRANCH   4  30
ATOM     30  O   UNL     1      -0.506   4.267   0.460  0.00  0.00    -0.491 OA
ATOM     31  C   UNL     1       0.176   5.374   1.052  0.00  0.00    +0.277 C 
ENDBRANCH   4  30
BRANCH   1  32
ATOM     32  O   UNL     1       4.484   1.090  -0.681  0.00  0.00    -0.450 OA
BRANCH  32  33
ATOM     33  C   UNL     1       5.278   1.471  -1.702  0.00  0.00    +0.335 C 
ATOM     34  O   UNL     1       5.137   2.568  -2.205  0.00  0.00    -0.245 OA
BRANCH  33  37
ATOM     35  C   UNL     1       6.707   2.157  -4.034  0.00  0.00    +0.036 C 
ATOM     36  C   UNL     1       6.997   0.870  -3.305  0.00  0.00    -0.020 C 
ATOM     37  C   UNL     1       6.314   0.559  -2.206  0.00  0.00    +0.029 C 
ATOM     38  C   UNL     1       6.605  -0.728  -1.478  0.00  0.00    +0.051 C 
ENDBRANCH  33  37
ENDBRANCH  32  33
ENDBRANCH   1  32
TORSDOF 8
