REMARK  Name = ZINC33332034
REMARK  8 active torsions:
REMARK  status: ('A' for Active; 'I' for Inactive)
REMARK    1  A    between atoms: C_1  and  C_2
REMARK    2  A    between atoms: C_2  and  N_3
REMARK    3  A    between atoms: C_7  and  C_9
REMARK    4  A    between atoms: C_9  and  N_10
REMARK    5  A    between atoms: C_11  and  C_13
REMARK    6  A    between atoms: C_13  and  C_14
REMARK    7  A    between atoms: C_14  and  C_15
REMARK    8  A    between atoms: C_15  and  N_16
REMARK                            x       y       z     vdW  Elec       q    Type
REMARK                         _______ _______ _______ _____ _____    ______ ____
ROOT
ATOM      1  C   UNL     1       4.689   0.979  -0.018  0.00  0.00    +0.126 C 
ENDROOT
BRANCH   1   2
ATOM      2  N   UNL     1       3.416   1.703   0.010  0.00  0.00    -0.305 N 
ATOM      3  C   UNL     1       2.216   0.996  -0.067  0.00  0.00    +0.070 A 
ATOM      4  C   UNL     1       2.239  -0.390  -0.171  0.00  0.00    +0.043 A 
ATOM      5  C   UNL     1       1.055  -1.097  -0.249  0.00  0.00    +0.020 A 
ATOM      6  C   UNL     1      -0.159  -0.430  -0.225  0.00  0.00    +0.017 A 
ATOM      7  C   UNL     1      -0.192   0.947  -0.122  0.00  0.00    +0.029 A 
ATOM      8  C   UNL     1       0.993   1.666  -0.042  0.00  0.00    +0.070 A 
ATOM      9  N   UNL     1       0.955   3.060   0.062  0.00  0.00    -0.310 N 
ATOM     10  C   UNL     1      -0.074   3.942   0.108  0.00  0.00    +0.092 A 
ATOM     11  C   UNL     1       0.426   5.197   0.212  0.00  0.00    +0.020 A 
ATOM     12  C   UNL     1       1.821   5.104   0.234  0.00  0.00    +0.033 A 
ATOM     13  C   UNL     1       2.138   3.767   0.140  0.00  0.00    +0.112 A 
ATOM     14  C   UNL     1       3.412   3.047   0.111  0.00  0.00    +0.276 A 
ATOM     15  O   UNL     1       4.463   3.659   0.179  0.00  0.00    -0.265 OA
ATOM     16 BR   UNL     1       1.091  -2.982  -0.391  0.00  0.00    -0.050 Br
ENDBRANCH   1   2
BRANCH   1  17
ATOM     17  C   UNL     1       5.162   0.835  -1.466  0.00  0.00    +0.031 C 
BRANCH  17  18
ATOM     18  C   UNL     1       6.492   0.079  -1.495  0.00  0.00    +0.097 C 
BRANCH  18  20
ATOM     19  N   UNL     1       8.114  -0.699  -3.192  0.00  0.00    -0.317 N 
ATOM     20  C   UNL     1       6.957  -0.063  -2.921  0.00  0.00    +0.213 C 
ATOM     21  O   UNL     1       6.291   0.395  -3.825  0.00  0.00    -0.276 OA
ATOM     22  H   UNL     1       8.719  -1.114  -2.373  0.00  0.00    +0.149 HD
BRANCH  19  23
ATOM     23  C   UNL     1       8.567  -0.837  -4.579  0.00  0.00    +0.089 C 
BRANCH  23  28
ATOM     24  N   UNL     1      10.382  -1.704  -5.994  0.00  0.00    +0.382 N 
ATOM     25  C   UNL     1      11.611  -0.919  -6.241  0.00  0.00    -0.078 C 
ATOM     26  C   UNL     1      12.242  -0.721  -4.841  0.00  0.00    -0.020 C 
ATOM     27  C   UNL     1      10.984  -0.532  -3.950  0.00  0.00    -0.016 C 
ATOM     28  C   UNL     1       9.955  -1.480  -4.601  0.00  0.00    -0.051 C 
ATOM     29  H   UNL     1      10.585  -2.774  -6.151  0.00  0.00    -0.081 HD
BRANCH  24  31
ATOM     30  C   UNL     1       9.834  -1.480  -8.370  0.00  0.00    -0.017 C 
ATOM     31  C   UNL     1       9.320  -1.331  -6.937  0.00  0.00    -0.082 C 
ENDBRANCH  24  31
ENDBRANCH  23  28
ENDBRANCH  19  23
ENDBRANCH  18  20
ENDBRANCH  17  18
ENDBRANCH   1  17
TORSDOF 7
