REMARK  Name = ZINC28117911
REMARK  8 active torsions:
REMARK  status: ('A' for Active; 'I' for Inactive)
REMARK    1  A    between atoms: C_1  and  C_2
REMARK    2  A    between atoms: C_2  and  O_3
REMARK    3  A    between atoms: O_3  and  C_4
REMARK    4  A    between atoms: C_7  and  S_10
REMARK    5  A    between atoms: S_10  and  N_13
REMARK    6  A    between atoms: N_13  and  C_14
REMARK    7  A    between atoms: C_27  and  C_29
REMARK    8  A    between atoms: C_33  and  N_35
REMARK                            x       y       z     vdW  Elec       q    Type
REMARK                         _______ _______ _______ _____ _____    ______ ____
ROOT
ATOM      1  N   UNL     1       0.936   5.476   0.063  0.00  0.00    -0.135 N 
ATOM      2  C   UNL     1       0.411   4.473   0.795  0.00  0.00    +0.270 C 
ATOM      3  O   UNL     1       0.918   3.368   0.763  0.00  0.00    -0.268 OA
ENDROOT
BRANCH   1   4
ATOM      4  C   UNL     1       0.434   6.776   0.197  0.00  0.00    +0.061 A 
ATOM      5  C   UNL     1       1.298   7.827   0.498  0.00  0.00    +0.029 A 
ATOM      6  C   UNL     1       0.820   9.112   0.631  0.00  0.00    +0.049 A 
ATOM      7  C   UNL     1      -0.535   9.371   0.467  0.00  0.00    +0.136 A 
ATOM      8  C   UNL     1      -1.411   8.313   0.164  0.00  0.00    +0.025 A 
ATOM      9  C   UNL     1      -0.917   7.016   0.025  0.00  0.00    +0.037 A 
ATOM     10  C   UNL     1      -2.734   8.925   0.062  0.00  0.00    +0.001 A 
ATOM     11  C   UNL     1      -2.571  10.238   0.297  0.00  0.00    +0.109 A 
ATOM     12  O   UNL     1      -1.275  10.498   0.536  0.00  0.00    -0.459 OA
ATOM     13  C   UNL     1      -3.707  11.236   0.284  0.00  0.00    +0.075 C 
ATOM     14  C   UNL     1      -4.904  10.602  -0.433  0.00  0.00    +0.008 C 
ATOM     15  C   UNL     1      -5.180   9.217   0.158  0.00  0.00    +0.005 C 
ATOM     16  C   UNL     1      -4.050   8.260  -0.242  0.00  0.00    +0.039 C 
ENDBRANCH   1   4
BRANCH   2  17
ATOM     17  C   UNL     1      -0.780   4.716   1.636  0.00  0.00    +0.041 A 
ATOM     18  C   UNL     1      -1.040   5.996   2.130  0.00  0.00    +0.013 A 
ATOM     19  C   UNL     1      -2.153   6.216   2.914  0.00  0.00    +0.003 A 
ATOM     20  C   UNL     1      -3.011   5.172   3.212  0.00  0.00    +0.033 A 
ATOM     21  C   UNL     1      -2.756   3.900   2.731  0.00  0.00    +0.127 A 
ATOM     22  C   UNL     1      -1.649   3.667   1.940  0.00  0.00    +0.045 A 
BRANCH  21  23
ATOM     23  N   UNL     1      -3.676   2.788   3.059  0.00  0.00    +0.056 N 
ATOM     24  O   UNL     1      -4.655   2.993   3.753  0.00  0.00    -0.126 OA
ATOM     25  O   UNL     1      -3.453   1.668   2.636  0.00  0.00    -0.126 OA
ENDBRANCH  21  23
ENDBRANCH   2  17
BRANCH   1  26
ATOM     26  S   UNL     1       2.173   5.170  -0.994  0.00  0.00    +0.081 S 
ATOM     27  O   UNL     1       1.954   3.864  -1.510  0.00  0.00    -0.149 OA
ATOM     28  O   UNL     1       2.282   6.312  -1.833  0.00  0.00    -0.149 OA
BRANCH  26  32
ATOM     29  C   UNL     1       5.991   4.979   1.433  0.00  0.00    +0.121 A 
ATOM     30  C   UNL     1       5.083   3.931   1.482  0.00  0.00    +0.047 A 
ATOM     31  C   UNL     1       3.919   3.992   0.741  0.00  0.00    +0.032 A 
ATOM     32  C   UNL     1       3.659   5.096  -0.050  0.00  0.00    +0.109 A 
ATOM     33  C   UNL     1       4.565   6.139  -0.105  0.00  0.00    +0.032 A 
ATOM     34  C   UNL     1       5.728   6.085   0.639  0.00  0.00    +0.047 A 
BRANCH  29  35
ATOM     35  O   UNL     1       7.137   4.921   2.162  0.00  0.00    -0.492 OA
BRANCH  35  37
ATOM     36  C   UNL     1       9.250   5.792   2.946  0.00  0.00    +0.048 C 
ATOM     37  C   UNL     1       8.025   6.036   2.062  0.00  0.00    +0.225 C 
ENDBRANCH  35  37
ENDBRANCH  29  35
ENDBRANCH  26  32
ENDBRANCH   1  26
TORSDOF 7
