REMARK  Name = ZINC18192955
REMARK  9 active torsions:
REMARK  status: ('A' for Active; 'I' for Inactive)
REMARK    1  A    between atoms: C_1  and  C_2
REMARK    2  A    between atoms: C_3  and  C_14
REMARK    3  A    between atoms: C_4  and  O_13
REMARK    4  A    between atoms: N_5  and  C_7
REMARK    5  A    between atoms: N_15  and  C_16
REMARK    6  A    between atoms: C_17  and  C_26
REMARK    7  A    between atoms: N_22  and  C_25
REMARK    8  A    between atoms: C_26  and  O_28
REMARK    9  A    between atoms: O_28  and  C_29
REMARK                            x       y       z     vdW  Elec       q    Type
REMARK                         _______ _______ _______ _____ _____    ______ ____
ROOT
ATOM      1  C   UNL     1      -0.005  -0.379  -2.542  0.00  0.00    +0.127 C 
ATOM      2  N   UNL     1       0.002  -1.258  -3.515  0.00  0.00    -0.247 NA
ENDROOT
BRANCH   2   3
ATOM      3  C   UNL     1      -0.010  -0.844  -4.800  0.00  0.00    +0.115 A 
ATOM      4  C   UNL     1      -0.011  -1.612  -5.971  0.00  0.00    +0.095 A 
ATOM      5  C   UNL     1      -0.026  -0.904  -7.235  0.00  0.00    -0.025 A 
ATOM      6  C   UNL     1      -0.037   0.449  -7.169  0.00  0.00    -0.021 A 
ATOM      7  S   UNL     1      -0.038   0.822  -5.439  0.00  0.00    -0.075 S 
ATOM      8  C   UNL     1      -0.048   1.396  -8.328  0.00  0.00    -0.036 C 
ATOM      9  N   UNL     1       0.332   0.651  -9.542  0.00  0.00    +0.381 N 
ATOM     10  C   UNL     1      -0.483  -0.567  -9.643  0.00  0.00    -0.074 C 
ATOM     11  C   UNL     1      -0.033  -1.592  -8.598  0.00  0.00    +0.018 C 
ATOM     12  C   UNL     1       0.105   1.492 -10.724  0.00  0.00    -0.096 C 
ATOM     13  H   UNL     1       1.308   0.399  -9.490  0.00  0.00    -0.082 HD
BRANCH   4  14
ATOM     14  C   UNL     1       0.004  -3.075  -5.920  0.00  0.00    +0.342 C 
ATOM     15  O   UNL     1      -1.044  -3.692  -5.892  0.00  0.00    -0.245 OA
BRANCH  14  16
ATOM     16  O   UNL     1       1.179  -3.737  -5.904  0.00  0.00    -0.464 OA
ATOM     17  C   UNL     1       1.118  -5.164  -5.854  0.00  0.00    +0.280 C 
ENDBRANCH  14  16
ENDBRANCH   4  14
ENDBRANCH   2   3
BRANCH   1  20
ATOM     18  C   UNL     1      -0.018   1.503   0.010  0.00  0.00    +0.068 C 
ATOM     19  C   UNL     1       0.002  -0.004   0.002  0.00  0.00    +0.073 A 
ATOM     20  C   UNL     1       0.008  -0.829  -1.150  0.00  0.00    +0.077 A 
ATOM     21  C   UNL     1       0.029  -2.148  -0.705  0.00  0.00    +0.225 A 
ATOM     22  N   UNL     1       0.035  -2.112   0.645  0.00  0.00    -0.200 N 
ATOM     23  N   UNL     1       0.023  -0.774   1.054  0.00  0.00    -0.168 NA
BRANCH  22  24
ATOM     24  C   UNL     1       0.054  -3.227   1.494  0.00  0.00    +0.069 A 
ATOM     25  C   UNL     1      -0.617  -4.388   1.133  0.00  0.00    +0.028 A 
ATOM     26  C   UNL     1      -0.595  -5.485   1.972  0.00  0.00    +0.002 A 
ATOM     27  C   UNL     1       0.092  -5.428   3.170  0.00  0.00    +0.000 A 
ATOM     28  C   UNL     1       0.761  -4.273   3.532  0.00  0.00    +0.002 A 
ATOM     29  C   UNL     1       0.749  -3.175   2.695  0.00  0.00    +0.028 A 
ENDBRANCH  22  24
BRANCH  21  30
ATOM     30  O   UNL     1       0.040  -3.258  -1.479  0.00  0.00    -0.492 OA
ATOM     31  H   UNL     1       0.927  -3.569  -1.709  0.00  0.00    +0.294 HD
ENDBRANCH  21  30
ENDBRANCH   1  20
TORSDOF 6
