REMARK  Name = ZINC16286466
REMARK  8 active torsions:
REMARK  status: ('A' for Active; 'I' for Inactive)
REMARK    1  A    between atoms: C_1  and  O_2
REMARK    2  A    between atoms: O_2  and  C_3
REMARK    3  A    between atoms: C_6  and  O_30
REMARK    4  A    between atoms: C_7  and  C_9
REMARK    5  A    between atoms: C_16  and  N_29
REMARK    6  A    between atoms: C_17  and  C_27
REMARK    7  A    between atoms: C_18  and  C_20
REMARK    8  A    between atoms: O_30  and  C_31
REMARK                            x       y       z     vdW  Elec       q    Type
REMARK                         _______ _______ _______ _____ _____    ______ ____
ROOT
ATOM      1  C   UNL     1      -2.527  -4.074   0.049  0.00  0.00    +0.104 A 
ATOM      2  C   UNL     1      -1.465  -4.976  -0.071  0.00  0.00    +0.054 A 
ATOM      3  C   UNL     1      -1.979  -6.240  -0.035  0.00  0.00    +0.223 A 
ATOM      4  N   UNL     1      -3.317  -6.136   0.101  0.00  0.00    -0.246 N 
ATOM      5  H   UNL     1      -3.944  -6.874   0.154  0.00  0.00    +0.192 HD
ATOM      6  N   UNL     1      -3.642  -4.771   0.159  0.00  0.00    -0.170 NA
ATOM      7  O   UNL     1      -1.202  -7.348  -0.127  0.00  0.00    -0.423 OA
ATOM      8  C   UNL     1       0.129  -7.192   0.021  0.00  0.00    +0.200 C 
ATOM      9  C   UNL     1       0.754  -5.994  -0.009  0.00  0.00    +0.098 C 
ATOM     10  C   UNL     1       0.009  -4.699  -0.219  0.00  0.00    +0.102 C 
ENDROOT
BRANCH  10  11
ATOM     11  C   UNL     1       0.290  -4.168  -1.601  0.00  0.00    -0.034 A 
ATOM     12  C   UNL     1      -0.078  -4.903  -2.712  0.00  0.00    +0.005 A 
ATOM     13  C   UNL     1       0.179  -4.416  -3.979  0.00  0.00    +0.015 A 
ATOM     14  C   UNL     1       0.806  -3.192  -4.136  0.00  0.00    +0.018 A 
ATOM     15  C   UNL     1       1.175  -2.457  -3.023  0.00  0.00    +0.015 A 
ATOM     16  C   UNL     1       0.912  -2.943  -1.756  0.00  0.00    +0.005 A 
ATOM     17 BR   UNL     1       1.159  -2.526  -5.870  0.00  0.00    -0.050 Br
ENDBRANCH  10  11
BRANCH   1  22
ATOM     18  C   UNL     1      -1.371  -0.587   0.867  0.00  0.00    +0.121 A 
ATOM     19  C   UNL     1      -2.220   0.174   0.074  0.00  0.00    +0.049 A 
ATOM     20  C   UNL     1      -3.165  -0.442  -0.724  0.00  0.00    +0.050 A 
ATOM     21  C   UNL     1      -3.270  -1.823  -0.737  0.00  0.00    +0.130 A 
ATOM     22  C   UNL     1      -2.418  -2.594   0.059  0.00  0.00    +0.048 A 
ATOM     23  C   UNL     1      -1.464  -1.968   0.858  0.00  0.00    +0.059 A 
BRANCH  18  25
ATOM     24  C   UNL     1      -0.402   1.453   1.611  0.00  0.00    +0.277 C 
ATOM     25  O   UNL     1      -0.443   0.025   1.650  0.00  0.00    -0.495 OA
ENDBRANCH  18  25
BRANCH  21  26
ATOM     26  O   UNL     1      -4.201  -2.428  -1.522  0.00  0.00    -0.494 OA
ATOM     27  C   UNL     1      -5.037  -1.577  -2.309  0.00  0.00    +0.277 C 
ENDBRANCH  21  26
ENDBRANCH   1  22
BRANCH   8  28
ATOM     28  N   UNL     1       0.894  -8.316   0.213  0.00  0.00    -0.328 N 
ATOM     29  H   UNL     1       0.474  -9.190   0.239  0.00  0.00    +0.145 HD
ATOM     30  H   UNL     1       1.855  -8.235   0.322  0.00  0.00    +0.145 HD
ENDBRANCH   8  28
BRANCH   9  31
ATOM     31  C   UNL     1       2.174  -5.952   0.164  0.00  0.00    +0.101 C 
ATOM     32  N   UNL     1       3.301  -5.919   0.302  0.00  0.00    -0.191 NA
ENDBRANCH   9  31
TORSDOF 6
