REMARK  Name = ZINC26576213
REMARK  7 active torsions:
REMARK  status: ('A' for Active; 'I' for Inactive)
REMARK    1  A    between atoms: C_1  and  C_2
REMARK    2  A    between atoms: C_2  and  C_3
REMARK    3  A    between atoms: C_3  and  O_41
REMARK    4  A    between atoms: C_15  and  C_39
REMARK    5  A    between atoms: C_19  and  C_31
REMARK    6  A    between atoms: C_31  and  N_32
REMARK    7  A    between atoms: C_35  and  C_38
REMARK                            x       y       z     vdW  Elec       q    Type
REMARK                         _______ _______ _______ _____ _____    ______ ____
ROOT
ATOM      1  C   UNL     1       2.574   3.866   3.461  0.00  0.00    +0.162 C 
ATOM      2  C   UNL     1       2.115   4.347   2.041  0.00  0.00    +0.054 C 
ATOM      3  C   UNL     1       0.783   3.644   1.816  0.00  0.00    +0.032 C 
ATOM      4  C   UNL     1      -0.301   4.558   1.327  0.00  0.00    +0.003 C 
ATOM      5  C   UNL     1      -1.388   3.987   0.777  0.00  0.00    +0.058 C 
ATOM      6  C   UNL     1      -2.600   4.638   0.285  0.00  0.00    +0.085 C 
ATOM      7  N   UNL     1      -2.966   5.897   0.284  0.00  0.00    -0.273 NA
ATOM      8  C   UNL     1      -4.340   6.182  -0.113  0.00  0.00    +0.141 C 
ATOM      9  C   UNL     1      -4.552   7.627  -0.464  0.00  0.00    +0.020 C 
ATOM     10  C   UNL     1      -5.669   7.945  -1.127  0.00  0.00    +0.042 C 
ATOM     11  C   UNL     1      -6.637   6.893  -1.487  0.00  0.00    -0.036 C 
ATOM     12  C   UNL     1      -6.240   5.620  -1.567  0.00  0.00    -0.012 C 
ATOM     13  C   UNL     1      -4.802   5.309  -1.270  0.00  0.00    +0.065 C 
ATOM     14  C   UNL     1      -4.568   3.849  -0.981  0.00  0.00    -0.070 C 
ATOM     15  C   UNL     1      -3.480   3.573  -0.268  0.00  0.00    -0.005 C 
ATOM     16  C   UNL     1      -2.830   2.270   0.084  0.00  0.00    +0.151 C 
ATOM     17  N   UNL     1      -1.494   2.595   0.576  0.00  0.00    -0.265 N 
ATOM     18  C   UNL     1      -0.455   1.747   0.786  0.00  0.00    +0.227 C 
ATOM     19  O   UNL     1      -0.600   0.543   0.814  0.00  0.00    -0.275 OA
ATOM     20  C   UNL     1       0.887   2.394   0.975  0.00  0.00    +0.120 C 
ATOM     21  C   UNL     1       1.982   1.425   1.399  0.00  0.00    +0.245 C 
ATOM     22  O   UNL     1       2.179   1.481   2.829  0.00  0.00    -0.462 OA
ATOM     23  C   UNL     1       2.984   2.446   3.293  0.00  0.00    +0.339 C 
ATOM     24  O   UNL     1       4.115   2.144   3.594  0.00  0.00    -0.248 OA
ATOM     25  C   UNL     1      -8.074   7.253  -1.765  0.00  0.00    +0.045 C 
ATOM     26 CL   UNL     1      -5.979   9.597  -1.564  0.00  0.00    -0.084 Cl
ENDROOT
BRANCH   1  28
ATOM     27  C   UNL     1       0.886   5.402   4.477  0.00  0.00    +0.007 C 
ATOM     28  C   UNL     1       1.416   3.967   4.456  0.00  0.00    +0.043 C 
ENDBRANCH   1  28
BRANCH   1  29
ATOM     29  O   UNL     1       3.681   4.649   3.912  0.00  0.00    -0.377 OA
ATOM     30  H   UNL     1       4.604   4.692   3.316  0.00  0.00    +0.211 HD
ENDBRANCH   1  29
BRANCH  14  31
ATOM     31  C   UNL     1      -5.505   2.774  -1.467  0.00  0.00    -0.046 C 
BRANCH  31  32
ATOM     32  N   UNL     1      -5.269   2.527  -2.895  0.00  0.00    +0.382 N 
ATOM     33  C   UNL     1      -3.845   2.280  -3.158  0.00  0.00    -0.078 C 
ATOM     34  C   UNL     1      -3.615   2.172  -4.667  0.00  0.00    -0.016 C 
ATOM     35  C   UNL     1      -4.462   1.026  -5.227  0.00  0.00    -0.018 C 
ATOM     36  C   UNL     1      -5.935   1.283  -4.897  0.00  0.00    -0.016 C 
ATOM     37  C   UNL     1      -6.098   1.417  -3.382  0.00  0.00    -0.078 C 
ATOM     38  C   UNL     1      -4.283   0.950  -6.744  0.00  0.00    +0.007 C 
ATOM     39  H   UNL     1      -5.560   3.431  -3.449  0.00  0.00    -0.081 HD
ENDBRANCH  31  32
ENDBRANCH  14  31
TORSDOF 4
