REMARK  Name = ZINC39537627
REMARK  9 active torsions:
REMARK  status: ('A' for Active; 'I' for Inactive)
REMARK    1  A    between atoms: C_1  and  C_2
REMARK    2  A    between atoms: N_7  and  C_9
REMARK    3  A    between atoms: C_9  and  C_10
REMARK    4  A    between atoms: N_15  and  C_16
REMARK    5  A    between atoms: C_16  and  C_18
REMARK    6  A    between atoms: C_18  and  N_19
REMARK    7  A    between atoms: C_20  and  C_22
REMARK    8  A    between atoms: C_22  and  N_23
REMARK    9  A    between atoms: C_24  and  C_26
REMARK                            x       y       z     vdW  Elec       q    Type
REMARK                         _______ _______ _______ _____ _____    ______ ____
ROOT
ATOM      1  C   UNL     1      -0.790  -8.080   2.805  0.00  0.00    +0.256 C 
ATOM      2  O   UNL     1       0.330  -8.550   2.744  0.00  0.00    -0.272 OA
ENDROOT
BRANCH   1   8
ATOM      3  C   UNL     1       1.321  -3.966   2.518  0.00  0.00    +0.008 A 
ATOM      4  C   UNL     1       2.416  -4.733   2.469  0.00  0.00    +0.067 A 
ATOM      5  S   UNL     1       1.724  -6.373   2.573  0.00  0.00    -0.061 S 
ATOM      6  C   UNL     1       0.097  -5.957   2.671  0.00  0.00    +0.163 A 
ATOM      7  N   UNL     1       0.122  -4.598   2.628  0.00  0.00    -0.341 N 
ATOM      8  N   UNL     1      -0.961  -6.764   2.772  0.00  0.00    -0.155 NA
ATOM      9  H   UNL     1      -0.702  -4.088   2.672  0.00  0.00    +0.167 HD
BRANCH   3  10
ATOM     10  C   UNL     1       1.413  -2.463   2.461  0.00  0.00    -0.024 C 
BRANCH  10  16
ATOM     11  C   UNL     1      -0.019   1.526   0.010  0.00  0.00    +0.005 C 
ATOM     12  C   UNL     1       0.002  -0.004   0.002  0.00  0.00    -0.031 C 
ATOM     13  C   UNL     1       0.721  -0.499  -1.257  0.00  0.00    -0.001 C 
ATOM     14  C   UNL     1       0.805  -2.027  -1.217  0.00  0.00    -0.018 C 
ATOM     15  C   UNL     1       1.518  -2.460   0.066  0.00  0.00    -0.078 C 
ATOM     16  N   UNL     1       0.768  -1.979   1.233  0.00  0.00    +0.384 N 
ATOM     17  C   UNL     1       0.744  -0.512   1.240  0.00  0.00    -0.075 C 
ATOM     18  H   UNL     1      -0.177  -2.330   1.192  0.00  0.00    -0.081 HD
ENDBRANCH  10  16
ENDBRANCH   3  10
ENDBRANCH   1   8
BRANCH   1  19
ATOM     19  C   UNL     1      -1.985  -8.991   2.918  0.00  0.00    +0.202 C 
BRANCH  19  20
ATOM     20  N   UNL     1      -1.535 -10.386   2.935  0.00  0.00    -0.305 N 
ATOM     21  C   UNL     1      -2.437 -11.383   3.031  0.00  0.00    +0.231 C 
ATOM     22  O   UNL     1      -3.620 -11.127   3.103  0.00  0.00    -0.274 OA
ATOM     23  H   UNL     1      -0.589 -10.591   2.877  0.00  0.00    +0.149 HD
BRANCH  21  24
ATOM     24  C   UNL     1      -1.974 -12.817   3.048  0.00  0.00    +0.200 C 
BRANCH  24  25
ATOM     25  N   UNL     1      -3.135 -13.704   3.158  0.00  0.00    -0.303 N 
ATOM     26  C   UNL     1      -2.962 -15.040   3.191  0.00  0.00    +0.246 C 
ATOM     27  O   UNL     1      -1.843 -15.510   3.130  0.00  0.00    -0.270 OA
ATOM     28  H   UNL     1      -4.029 -13.329   3.206  0.00  0.00    +0.150 HD
BRANCH  26  29
ATOM     29  C   UNL     1      -4.133 -15.934   3.302  0.00  0.00    +0.055 A 
ATOM     30  C   UNL     1      -5.421 -15.397   3.367  0.00  0.00    +0.016 A 
ATOM     31  C   UNL     1      -6.510 -16.236   3.470  0.00  0.00    +0.021 A 
ATOM     32  C   UNL     1      -6.330 -17.609   3.511  0.00  0.00    +0.042 A 
ATOM     33  C   UNL     1      -5.056 -18.148   3.448  0.00  0.00    +0.040 A 
ATOM     34  C   UNL     1      -3.957 -17.319   3.337  0.00  0.00    +0.054 A 
ATOM     35 CL   UNL     1      -2.361 -17.996   3.251  0.00  0.00    -0.083 Cl
ATOM     36 CL   UNL     1      -7.707 -18.659   3.642  0.00  0.00    -0.083 Cl
ENDBRANCH  26  29
ENDBRANCH  24  25
ENDBRANCH  21  24
ENDBRANCH  19  20
ENDBRANCH   1  19
TORSDOF 8
