REMARK  Name = ZINC36500563
REMARK  9 active torsions:
REMARK  status: ('A' for Active; 'I' for Inactive)
REMARK    1  A    between atoms: C_4  and  C_7
REMARK    2  A    between atoms: C_7  and  C_9
REMARK    3  A    between atoms: C_7  and  N_18
REMARK    4  A    between atoms: N_11  and  C_12
REMARK    5  A    between atoms: N_18  and  C_19
REMARK    6  A    between atoms: C_19  and  C_20
REMARK    7  A    between atoms: C_25  and  C_27
REMARK    8  A    between atoms: C_28  and  O_34
REMARK    9  A    between atoms: C_32  and  O_33
REMARK                            x       y       z     vdW  Elec       q    Type
REMARK                         _______ _______ _______ _____ _____    ______ ____
ROOT
ATOM      1  N   UNL     1       6.391  -0.261   0.131  0.00  0.00    -0.274 N 
ATOM      2  C   UNL     1       6.448   1.085   0.165  0.00  0.00    +0.255 C 
ATOM      3  O   UNL     1       5.619   1.745  -0.433  0.00  0.00    -0.270 OA
ENDROOT
BRANCH   2   4
ATOM      4  C   UNL     1       7.515   1.758   0.925  0.00  0.00    +0.119 A 
ATOM      5  C   UNL     1       8.730   2.080   0.303  0.00  0.00    +0.133 A 
ATOM      6  C   UNL     1       9.726   2.713   1.028  0.00  0.00    +0.046 A 
ATOM      7  C   UNL     1       9.527   3.027   2.360  0.00  0.00    +0.007 A 
ATOM      8  C   UNL     1       8.333   2.713   2.982  0.00  0.00    +0.046 A 
ATOM      9  C   UNL     1       7.321   2.086   2.275  0.00  0.00    +0.133 A 
BRANCH   9  10
ATOM     10  O   UNL     1       6.148   1.784   2.887  0.00  0.00    -0.506 OA
ATOM     11  H   UNL     1       6.134   0.911   3.302  0.00  0.00    +0.292 HD
ENDBRANCH   9  10
BRANCH   5  12
ATOM     12  O   UNL     1       8.929   1.773  -1.003  0.00  0.00    -0.506 OA
ATOM     13  H   UNL     1       8.658   2.469  -1.617  0.00  0.00    +0.292 HD
ENDBRANCH   5  12
ENDBRANCH   2   4
BRANCH   1  14
ATOM     14  C   UNL     1       5.330  -0.930  -0.626  0.00  0.00    +0.193 C 
BRANCH  14  18
ATOM     15  C   UNL     1       2.213  -2.124   2.041  0.00  0.00    +0.000 A 
ATOM     16  C   UNL     1       1.899  -1.594   0.803  0.00  0.00    +0.000 A 
ATOM     17  C   UNL     1       2.907  -1.208  -0.060  0.00  0.00    +0.006 A 
ATOM     18  C   UNL     1       4.230  -1.351   0.315  0.00  0.00    -0.018 A 
ATOM     19  C   UNL     1       4.545  -1.880   1.553  0.00  0.00    +0.006 A 
ATOM     20  C   UNL     1       3.536  -2.268   2.415  0.00  0.00    +0.000 A 
ENDBRANCH  14  18
BRANCH  14  21
ATOM     21  C   UNL     1       5.894  -2.146  -1.315  0.00  0.00    +0.238 C 
ATOM     22  O   UNL     1       6.636  -2.893  -0.714  0.00  0.00    -0.273 OA
ATOM     23  N   UNL     1       5.573  -2.402  -2.599  0.00  0.00    -0.311 N 
ATOM     24  H   UNL     1       4.979  -1.805  -3.079  0.00  0.00    +0.149 HD
BRANCH  23  25
ATOM     25  C   UNL     1       6.122  -3.584  -3.268  0.00  0.00    +0.073 C 
ATOM     26  C   UNL     1       7.505  -3.255  -3.833  0.00  0.00    +0.022 C 
ATOM     27  C   UNL     1       8.078  -4.489  -4.532  0.00  0.00    +0.002 C 
ATOM     28  C   UNL     1       7.148  -4.907  -5.673  0.00  0.00    +0.000 C 
ATOM     29  C   UNL     1       5.764  -5.236  -5.108  0.00  0.00    +0.002 C 
ATOM     30  C   UNL     1       5.191  -4.002  -4.409  0.00  0.00    +0.022 C 
ENDBRANCH  23  25
ENDBRANCH  14  21
ENDBRANCH   1  14
BRANCH   1  31
ATOM     31  C   UNL     1       7.389  -1.055   0.851  0.00  0.00    +0.183 C 
BRANCH  31  32
ATOM     32  C   UNL     1       8.646  -1.151   0.024  0.00  0.00    +0.122 A 
ATOM     33  C   UNL     1       9.900  -0.971   0.475  0.00  0.00    +0.046 A 
ATOM     34  C   UNL     1      10.763  -1.153  -0.629  0.00  0.00    +0.041 A 
ATOM     35  C   UNL     1       9.985  -1.433  -1.690  0.00  0.00    +0.195 A 
ATOM     36  O   UNL     1       8.704  -1.437  -1.287  0.00  0.00    -0.466 OA
ENDBRANCH  31  32
ENDBRANCH   1  31
TORSDOF 9
