REMARK  Name = ZINC32917773
REMARK  6 active torsions:
REMARK  status: ('A' for Active; 'I' for Inactive)
REMARK    1  A    between atoms: C_4  and  C_7
REMARK    2  A    between atoms: C_7  and  C_8
REMARK    3  A    between atoms: C_8  and  C_10
REMARK    4  A    between atoms: C_8  and  N_13
REMARK    5  A    between atoms: N_13  and  S_14
REMARK    6  A    between atoms: S_14  and  C_17
REMARK                            x       y       z     vdW  Elec       q    Type
REMARK                         _______ _______ _______ _____ _____    ______ ____
ROOT
ATOM      1  S   UNL     1      -2.973   4.047   0.119  0.00  0.00    +0.061 S 
ATOM      2  O   UNL     1      -3.970   3.514   0.980  0.00  0.00    -0.153 OA
ATOM      3  O   UNL     1      -2.570   5.409   0.171  0.00  0.00    -0.153 OA
ENDROOT
BRANCH   1   4
ATOM      4  C   UNL     1      -1.521   3.081   0.371  0.00  0.00    +0.127 A 
ATOM      5  C   UNL     1      -1.552   2.004   1.239  0.00  0.00    +0.077 A 
ATOM      6  C   UNL     1      -0.413   1.245   1.437  0.00  0.00    +0.144 A 
ATOM      7  C   UNL     1       0.764   1.569   0.762  0.00  0.00    +0.077 A 
ATOM      8  C   UNL     1       0.790   2.648  -0.105  0.00  0.00    +0.049 A 
ATOM      9  C   UNL     1      -0.353   3.406  -0.294  0.00  0.00    +0.069 A 
ATOM     10 CL   UNL     1      -0.322   4.764  -1.376  0.00  0.00    -0.081 Cl
ATOM     11  N   UNL     1       1.912   0.792   0.975  0.00  0.00    -0.280 N 
ATOM     12  C   UNL     1       1.785  -0.416   1.564  0.00  0.00    +0.255 C 
ATOM     13  O   UNL     1       2.767  -1.092   1.785  0.00  0.00    -0.272 OA
ATOM     14  C   UNL     1       0.417  -0.922   1.946  0.00  0.00    +0.325 C 
ATOM     15  O   UNL     1      -0.426   0.182   2.286  0.00  0.00    -0.481 OA
ATOM     16  H   UNL     1       2.897   1.170   0.662  0.00  0.00    +0.155 HD
ENDBRANCH   1   4
BRANCH   1  17
ATOM     17  N   UNL     1      -3.486   3.765  -1.431  0.00  0.00    -0.176 NA
ATOM     18  H   UNL     1      -3.287   4.517  -2.208  0.00  0.00    +0.149 HD
BRANCH  17  19
ATOM     19  C   UNL     1      -3.997   2.443  -1.804  0.00  0.00    +0.193 C 
BRANCH  19  20
ATOM     20  C   UNL     1      -5.491   2.409  -1.607  0.00  0.00    +0.375 C 
ATOM     21  O   UNL     1      -6.069   3.388  -1.197  0.00  0.00    -0.245 OA
ATOM     22  O   UNL     1      -6.179   1.291  -1.887  0.00  0.00    -0.245 OA
ENDBRANCH  19  20
BRANCH  19  23
ATOM     23  C   UNL     1      -3.669   2.166  -3.272  0.00  0.00    +0.067 C 
BRANCH  23  27
ATOM     24  C   UNL     1       0.567   1.917  -3.764  0.00  0.00    +0.000 A 
ATOM     25  C   UNL     1      -0.163   0.780  -3.471  0.00  0.00    +0.000 A 
ATOM     26  C   UNL     1      -1.534   0.861  -3.312  0.00  0.00    +0.004 A 
ATOM     27  C   UNL     1      -2.175   2.078  -3.445  0.00  0.00    -0.045 A 
ATOM     28  C   UNL     1      -1.446   3.214  -3.743  0.00  0.00    +0.004 A 
ATOM     29  C   UNL     1      -0.074   3.135  -3.897  0.00  0.00    +0.000 A 
ENDBRANCH  23  27
ENDBRANCH  19  23
ENDBRANCH  17  19
ENDBRANCH   1  17
TORSDOF 6
