REMARK  Name = ZINC19235263
REMARK  6 active torsions:
REMARK  status: ('A' for Active; 'I' for Inactive)
REMARK    1  A    between atoms: C_1  and  C_2
REMARK    2  A    between atoms: C_6  and  C_8
REMARK    3  A    between atoms: C_9  and  C_32
REMARK    4  A    between atoms: C_12  and  C_18
REMARK    5  A    between atoms: N_23  and  C_25
REMARK    6  A    between atoms: C_25  and  C_26
REMARK                            x       y       z     vdW  Elec       q    Type
REMARK                         _______ _______ _______ _____ _____    ______ ____
ROOT
ATOM      1  C   UNL     1       0.053  -2.846   2.464  0.00  0.00    +0.098 A 
ATOM      2  C   UNL     1      -0.579  -4.079   2.700  0.00  0.00    +0.020 A 
ATOM      3  C   UNL     1      -0.328  -4.434   3.990  0.00  0.00    +0.141 A 
ATOM      4  N   UNL     1      -0.700  -5.535   4.739  0.00  0.00    -0.343 N 
ATOM      5  C   UNL     1      -0.304  -5.644   6.038  0.00  0.00    +0.028 A 
ATOM      6  C   UNL     1       0.456  -4.675   6.596  0.00  0.00    +0.093 A 
ATOM      7  C   UNL     1       0.836  -3.553   5.832  0.00  0.00    +0.275 A 
ATOM      8  N   UNL     1       0.440  -3.452   4.547  0.00  0.00    -0.179 N 
ATOM      9  N   UNL     1       0.666  -2.475   3.569  0.00  0.00    -0.162 NA
ATOM     10  O   UNL     1       1.520  -2.678   6.330  0.00  0.00    -0.266 OA
ATOM     11  C   UNL     1      -1.389  -4.867   1.704  0.00  0.00    +0.050 C 
ATOM     12  H   UNL     1      -1.245  -6.231   4.339  0.00  0.00    +0.167 HD
ENDROOT
BRANCH   1  18
ATOM     13  C   UNL     1      -0.018   1.503   0.010  0.00  0.00    +0.044 C 
ATOM     14  C   UNL     1       0.002  -0.004   0.002  0.00  0.00    -0.050 A 
ATOM     15  C   UNL     1       0.006  -0.688  -1.201  0.00  0.00    +0.003 A 
ATOM     16  C   UNL     1       0.025  -2.071  -1.216  0.00  0.00    +0.001 A 
ATOM     17  C   UNL     1       0.040  -2.776  -0.029  0.00  0.00    +0.010 A 
ATOM     18  C   UNL     1       0.036  -2.093   1.185  0.00  0.00    +0.003 A 
ATOM     19  C   UNL     1       0.023  -0.699   1.194  0.00  0.00    +0.013 A 
ENDBRANCH   1  18
BRANCH   5  20
ATOM     20  C   UNL     1      -0.712  -6.845   6.852  0.00  0.00    +0.062 C 
ATOM     21  C   UNL     1      -2.249  -7.015   6.855  0.00  0.00    +0.107 C 
ATOM     22  C   UNL     1      -2.457  -8.513   6.811  0.00  0.00    +0.217 C 
ATOM     23  O   UNL     1      -3.496  -9.078   7.077  0.00  0.00    -0.276 OA
ATOM     24  N   UNL     1      -1.322  -9.126   6.433  0.00  0.00    -0.296 N 
ATOM     25  C   UNL     1      -0.251  -8.155   6.176  0.00  0.00    +0.118 C 
BRANCH  24  26
ATOM     26  C   UNL     1      -1.172 -10.576   6.295  0.00  0.00    +0.142 C 
BRANCH  26  27
ATOM     27  C   UNL     1      -1.526 -10.987   4.889  0.00  0.00    -0.030 A 
ATOM     28  C   UNL     1      -2.830 -11.319   4.574  0.00  0.00    +0.005 A 
ATOM     29  C   UNL     1      -3.154 -11.696   3.284  0.00  0.00    +0.000 A 
ATOM     30  C   UNL     1      -2.175 -11.740   2.309  0.00  0.00    +0.000 A 
ATOM     31  C   UNL     1      -0.870 -11.407   2.625  0.00  0.00    +0.000 A 
ATOM     32  C   UNL     1      -0.547 -11.027   3.914  0.00  0.00    +0.005 A 
ENDBRANCH  26  27
ENDBRANCH  24  26
ENDBRANCH   5  20
TORSDOF 4
