REMARK  Name = ZINC02628481
REMARK  6 active torsions:
REMARK  status: ('A' for Active; 'I' for Inactive)
REMARK    1  A    between atoms: C_8  and  C_10
REMARK    2  A    between atoms: N_12  and  N_13
REMARK    3  A    between atoms: C_14  and  C_16
REMARK    4  A    between atoms: C_16  and  C_17
REMARK    5  A    between atoms: C_17  and  S_18
REMARK    6  A    between atoms: S_18  and  C_19
REMARK                            x       y       z     vdW  Elec       q    Type
REMARK                         _______ _______ _______ _____ _____    ______ ____
ROOT
ATOM      1  C   UNL     1       3.140   6.435   0.005  0.00  0.00    +0.268 C 
ATOM      2  O   UNL     1       4.321   6.143  -0.008  0.00  0.00    -0.268 OA
ATOM      3  N   UNL     1       2.767   7.730   0.015  0.00  0.00    -0.230 N 
ATOM      4  H   UNL     1       1.825   7.963   0.025  0.00  0.00    +0.173 HD
ENDROOT
BRANCH   1  12
ATOM      5  C   UNL     1      -0.013   1.076   0.008  0.00  0.00    +0.001 A 
ATOM      6  C   UNL     1      -1.235   1.737   0.017  0.00  0.00    +0.001 A 
ATOM      7  C   UNL     1      -1.261   3.117   0.029  0.00  0.00    +0.016 A 
ATOM      8  C   UNL     1      -0.075   3.819   0.022  0.00  0.00    +0.021 A 
ATOM      9  C   UNL     1       1.184   3.173   0.007  0.00  0.00    +0.008 A 
ATOM     10  C   UNL     1       1.164   1.754   0.000  0.00  0.00    +0.010 A 
ATOM     11  C   UNL     1       2.301   4.028   0.001  0.00  0.00    +0.068 A 
ATOM     12  C   UNL     1       2.122   5.377   0.009  0.00  0.00    +0.095 A 
ATOM     13  S   UNL     1       0.346   5.544   0.027  0.00  0.00    -0.082 S 
ATOM     14 CL   UNL     1       3.905   3.364  -0.018  0.00  0.00    -0.082 Cl
ENDBRANCH   1  12
BRANCH   3  15
ATOM     15  N   UNL     1       3.738   8.740   0.011  0.00  0.00    -0.234 N 
ATOM     16  C   UNL     1       3.364  10.035   0.021  0.00  0.00    +0.230 C 
ATOM     17  O   UNL     1       2.187  10.326   0.034  0.00  0.00    -0.274 OA
ATOM     18  H   UNL     1       4.679   8.507   0.001  0.00  0.00    +0.173 HD
BRANCH  16  19
ATOM     19  C   UNL     1       4.409  11.120   0.017  0.00  0.00    +0.108 C 
BRANCH  19  20
ATOM     20  C   UNL     1       3.723  12.488   0.030  0.00  0.00    +0.084 C 
BRANCH  20  21
ATOM     21  S   UNL     1       4.981  13.795   0.025  0.00  0.00    -0.123 S 
BRANCH  21  22
ATOM     22  C   UNL     1       4.045  15.288   0.041  0.00  0.00    +0.026 A 
ATOM     23  C   UNL     1       2.656  15.239   0.048  0.00  0.00    +0.016 A 
ATOM     24  C   UNL     1       1.925  16.410   0.065  0.00  0.00    +0.001 A 
ATOM     25  C   UNL     1       2.574  17.632   0.065  0.00  0.00    +0.001 A 
ATOM     26  C   UNL     1       3.955  17.686   0.053  0.00  0.00    +0.021 A 
ATOM     27  C   UNL     1       4.693  16.518   0.041  0.00  0.00    +0.054 A 
ATOM     28 CL   UNL     1       6.428  16.585   0.025  0.00  0.00    -0.082 Cl
ENDBRANCH  21  22
ENDBRANCH  20  21
ENDBRANCH  19  20
ENDBRANCH  16  19
ENDBRANCH   3  15
TORSDOF 6
