REMARK  Name = ZINC13064400
REMARK  8 active torsions:
REMARK  status: ('A' for Active; 'I' for Inactive)
REMARK    1  A    between atoms: C_1  and  C_2
REMARK    2  A    between atoms: C_2  and  C_3
REMARK    3  A    between atoms: C_3  and  C_5
REMARK    4  A    between atoms: C_3  and  N_69
REMARK    5  A    between atoms: N_9  and  C_10
REMARK    6  A    between atoms: C_15  and  C_16
REMARK    7  A    between atoms: C_15  and  N_69
REMARK    8  A    between atoms: C_32  and  N_69
REMARK                            x       y       z     vdW  Elec       q    Type
REMARK                         _______ _______ _______ _____ _____    ______ ____
ROOT
ATOM      1  N   UNL     1       1.453  -2.566  -1.041  0.00  0.00    +0.391 N 
ATOM      2  H   UNL     1       0.726  -2.012  -1.510  0.00  0.00    -0.080 HD
ENDROOT
BRANCH   1   3
ATOM      3  C   UNL     1       2.779  -2.037  -1.425  0.00  0.00    -0.067 C 
ATOM      4  C   UNL     1       3.911  -2.939  -0.890  0.00  0.00    -0.015 C 
ATOM      5  C   UNL     1       5.031  -1.945  -0.490  0.00  0.00    -0.002 C 
ATOM      6  C   UNL     1       4.237  -0.756   0.104  0.00  0.00    -0.002 C 
ATOM      7  C   UNL     1       2.986  -0.650  -0.793  0.00  0.00    -0.015 C 
ENDBRANCH   1   3
BRANCH   1   8
ATOM      8  C   UNL     1       1.330  -3.977  -1.464  0.00  0.00    +0.003 C 
BRANCH   8   9
ATOM      9  C   UNL     1       2.040  -4.168  -2.779  0.00  0.00    +0.138 A 
ATOM     10  N   UNL     1       2.013  -3.357  -3.809  0.00  0.00    -0.115 NA
ATOM     11  N   UNL     1       2.744  -3.868  -4.738  0.00  0.00    -0.023 NA
ATOM     12  N   UNL     1       3.237  -4.985  -4.328  0.00  0.00    -0.044 NA
ATOM     13  N   UNL     1       2.831  -5.201  -3.123  0.00  0.00    -0.228 N 
BRANCH  13  14
ATOM     14  C   UNL     1       3.164  -6.357  -2.287  0.00  0.00    +0.111 C 
ATOM     15  C   UNL     1       4.694  -6.460  -2.113  0.00  0.00    +0.027 C 
ATOM     16  C   UNL     1       4.976  -7.984  -2.133  0.00  0.00    +0.002 C 
ATOM     17  C   UNL     1       3.981  -8.503  -3.200  0.00  0.00    +0.002 C 
ATOM     18  C   UNL     1       2.711  -7.655  -2.977  0.00  0.00    +0.027 C 
ENDBRANCH  13  14
ENDBRANCH   8   9
BRANCH   8  20
ATOM     19  C   UNL     1      -0.941  -3.743  -0.449  0.00  0.00    +0.002 C 
ATOM     20  C   UNL     1      -0.154  -4.308  -1.633  0.00  0.00    -0.011 C 
ENDBRANCH   8  20
ENDBRANCH   1   8
BRANCH   1  21
ATOM     21  C   UNL     1       1.270  -2.459   0.421  0.00  0.00    -0.036 C 
BRANCH  21  22
ATOM     22  C   UNL     1       2.188  -3.414   1.140  0.00  0.00    +0.001 A 
ATOM     23  C   UNL     1       3.280  -2.941   1.792  0.00  0.00    +0.017 A 
ATOM     24  C   UNL     1       4.151  -3.894   2.480  0.00  0.00    +0.002 A 
ATOM     25  C   UNL     1       5.288  -3.463   3.174  0.00  0.00    +0.059 A 
ATOM     26  C   UNL     1       6.093  -4.385   3.808  0.00  0.00    +0.163 A 
ATOM     27  C   UNL     1       5.771  -5.745   3.772  0.00  0.00    +0.164 A 
ATOM     28  C   UNL     1       4.645  -6.179   3.093  0.00  0.00    +0.075 A 
ATOM     29  C   UNL     1       3.827  -5.264   2.443  0.00  0.00    +0.053 A 
ATOM     30  N   UNL     1       2.701  -5.680   1.761  0.00  0.00    -0.322 N 
ATOM     31  H   UNL     1       2.479  -6.624   1.736  0.00  0.00    +0.169 HD
ATOM     32  C   UNL     1       1.907  -4.796   1.133  0.00  0.00    +0.251 A 
ATOM     33  O   UNL     1       0.921  -5.199   0.541  0.00  0.00    -0.268 OA
ATOM     34  O   UNL     1       6.555  -6.660   4.403  0.00  0.00    -0.485 OA
ATOM     35  C   UNL     1       7.876  -6.240   4.759  0.00  0.00    +0.270 C 
ATOM     36  C   UNL     1       7.781  -4.857   5.416  0.00  0.00    +0.270 C 
ATOM     37  O   UNL     1       7.201  -3.951   4.472  0.00  0.00    -0.485 OA
ENDBRANCH  21  22
ENDBRANCH   1  21
TORSDOF 7
