REMARK  Name = ZINC58847311
REMARK  6 active torsions:
REMARK  status: ('A' for Active; 'I' for Inactive)
REMARK    1  A    between atoms: C_1  and  C_2
REMARK    2  A    between atoms: C_2  and  C_28
REMARK    3  A    between atoms: C_12  and  S_17
REMARK    4  A    between atoms: S_17  and  N_20
REMARK    5  A    between atoms: N_20  and  C_21
REMARK    6  A    between atoms: C_31  and  N_34
REMARK                            x       y       z     vdW  Elec       q    Type
REMARK                         _______ _______ _______ _____ _____    ______ ____
ROOT
ATOM      1  C   UNL     1      -0.013   1.990   1.200  0.00  0.00    +0.037 C 
ATOM      2  C   UNL     1      -0.092   0.468   1.063  0.00  0.00    +0.058 C 
ATOM      3  C   UNL     1       0.367   0.041  -0.320  0.00  0.00    +0.031 C 
ATOM      4  C   UNL     1      -0.335   0.689  -1.521  0.00  0.00    +0.033 C 
ATOM      5  C   UNL     1       0.772   0.657  -2.578  0.00  0.00    -0.030 C 
ATOM      6  C   UNL     1       1.961   0.646  -1.989  0.00  0.00    -0.023 C 
ATOM      7  C   UNL     1       1.776   0.679  -0.506  0.00  0.00    +0.049 C 
ATOM      8  C   UNL     1       2.702   0.014   0.437  0.00  0.00    -0.018 A 
ATOM      9  C   UNL     1       4.024  -0.227   0.130  0.00  0.00    +0.034 A 
ATOM     10  C   UNL     1       4.853  -0.840   1.050  0.00  0.00    +0.109 A 
ATOM     11  C   UNL     1       4.357  -1.214   2.286  0.00  0.00    +0.030 A 
ATOM     12  C   UNL     1       3.034  -0.981   2.601  0.00  0.00    +0.025 A 
ATOM     13  C   UNL     1       2.190  -0.372   1.681  0.00  0.00    +0.032 A 
ATOM     14  N   UNL     1       0.843  -0.179   2.010  0.00  0.00    -0.334 N 
ATOM     15  H   UNL     1       0.517  -0.475   2.874  0.00  0.00    +0.147 HD
ENDROOT
BRANCH   2  16
ATOM     16  C   UNL     1      -1.500  -0.005   1.317  0.00  0.00    -0.024 A 
ATOM     17  C   UNL     1      -2.572   0.759   0.896  0.00  0.00    +0.008 A 
ATOM     18  C   UNL     1      -3.864   0.325   1.129  0.00  0.00    +0.033 A 
ATOM     19  C   UNL     1      -4.083  -0.873   1.782  0.00  0.00    +0.126 A 
ATOM     20  C   UNL     1      -3.011  -1.638   2.202  0.00  0.00    +0.033 A 
ATOM     21  C   UNL     1      -1.719  -1.206   1.966  0.00  0.00    +0.008 A 
BRANCH  19  22
ATOM     22  N   UNL     1      -5.466  -1.337   2.032  0.00  0.00    +0.056 N 
ATOM     23  O   UNL     1      -6.404  -0.668   1.665  0.00  0.00    -0.126 OA
ATOM     24  O   UNL     1      -5.658  -2.385   2.604  0.00  0.00    -0.126 OA
ENDBRANCH  19  22
ENDBRANCH   2  16
BRANCH  10  25
ATOM     25  S   UNL     1       6.541  -1.147   0.649  0.00  0.00    +0.072 S 
ATOM     26  O   UNL     1       6.966  -2.223   1.474  0.00  0.00    -0.150 OA
ATOM     27  O   UNL     1       6.619  -1.198  -0.769  0.00  0.00    -0.150 OA
BRANCH  25  28
ATOM     28  N   UNL     1       7.407   0.183   1.123  0.00  0.00    -0.215 N 
ATOM     29  H   UNL     1       7.910   0.692   0.469  0.00  0.00    +0.174 HD
BRANCH  28  30
ATOM     30  C   UNL     1       7.411   0.572   2.465  0.00  0.00    +0.066 A 
ATOM     31  C   UNL     1       7.381  -0.388   3.468  0.00  0.00    +0.026 A 
ATOM     32  C   UNL     1       7.386  -0.001   4.793  0.00  0.00    +0.002 A 
ATOM     33  C   UNL     1       7.420   1.342   5.123  0.00  0.00    +0.002 A 
ATOM     34  C   UNL     1       7.450   2.301   4.128  0.00  0.00    +0.022 A 
ATOM     35  C   UNL     1       7.451   1.921   2.799  0.00  0.00    +0.063 A 
ATOM     36 CL   UNL     1       7.495   3.125   1.550  0.00  0.00    -0.082 Cl
ENDBRANCH  28  30
ENDBRANCH  25  28
ENDBRANCH  10  25
TORSDOF 5
