REMARK  Name = ZINC14120736
REMARK  10 active torsions:
REMARK  status: ('A' for Active; 'I' for Inactive)
REMARK    1  A    between atoms: C_9  and  C_10
REMARK    2  A    between atoms: C_9  and  C_12
REMARK    3  A    between atoms: C_12  and  C_14
REMARK    4  A    between atoms: C_14  and  O_15
REMARK    5  A    between atoms: O_15  and  C_16
REMARK    6  A    between atoms: C_16  and  C_18
REMARK    7  A    between atoms: C_18  and  C_19
REMARK    8  A    between atoms: C_19  and  C_20
REMARK    9  A    between atoms: C_23  and  S_26
REMARK   10  A    between atoms: S_26  and  N_29
REMARK                            x       y       z     vdW  Elec       q    Type
REMARK                         _______ _______ _______ _____ _____    ______ ____
ROOT
ATOM      1  C   UNL     1       7.070  -3.341  -5.366  0.00  0.00    +0.308 C 
ATOM      2  O   UNL     1       6.467  -2.929  -6.328  0.00  0.00    -0.251 OA
ENDROOT
BRANCH   1   3
ATOM      3  O   UNL     1       8.169  -4.093  -5.535  0.00  0.00    -0.457 OA
BRANCH   3   4
ATOM      4  C   UNL     1       8.573  -4.372  -6.901  0.00  0.00    +0.312 C 
BRANCH   4   5
ATOM      5  C   UNL     1       9.817  -5.224  -6.893  0.00  0.00    +0.214 C 
ATOM      6  O   UNL     1      10.314  -5.563  -5.837  0.00  0.00    -0.288 OA
BRANCH   5  15
ATOM      7  C   UNL     1      15.286  -8.973  -8.766  0.00  0.00    +0.002 A 
ATOM      8  C   UNL     1      15.280  -8.967  -7.381  0.00  0.00    +0.002 A 
ATOM      9  C   UNL     1      14.294  -8.291  -6.691  0.00  0.00    +0.025 A 
ATOM     10  C   UNL     1      13.304  -7.613  -7.388  0.00  0.00    +0.054 A 
ATOM     11  C   UNL     1      13.309  -7.619  -8.785  0.00  0.00    +0.054 A 
ATOM     12  C   UNL     1      14.305  -8.302  -9.469  0.00  0.00    +0.025 A 
ATOM     13  N   UNL     1      12.215  -6.869  -9.201  0.00  0.00    -0.300 N 
ATOM     14  C   UNL     1      11.561  -6.421  -8.098  0.00  0.00    +0.114 C 
ATOM     15  C   UNL     1      10.401  -5.626  -8.106  0.00  0.00    +0.133 C 
ATOM     16  N   UNL     1      12.209  -6.856  -6.986  0.00  0.00    -0.300 N 
ATOM     17  H   UNL     1      11.961  -6.697 -10.121  0.00  0.00    +0.153 HD
ATOM     18  H   UNL     1      11.951  -6.672  -6.070  0.00  0.00    +0.153 HD
BRANCH  15  19
ATOM     19  C   UNL     1       9.815  -5.226  -9.350  0.00  0.00    +0.106 C 
ATOM     20  N   UNL     1       9.351  -4.909 -10.337  0.00  0.00    -0.191 NA
ENDBRANCH  15  19
ENDBRANCH   5  15
ENDBRANCH   4   5
ENDBRANCH   3   4
ENDBRANCH   1   3
BRANCH   1  21
ATOM     21  C   UNL     1       6.590  -3.010  -3.977  0.00  0.00    +0.125 C 
BRANCH  21  22
ATOM     22  C   UNL     1       5.330  -2.146  -4.065  0.00  0.00    +0.046 C 
BRANCH  22  23
ATOM     23  C   UNL     1       4.849  -1.815  -2.676  0.00  0.00    -0.047 A 
ATOM     24  C   UNL     1       5.305  -0.676  -2.040  0.00  0.00    +0.005 A 
ATOM     25  C   UNL     1       4.863  -0.372  -0.766  0.00  0.00    +0.029 A 
ATOM     26  C   UNL     1       3.965  -1.207  -0.128  0.00  0.00    +0.105 A 
ATOM     27  C   UNL     1       3.513  -2.349  -0.762  0.00  0.00    +0.029 A 
ATOM     28  C   UNL     1       3.951  -2.651  -2.037  0.00  0.00    +0.005 A 
BRANCH  26  29
ATOM     29  S   UNL     1       3.402  -0.819   1.496  0.00  0.00    +0.061 S 
ATOM     30  O   UNL     1       4.396   0.010   2.083  0.00  0.00    -0.153 OA
ATOM     31  O   UNL     1       2.987  -2.044   2.085  0.00  0.00    -0.153 OA
BRANCH  29  32
ATOM     32  N   UNL     1       2.043   0.113   1.334  0.00  0.00    -0.177 NA
ATOM     33  C   UNL     1       0.714  -0.508   1.262  0.00  0.00    +0.109 C 
ATOM     34  C   UNL     1       0.002  -0.004   0.002  0.00  0.00    +0.017 C 
ATOM     35  C   UNL     1      -0.019   1.526   0.010  0.00  0.00    +0.003 C 
ATOM     36  C   UNL     1       1.417   2.058  -0.000  0.00  0.00    +0.017 C 
ATOM     37  C   UNL     1       2.144   1.577   1.259  0.00  0.00    +0.109 C 
ENDBRANCH  29  32
ENDBRANCH  26  29
ENDBRANCH  22  23
ENDBRANCH  21  22
ENDBRANCH   1  21
TORSDOF 10
