REMARK  Name = ZINC10512628
REMARK  12 active torsions:
REMARK  status: ('A' for Active; 'I' for Inactive)
REMARK    1  A    between atoms: C_1  and  C_2
REMARK    2  A    between atoms: C_2  and  N_3
REMARK    3  A    between atoms: N_3  and  C_4
REMARK    4  A    between atoms: C_7  and  S_23
REMARK    5  A    between atoms: C_9  and  N_10
REMARK    6  A    between atoms: N_10  and  S_11
REMARK    7  A    between atoms: S_11  and  C_14
REMARK    8  A    between atoms: C_19  and  O_20
REMARK    9  A    between atoms: O_20  and  C_21
REMARK   10  A    between atoms: S_23  and  N_26
REMARK   11  A    between atoms: N_26  and  C_27
REMARK   12  A    between atoms: N_26  and  C_28
REMARK                            x       y       z     vdW  Elec       q    Type
REMARK                         _______ _______ _______ _____ _____    ______ ____
ROOT
ATOM      1  C   UNL     1       1.254  -0.726  -0.384  0.00  0.00    +0.050 A 
ATOM      2  C   UNL     1       2.452  -0.056  -0.586  0.00  0.00    +0.027 A 
ATOM      3  C   UNL     1       2.470   1.325  -0.639  0.00  0.00    +0.030 A 
ATOM      4  C   UNL     1       1.298   2.043  -0.491  0.00  0.00    +0.107 A 
ATOM      5  C   UNL     1       0.099   1.383  -0.290  0.00  0.00    +0.055 A 
ATOM      6  C   UNL     1       0.071  -0.003  -0.235  0.00  0.00    +0.071 A 
ENDROOT
BRANCH   4   7
ATOM      7  S   UNL     1       1.330   3.803  -0.560  0.00  0.00    +0.060 S 
ATOM      8  O   UNL     1       2.489   4.159  -1.301  0.00  0.00    -0.153 OA
ATOM      9  O   UNL     1       0.025   4.219  -0.939  0.00  0.00    -0.153 OA
BRANCH   7  10
ATOM     10  N   UNL     1       1.571   4.349   0.985  0.00  0.00    -0.183 NA
ATOM     11  C   UNL     1       2.932   4.560   1.484  0.00  0.00    +0.131 C 
ATOM     12  C   UNL     1       0.422   4.621   1.853  0.00  0.00    +0.131 C 
ENDBRANCH   7  10
ENDBRANCH   4   7
BRANCH   1  13
ATOM     13  N   UNL     1       1.233  -2.125  -0.330  0.00  0.00    -0.343 N 
ATOM     14  H   UNL     1       0.395  -2.593  -0.189  0.00  0.00    +0.146 HD
BRANCH  13  16
ATOM     15  C   UNL     1       2.178  -4.380  -0.388  0.00  0.00    +0.024 C 
ATOM     16  C   UNL     1       2.477  -2.883  -0.487  0.00  0.00    +0.098 C 
ENDBRANCH  13  16
ENDBRANCH   1  13
BRANCH   6  17
ATOM     17  N   UNL     1      -1.141  -0.673  -0.031  0.00  0.00    -0.214 N 
ATOM     18  H   UNL     1      -1.162  -1.488   0.495  0.00  0.00    +0.174 HD
BRANCH  17  19
ATOM     19  S   UNL     1      -2.539  -0.075  -0.687  0.00  0.00    +0.076 S 
ATOM     20  O   UNL     1      -2.241   0.269  -2.033  0.00  0.00    -0.150 OA
ATOM     21  O   UNL     1      -3.571  -0.989  -0.345  0.00  0.00    -0.150 OA
BRANCH  19  22
ATOM     22  C   UNL     1      -2.903   1.433   0.149  0.00  0.00    +0.151 A 
ATOM     23  C   UNL     1      -2.920   2.624  -0.550  0.00  0.00    +0.047 A 
ATOM     24  C   UNL     1      -3.210   3.808   0.104  0.00  0.00    +0.020 A 
ATOM     25  C   UNL     1      -3.474   3.802   1.463  0.00  0.00    +0.019 A 
ATOM     26  C   UNL     1      -3.453   2.614   2.167  0.00  0.00    +0.049 A 
ATOM     27  C   UNL     1      -3.167   1.425   1.511  0.00  0.00    +0.147 A 
ATOM     28 BR   UNL     1      -3.240   5.436  -0.857  0.00  0.00    -0.050 Br
BRANCH  27  29
ATOM     29  O   UNL     1      -3.144   0.255   2.201  0.00  0.00    -0.493 OA
ATOM     30  C   UNL     1      -3.309   0.335   3.619  0.00  0.00    +0.277 C 
ENDBRANCH  27  29
ENDBRANCH  19  22
ENDBRANCH  17  19
ENDBRANCH   6  17
TORSDOF 8
