REMARK  Name = ZINC01640714
REMARK  8 active torsions:
REMARK  status: ('A' for Active; 'I' for Inactive)
REMARK    1  A    between atoms: C_1  and  C_2
REMARK    2  A    between atoms: C_2  and  C_30
REMARK    3  A    between atoms: C_8  and  C_11
REMARK    4  A    between atoms: C_11  and  C_12
REMARK    5  A    between atoms: C_11  and  C_18
REMARK    6  A    between atoms: C_11  and  O_29
REMARK    7  A    between atoms: C_18  and  O_20
REMARK    8  A    between atoms: O_20  and  C_21
REMARK                            x       y       z     vdW  Elec       q    Type
REMARK                         _______ _______ _______ _____ _____    ______ ____
ROOT
ATOM      1  C   UNL     1       2.490   1.048  -0.016  0.00  0.00    +0.217 C 
ENDROOT
BRANCH   1   9
ATOM      2  C   UNL     1       5.618   4.282   1.885  0.00  0.00    +0.056 C 
ATOM      3  C   UNL     1       4.535   4.809   0.942  0.00  0.00    +0.109 C 
ATOM      4  C   UNL     1       5.117   5.080  -0.465  0.00  0.00    +0.086 C 
ATOM      5  C   UNL     1       4.839   3.771  -1.178  0.00  0.00    -0.002 A 
ATOM      6  C   UNL     1       5.328   3.233  -2.347  0.00  0.00    +0.007 A 
ATOM      7  C   UNL     1       4.900   1.986  -2.766  0.00  0.00    +0.001 A 
ATOM      8  C   UNL     1       3.982   1.284  -2.006  0.00  0.00    +0.011 A 
ATOM      9  C   UNL     1       3.489   1.822  -0.836  0.00  0.00    +0.041 A 
ATOM     10  C   UNL     1       3.907   3.082  -0.413  0.00  0.00    +0.131 A 
ATOM     11  O   UNL     1       3.545   3.797   0.687  0.00  0.00    -0.485 OA
ATOM     12  C   UNL     1       3.885   6.071   1.513  0.00  0.00    +0.056 C 
ENDBRANCH   1   9
BRANCH   1  13
ATOM     13  C   UNL     1       1.264   1.893   0.213  0.00  0.00    -0.001 A 
ATOM     14  C   UNL     1       1.170   2.683   1.344  0.00  0.00    +0.007 A 
ATOM     15  C   UNL     1       0.043   3.455   1.556  0.00  0.00    +0.000 A 
ATOM     16  C   UNL     1      -0.985   3.445   0.633  0.00  0.00    +0.000 A 
ATOM     17  C   UNL     1      -0.891   2.656  -0.498  0.00  0.00    +0.000 A 
ATOM     18  C   UNL     1       0.234   1.880  -0.708  0.00  0.00    +0.007 A 
ENDBRANCH   1  13
BRANCH   1  19
ATOM     19  C   UNL     1       3.104   0.684   1.312  0.00  0.00    +0.349 C 
ATOM     20  O   UNL     1       4.003   1.352   1.765  0.00  0.00    -0.247 OA
BRANCH  19  21
ATOM     21  O   UNL     1       2.653  -0.382   1.991  0.00  0.00    -0.460 OA
BRANCH  21  22
ATOM     22  C   UNL     1       3.291  -0.673   3.262  0.00  0.00    +0.163 C 
ATOM     23  C   UNL     1       4.469  -1.626   3.039  0.00  0.00    -0.033 C 
ATOM     24  C   UNL     1       4.173  -2.595   5.239  0.00  0.00    -0.078 C 
ATOM     25  C   UNL     1       2.987  -1.669   5.525  0.00  0.00    -0.012 C 
ATOM     26  C   UNL     1       2.282  -1.345   4.202  0.00  0.00    +0.024 C 
ATOM     27  C   UNL     1       1.816  -2.658   3.561  0.00  0.00    -0.012 C 
ATOM     28  C   UNL     1       3.035  -3.556   3.330  0.00  0.00    -0.078 C 
ATOM     29  N   UNL     1       4.267  -2.882   3.792  0.00  0.00    +0.382 N 
ATOM     30  H   UNL     1       5.068  -3.502   3.626  0.00  0.00    -0.082 HD
ENDBRANCH  21  22
ENDBRANCH  19  21
ENDBRANCH   1  19
BRANCH   1  31
ATOM     31  O   UNL     1       2.123  -0.144  -0.713  0.00  0.00    -0.370 OA
ATOM     32  H   UNL     1       2.865  -0.738  -0.895  0.00  0.00    +0.212 HD
ENDBRANCH   1  31
TORSDOF 6
