REMARK  Name = ZINC65739925
REMARK  11 active torsions:
REMARK  status: ('A' for Active; 'I' for Inactive)
REMARK    1  A    between atoms: C_1  and  C_2
REMARK    2  A    between atoms: C_2  and  C_3
REMARK    3  A    between atoms: C_2  and  C_32
REMARK    4  A    between atoms: C_2  and  O_36
REMARK    5  A    between atoms: C_9  and  O_31
REMARK    6  A    between atoms: N_15  and  C_27
REMARK    7  A    between atoms: C_22  and  O_25
REMARK    8  A    between atoms: C_27  and  C_28
REMARK    9  A    between atoms: C_32  and  C_33
REMARK   10  A    between atoms: C_32  and  C_34
REMARK   11  A    between atoms: C_32  and  C_35
REMARK                            x       y       z     vdW  Elec       q    Type
REMARK                         _______ _______ _______ _____ _____    ______ ____
ROOT
ATOM      1  C   UNL     1       0.744  -0.472   1.258  0.00  0.00    +0.057 C 
ATOM      2  C   UNL     1       0.758  -2.000   1.298  0.00  0.00    +0.015 C 
ATOM      3  C   UNL     1       2.206  -2.505   1.271  0.00  0.00    -0.027 C 
ATOM      4  C   UNL     1       2.943  -1.979   2.494  0.00  0.00    +0.009 C 
ATOM      5  C   UNL     1       2.931  -0.446   2.463  0.00  0.00    +0.039 C 
ATOM      6  C   UNL     1       2.177   0.061   1.230  0.00  0.00    +0.109 C 
ATOM      7  C   UNL     1       2.880  -0.433  -0.038  0.00  0.00    +0.216 C 
ATOM      8  C   UNL     1       2.889  -1.957   0.008  0.00  0.00    +0.042 C 
ATOM      9  C   UNL     1       4.264  -2.543  -0.194  0.00  0.00    -0.003 C 
ATOM     10  C   UNL     1       4.227  -4.071  -0.106  0.00  0.00    -0.077 C 
ATOM     11  N   UNL     1       3.617  -4.478   1.169  0.00  0.00    +0.382 N 
ATOM     12  C   UNL     1       2.208  -4.025   1.168  0.00  0.00    -0.057 C 
ATOM     13  C   UNL     1       1.556  -4.573  -0.101  0.00  0.00    +0.021 C 
ATOM     14  C   UNL     1       1.269  -3.550  -1.148  0.00  0.00    -0.041 A 
ATOM     15  C   UNL     1       1.901  -2.325  -1.059  0.00  0.00    +0.011 A 
ATOM     16  C   UNL     1       1.595  -1.197  -1.793  0.00  0.00    +0.166 A 
ATOM     17  C   UNL     1       0.734  -1.357  -2.888  0.00  0.00    +0.159 A 
ATOM     18  C   UNL     1       0.189  -2.625  -3.079  0.00  0.00    +0.049 A 
ATOM     19  C   UNL     1       0.422  -3.696  -2.229  0.00  0.00    +0.007 A 
ATOM     20  O   UNL     1       2.127  -0.091  -1.217  0.00  0.00    -0.481 OA
ATOM     21  H   UNL     1       4.112  -4.049   1.936  0.00  0.00    -0.081 HD
ENDROOT
BRANCH   1  23
ATOM     22  C   UNL     1       0.677   1.255  -0.546  0.00  0.00    +0.042 C 
ATOM     23  C   UNL     1       0.003  -0.004   0.005  0.00  0.00    +0.074 C 
BRANCH  23  24
ATOM     24  C   UNL     1      -1.452   0.311   0.360  0.00  0.00    -0.009 C 
ATOM     25  C   UNL     1      -2.193   0.783  -0.893  0.00  0.00    +0.013 C 
ATOM     26  C   UNL     1      -2.127  -0.948   0.908  0.00  0.00    +0.013 C 
ATOM     27  C   UNL     1      -1.491   1.413   1.421  0.00  0.00    +0.013 C 
ENDBRANCH  23  24
BRANCH  23  28
ATOM     28  O   UNL     1       0.039  -1.035  -0.984  0.00  0.00    -0.388 OA
ATOM     29  H   UNL     1      -0.209  -1.908  -0.651  0.00  0.00    +0.210 HD
ENDBRANCH  23  28
ENDBRANCH   1  23
BRANCH  17  30
ATOM     30  O   UNL     1       0.445  -0.324  -3.723  0.00  0.00    -0.503 OA
ATOM     31  H   UNL     1       1.049  -0.244  -4.474  0.00  0.00    +0.292 HD
ENDBRANCH  17  30
BRANCH   6  32
ATOM     32  O   UNL     1       2.155   1.490   1.241  0.00  0.00    -0.385 OA
ATOM     33  H   UNL     1       3.031   1.897   1.224  0.00  0.00    +0.210 HD
ENDBRANCH   6  32
BRANCH  11  34
ATOM     34  C   UNL     1       3.668  -5.940   1.299  0.00  0.00    -0.075 C 
BRANCH  34  35
ATOM     35  C   UNL     1       5.127  -6.393   1.389  0.00  0.00    -0.028 C 
ATOM     36  C   UNL     1       5.662  -7.282   0.264  0.00  0.00    +0.002 C 
ATOM     37  C   UNL     1       5.391  -7.878   1.647  0.00  0.00    +0.002 C 
ENDBRANCH  34  35
ENDBRANCH  11  34
TORSDOF 7
