REMARK  Name = ZINC08868791
REMARK  11 active torsions:
REMARK  status: ('A' for Active; 'I' for Inactive)
REMARK    1  A    between atoms: C_1  and  C_2
REMARK    2  A    between atoms: C_2  and  C_3
REMARK    3  A    between atoms: N_12  and  C_13
REMARK    4  A    between atoms: C_13  and  C_14
REMARK    5  A    between atoms: C_14  and  N_66
REMARK    6  A    between atoms: C_15  and  N_66
REMARK    7  A    between atoms: C_16  and  N_66
REMARK    8  A    between atoms: C_17  and  C_19
REMARK    9  A    between atoms: N_24  and  S_25
REMARK   10  A    between atoms: S_25  and  C_28
REMARK   11  A    between atoms: C_31  and  C_34
REMARK                            x       y       z     vdW  Elec       q    Type
REMARK                         _______ _______ _______ _____ _____    ______ ____
ROOT
ATOM      1  C   UNL     1       0.005   1.846  -0.966  0.00  0.00    -0.046 A 
ATOM      2  C   UNL     1      -1.018   0.912  -1.044  0.00  0.00    +0.006 A 
ATOM      3  C   UNL     1      -0.773  -0.431  -0.922  0.00  0.00    +0.029 A 
ATOM      4  C   UNL     1       0.540  -0.909  -0.711  0.00  0.00    +0.080 A 
ATOM      5  C   UNL     1       1.557   0.070  -0.636  0.00  0.00    +0.041 A 
ATOM      6  C   UNL     1       1.302   1.413  -0.760  0.00  0.00    +0.021 A 
ATOM      7  S   UNL     1       3.012  -0.915  -0.371  0.00  0.00    -0.052 S 
ATOM      8  C   UNL     1       2.207  -2.510  -0.376  0.00  0.00    +0.168 A 
ATOM      9  N   UNL     1       0.949  -2.189  -0.570  0.00  0.00    -0.224 NA
ATOM     10  N   UNL     1       2.768  -3.767  -0.216  0.00  0.00    -0.251 N 
ATOM     11  C   UNL     1       4.107  -3.904  -0.153  0.00  0.00    +0.240 C 
ATOM     12  O   UNL     1       4.601  -5.010  -0.096  0.00  0.00    -0.273 OA
ENDROOT
BRANCH  11  13
ATOM     13  C   UNL     1       4.990  -2.683  -0.153  0.00  0.00    +0.166 C 
ATOM     14  C   UNL     1       4.948  -2.005   1.233  0.00  0.00    +0.031 C 
ATOM     15  C   UNL     1       6.219  -2.558   1.930  0.00  0.00    +0.019 C 
ATOM     16  C   UNL     1       7.209  -2.651   0.742  0.00  0.00    +0.110 C 
ATOM     17  N   UNL     1       6.385  -3.075  -0.404  0.00  0.00    -0.165 NA
BRANCH  17  18
ATOM     18  S   UNL     1       6.938  -3.863  -1.752  0.00  0.00    +0.062 S 
ATOM     19  O   UNL     1       8.137  -4.524  -1.372  0.00  0.00    -0.153 OA
ATOM     20  O   UNL     1       5.827  -4.558  -2.301  0.00  0.00    -0.153 OA
BRANCH  18  21
ATOM     21  C   UNL     1       7.393  -2.631  -2.926  0.00  0.00    +0.106 A 
ATOM     22  C   UNL     1       6.462  -2.168  -3.837  0.00  0.00    +0.029 A 
ATOM     23  C   UNL     1       6.817  -1.198  -4.755  0.00  0.00    +0.005 A 
ATOM     24  C   UNL     1       8.106  -0.698  -4.770  0.00  0.00    -0.050 A 
ATOM     25  C   UNL     1       9.038  -1.165  -3.862  0.00  0.00    +0.005 A 
ATOM     26  C   UNL     1       8.681  -2.132  -2.940  0.00  0.00    +0.029 A 
ATOM     27  C   UNL     1       8.495   0.355  -5.775  0.00  0.00    +0.044 C 
ENDBRANCH  18  21
ENDBRANCH  17  18
ENDBRANCH  11  13
BRANCH   1  29
ATOM     28  C   UNL     1      -0.590   3.909   0.274  0.00  0.00    +0.009 C 
ATOM     29  C   UNL     1      -0.293   3.316  -1.105  0.00  0.00    +0.032 C 
ENDBRANCH   1  29
BRANCH  10  30
ATOM     30  C   UNL     1       1.905  -4.947  -0.115  0.00  0.00    +0.097 C 
BRANCH  30  31
ATOM     31  C   UNL     1       1.673  -5.530  -1.511  0.00  0.00    -0.060 C 
BRANCH  31  34
ATOM     32  C   UNL     1       0.281  -7.064  -2.764  0.00  0.00    -0.097 C 
ATOM     33  C   UNL     1       1.265  -7.761  -0.665  0.00  0.00    -0.097 C 
ATOM     34  N   UNL     1       0.686  -6.625  -1.412  0.00  0.00    +0.377 N 
ATOM     35  H   UNL     1      -0.142  -6.284  -0.910  0.00  0.00    -0.083 HD
ENDBRANCH  31  34
ENDBRANCH  30  31
ENDBRANCH  10  30
TORSDOF 7
