REMARK  Name = ZINC04043032
REMARK  12 active torsions:
REMARK  status: ('A' for Active; 'I' for Inactive)
REMARK    1  A    between atoms: C_1  and  C_2
REMARK    2  A    between atoms: N_4  and  C_5
REMARK    3  A    between atoms: C_8  and  N_11
REMARK    4  A    between atoms: N_11  and  C_12
REMARK    5  A    between atoms: C_12  and  C_17
REMARK    6  A    between atoms: N_21  and  C_22
REMARK    7  A    between atoms: C_22  and  C_24
REMARK    8  A    between atoms: C_22  and  C_34
REMARK    9  A    between atoms: C_25  and  C_26
REMARK   10  A    between atoms: C_34  and  C_35
REMARK   11  A    between atoms: C_34  and  C_36
REMARK   12  A    between atoms: C_34  and  C_37
REMARK                            x       y       z     vdW  Elec       q    Type
REMARK                         _______ _______ _______ _____ _____    ______ ____
ROOT
ATOM      1  C   UNL     1       0.892   8.362  -1.129  0.00  0.00    +0.175 A 
ATOM      2  N   UNL     1       1.511   9.123  -1.999  0.00  0.00    -0.111 NA
ATOM      3  N   UNL     1       2.083   8.357  -2.862  0.00  0.00    -0.023 NA
ATOM      4  N   UNL     1       1.839   7.127  -2.570  0.00  0.00    -0.043 NA
ATOM      5  N   UNL     1       1.108   7.089  -1.508  0.00  0.00    -0.220 N 
ENDROOT
BRANCH   1   6
ATOM      6  C   UNL     1       0.090   8.824   0.060  0.00  0.00    +0.093 C 
ATOM      7  C   UNL     1       0.132  10.368   0.175  0.00  0.00    +0.034 C 
ATOM      8  C   UNL     1      -1.153  10.681   0.989  0.00  0.00    +0.003 C 
ATOM      9  C   UNL     1      -2.195   9.678   0.453  0.00  0.00    +0.003 C 
ATOM     10  C   UNL     1      -1.405   8.497  -0.137  0.00  0.00    +0.034 C 
BRANCH   6  11
ATOM     11  N   UNL     1       0.593   8.204   1.288  0.00  0.00    -0.332 N 
ATOM     12  H   UNL     1      -0.009   7.704   1.861  0.00  0.00    +0.147 HD
BRANCH  11  16
ATOM     13  C   UNL     1       4.612   8.590   2.323  0.00  0.00    +0.033 A 
ATOM     14  C   UNL     1       4.108   9.278   1.227  0.00  0.00    +0.025 A 
ATOM     15  C   UNL     1       2.778   9.146   0.881  0.00  0.00    +0.025 A 
ATOM     16  C   UNL     1       1.942   8.334   1.635  0.00  0.00    +0.028 A 
ATOM     17  C   UNL     1       2.444   7.650   2.735  0.00  0.00    +0.025 A 
ATOM     18  C   UNL     1       3.776   7.779   3.078  0.00  0.00    +0.025 A 
BRANCH  13  22
ATOM     19  C   UNL     1       8.330   9.142   2.089  0.00  0.00    +0.109 C 
ATOM     20  C   UNL     1       6.893   8.891   1.711  0.00  0.00    +0.214 C 
ATOM     21  O   UNL     1       6.574   8.836   0.542  0.00  0.00    -0.276 OA
ATOM     22  N   UNL     1       5.963   8.720   2.671  0.00  0.00    -0.286 N 
ATOM     23  H   UNL     1       6.229   8.687   3.603  0.00  0.00    +0.155 HD
ENDBRANCH  13  22
ENDBRANCH  11  16
ENDBRANCH   6  11
ENDBRANCH   1   6
BRANCH   5  24
ATOM     24  C   UNL     1       0.607   5.886  -0.839  0.00  0.00    +0.139 C 
BRANCH  24  25
ATOM     25  C   UNL     1      -0.182   5.037  -1.839  0.00  0.00    -0.012 C 
ATOM     26  C   UNL     1       0.764   4.516  -2.923  0.00  0.00    +0.013 C 
ATOM     27  C   UNL     1      -0.823   3.855  -1.111  0.00  0.00    +0.013 C 
ATOM     28  C   UNL     1      -1.274   5.893  -2.483  0.00  0.00    +0.013 C 
ENDBRANCH  24  25
BRANCH  24  29
ATOM     29  C   UNL     1       1.768   5.085  -0.307  0.00  0.00    +0.001 C 
ATOM     30  C   UNL     1       1.804   4.740   0.972  0.00  0.00    +0.007 C 
BRANCH  30  31
ATOM     31  C   UNL     1       2.943   3.956   1.494  0.00  0.00    -0.007 A 
ATOM     32  C   UNL     1       3.978   3.572   0.640  0.00  0.00    +0.011 A 
ATOM     33  C   UNL     1       5.042   2.845   1.133  0.00  0.00    +0.020 A 
ATOM     34  C   UNL     1       5.078   2.485   2.470  0.00  0.00    +0.042 A 
ATOM     35  C   UNL     1       4.052   2.858   3.321  0.00  0.00    +0.040 A 
ATOM     36  C   UNL     1       2.985   3.591   2.841  0.00  0.00    +0.049 A 
ATOM     37 CL   UNL     1       1.698   4.057   3.909  0.00  0.00    -0.083 Cl
ATOM     38 CL   UNL     1       6.417   1.564   3.082  0.00  0.00    -0.083 Cl
ENDBRANCH  30  31
ENDBRANCH  24  29
ENDBRANCH   5  24
TORSDOF 8
