REMARK  Name = ZINC08798774
REMARK  13 active torsions:
REMARK  status: ('A' for Active; 'I' for Inactive)
REMARK    1  A    between atoms: C_1  and  C_2
REMARK    2  A    between atoms: C_2  and  C_3
REMARK    3  A    between atoms: C_2  and  C_4
REMARK    4  A    between atoms: C_2  and  C_5
REMARK    5  A    between atoms: C_8  and  S_11
REMARK    6  A    between atoms: S_11  and  N_14
REMARK    7  A    between atoms: N_14  and  C_15
REMARK    8  A    between atoms: C_15  and  C_16
REMARK    9  A    between atoms: C_16  and  C_18
REMARK   10  A    between atoms: C_16  and  N_65
REMARK   11  A    between atoms: N_27  and  C_28
REMARK   12  A    between atoms: C_29  and  N_65
REMARK   13  A    between atoms: C_30  and  N_65
REMARK                            x       y       z     vdW  Elec       q    Type
REMARK                         _______ _______ _______ _____ _____    ______ ____
ROOT
ATOM      1  C   UNL     1      -0.364   1.987  -1.388  0.00  0.00    +0.095 C 
ENDROOT
BRANCH   1   2
ATOM      2  N   UNL     1      -0.988   2.920  -0.446  0.00  0.00    -0.191 NA
ATOM      3  H   UNL     1      -1.731   3.474  -0.733  0.00  0.00    +0.148 HD
BRANCH   2   4
ATOM      4  S   UNL     1      -0.426   3.027   1.108  0.00  0.00    +0.058 S 
ATOM      5  O   UNL     1      -1.208   4.022   1.754  0.00  0.00    -0.153 OA
ATOM      6  O   UNL     1      -0.330   1.697   1.598  0.00  0.00    -0.153 OA
BRANCH   4  10
ATOM      7  C   UNL     1       3.799   4.637   0.896  0.00  0.00    -0.042 A 
ATOM      8  C   UNL     1       2.731   5.509   1.003  0.00  0.00    +0.006 A 
ATOM      9  C   UNL     1       1.441   5.017   1.068  0.00  0.00    +0.029 A 
ATOM     10  C   UNL     1       1.218   3.654   1.025  0.00  0.00    +0.105 A 
ATOM     11  C   UNL     1       2.286   2.782   0.923  0.00  0.00    +0.029 A 
ATOM     12  C   UNL     1       3.576   3.274   0.853  0.00  0.00    +0.006 A 
BRANCH   7  14
ATOM     13  C   UNL     1       5.510   5.977   2.091  0.00  0.00    +0.015 C 
ATOM     14  C   UNL     1       5.205   5.174   0.825  0.00  0.00    -0.013 C 
ATOM     15  C   UNL     1       6.190   4.008   0.711  0.00  0.00    +0.015 C 
ATOM     16  C   UNL     1       5.344   6.080  -0.400  0.00  0.00    +0.015 C 
ENDBRANCH   7  14
ENDBRANCH   4  10
ENDBRANCH   2   4
ENDBRANCH   1   2
BRANCH   1  17
ATOM     17  C   UNL     1      -1.335   1.691  -2.532  0.00  0.00    -0.023 C 
BRANCH  17  18
ATOM     18  C   UNL     1      -0.681   0.759  -3.519  0.00  0.00    -0.059 A 
ATOM     19  C   UNL     1      -0.971  -0.593  -3.492  0.00  0.00    +0.004 A 
ATOM     20  C   UNL     1      -0.374  -1.444  -4.397  0.00  0.00    +0.023 A 
ATOM     21  C   UNL     1       0.535  -0.951  -5.336  0.00  0.00    +0.033 A 
ATOM     22  C   UNL     1       0.824   0.402  -5.357  0.00  0.00    -0.026 A 
ATOM     23  C   UNL     1       0.215   1.252  -4.447  0.00  0.00    +0.007 A 
ATOM     24  C   UNL     1       1.788   0.999  -6.351  0.00  0.00    +0.038 C 
ATOM     25  C   UNL     1       2.623  -0.114  -6.990  0.00  0.00    +0.024 C 
ATOM     26  C   UNL     1       1.667  -1.236  -7.416  0.00  0.00    +0.105 C 
ATOM     27  N   UNL     1       1.117  -1.864  -6.214  0.00  0.00    -0.333 N 
ATOM     28  C   UNL     1       0.172  -2.933  -6.564  0.00  0.00    +0.129 C 
ENDBRANCH  17  18
BRANCH  17  31
ATOM     29  C   UNL     1      -2.224   0.165  -0.876  0.00  0.00    -0.096 C 
ATOM     30  C   UNL     1      -3.532   2.074  -1.589  0.00  0.00    -0.096 C 
ATOM     31  N   UNL     1      -2.560   1.045  -2.015  0.00  0.00    +0.381 N 
ATOM     32  H   UNL     1      -2.980   0.479  -2.762  0.00  0.00    -0.082 HD
ENDBRANCH  17  31
ENDBRANCH   1  17
TORSDOF 7
