REMARK  Name = ZINC25393164
REMARK  13 active torsions:
REMARK  status: ('A' for Active; 'I' for Inactive)
REMARK    1  A    between atoms: C_1  and  C_2
REMARK    2  A    between atoms: C_2  and  O_3
REMARK    3  A    between atoms: O_3  and  C_4
REMARK    4  A    between atoms: C_4  and  C_6
REMARK    5  A    between atoms: C_10  and  N_11
REMARK    6  A    between atoms: C_12  and  C_14
REMARK    7  A    between atoms: C_14  and  C_16
REMARK    8  A    between atoms: C_14  and  N_17
REMARK    9  A    between atoms: N_17  and  C_18
REMARK   10  A    between atoms: C_18  and  C_19
REMARK   11  A    between atoms: C_22  and  C_25
REMARK   12  A    between atoms: N_27  and  C_30
REMARK   13  A    between atoms: C_30  and  C_31
REMARK                            x       y       z     vdW  Elec       q    Type
REMARK                         _______ _______ _______ _____ _____    ______ ____
ROOT
ATOM      1  C   UNL     1      -1.301  -0.642   0.013  0.00  0.00    +0.091 A 
ATOM      2  C   UNL     1       0.002  -0.004   0.002  0.00  0.00    -0.019 A 
ATOM      3  C   UNL     1      -0.016   1.348   0.009  0.00  0.00    +0.010 A 
ATOM      4  S   UNL     1      -1.732   1.776   0.036  0.00  0.00    -0.076 S 
ATOM      5  C   UNL     1      -2.418   0.185   0.029  0.00  0.00    +0.086 A 
ATOM      6  C   UNL     1       1.176   2.253   0.003  0.00  0.00    +0.127 C 
ATOM      7  N   UNL     1       2.365   1.451   0.349  0.00  0.00    -0.293 NA
ATOM      8  C   UNL     1       2.422   0.228  -0.463  0.00  0.00    +0.090 C 
ATOM      9  C   UNL     1       1.331  -0.751  -0.017  0.00  0.00    +0.052 C 
ENDROOT
BRANCH   5  10
ATOM     10  N   UNL     1      -3.756  -0.176   0.041  0.00  0.00    -0.281 N 
ATOM     11  C   UNL     1      -4.711   0.775   0.056  0.00  0.00    +0.203 C 
ATOM     12  O   UNL     1      -4.399   1.947   0.058  0.00  0.00    -0.277 OA
ATOM     13  H   UNL     1      -4.039  -1.239   0.040  0.00  0.00    +0.155 HD
BRANCH  11  14
ATOM     14  C   UNL     1      -6.166   0.383   0.069  0.00  0.00    +0.014 C 
ATOM     15  C   UNL     1      -6.484  -0.441  -1.180  0.00  0.00    -0.004 C 
BRANCH  14  16
ATOM     16  N   UNL     1      -6.999   1.593   0.084  0.00  0.00    +0.389 N 
ATOM     17  H   UNL     1      -6.501   2.374   0.677  0.00  0.00    -0.084 HD
ATOM     18  H   UNL     1      -7.144   1.951  -0.947  0.00  0.00    -0.084 HD
BRANCH  16  19
ATOM     19  C   UNL     1      -8.315   1.319   0.676  0.00  0.00    -0.046 C 
BRANCH  19  20
ATOM     20  C   UNL     1      -9.140   2.580   0.673  0.00  0.00    -0.064 A 
ATOM     21  C   UNL     1      -9.094   3.438   1.756  0.00  0.00    +0.002 A 
ATOM     22  C   UNL     1      -9.847   4.597   1.752  0.00  0.00    +0.003 A 
ATOM     23  C   UNL     1     -10.653   4.894   0.669  0.00  0.00    -0.050 A 
ATOM     24  C   UNL     1     -10.702   4.033  -0.412  0.00  0.00    +0.003 A 
ATOM     25  C   UNL     1      -9.946   2.876  -0.410  0.00  0.00    +0.002 A 
ATOM     26  C   UNL     1     -11.478   6.155   0.666  0.00  0.00    +0.044 C 
ENDBRANCH  19  20
ENDBRANCH  16  19
ENDBRANCH  14  16
ENDBRANCH  11  14
ENDBRANCH   5  10
BRANCH   1  27
ATOM     27  C   UNL     1      -1.434  -2.100   0.009  0.00  0.00    +0.342 C 
ATOM     28  O   UNL     1      -1.478  -2.710   1.060  0.00  0.00    -0.245 OA
BRANCH  27  29
ATOM     29  O   UNL     1      -1.508  -2.767  -1.161  0.00  0.00    -0.461 OA
BRANCH  29  31
ATOM     30  C   UNL     1      -1.707  -4.788  -2.505  0.00  0.00    +0.048 C 
ATOM     31  C   UNL     1      -1.639  -4.212  -1.089  0.00  0.00    +0.229 C 
ENDBRANCH  29  31
ENDBRANCH  27  29
ENDBRANCH   1  27
BRANCH   7  32
ATOM     32  C   UNL     1       3.595   2.241   0.198  0.00  0.00    +0.120 C 
BRANCH  32  33
ATOM     33  C   UNL     1       3.609   3.349   1.219  0.00  0.00    -0.033 A 
ATOM     34  C   UNL     1       3.062   4.580   0.910  0.00  0.00    +0.005 A 
ATOM     35  C   UNL     1       3.070   5.595   1.849  0.00  0.00    +0.000 A 
ATOM     36  C   UNL     1       3.635   5.382   3.092  0.00  0.00    +0.000 A 
ATOM     37  C   UNL     1       4.187   4.152   3.399  0.00  0.00    +0.000 A 
ATOM     38  C   UNL     1       4.174   3.135   2.463  0.00  0.00    +0.005 A 
ENDBRANCH  32  33
ENDBRANCH   7  32
TORSDOF 10
