REMARK  Name = ZINC59311132
REMARK  5 active torsions:
REMARK  status: ('A' for Active; 'I' for Inactive)
REMARK    1  A    between atoms: C_4  and  N_8
REMARK    2  A    between atoms: C_9  and  C_11
REMARK    3  A    between atoms: C_11  and  S_12
REMARK    4  A    between atoms: S_12  and  C_13
REMARK    5  A    between atoms: N_18  and  N_19
REMARK                            x       y       z     vdW  Elec       q    Type
REMARK                         _______ _______ _______ _____ _____    ______ ____
ROOT
ATOM      1  C   UNL     1       6.277  -5.205   0.377  0.00  0.00    +0.211 A 
ATOM      2  N   UNL     1       6.555  -6.510   0.471  0.00  0.00    -0.186 NA
ATOM      3  C   UNL     1       7.859  -6.683   0.526  0.00  0.00    +0.232 A 
ATOM      4  N   UNL     1       8.443  -5.467   0.466  0.00  0.00    -0.245 N 
ATOM      5  N   UNL     1       7.402  -4.530   0.365  0.00  0.00    -0.144 NA
ATOM      6  N   UNL     1       8.515  -7.896   0.628  0.00  0.00    -0.205 N 
ATOM      7  H   UNL     1       9.484  -7.922   0.662  0.00  0.00    +0.177 HD
ATOM      8  H   UNL     1       9.394  -5.279   0.486  0.00  0.00    +0.192 HD
ENDROOT
BRANCH   6   9
ATOM      9  N   UNL     1       7.779  -9.088   0.682  0.00  0.00    -0.189 NA
ATOM     10  C   UNL     1       8.380 -10.202   0.874  0.00  0.00    +0.037 C 
ATOM     11  C   UNL     1       9.903 -10.255   0.941  0.00  0.00    +0.052 C 
ATOM     12  C   UNL     1      10.366 -11.217   2.001  0.00  0.00    +0.006 C 
ATOM     13  C   UNL     1      10.514 -12.623   1.404  0.00  0.00    +0.000 C 
ATOM     14  C   UNL     1       9.235 -13.330   1.299  0.00  0.00    +0.000 C 
ATOM     15  C   UNL     1       8.254 -12.640   0.341  0.00  0.00    +0.006 C 
ATOM     16  C   UNL     1       7.579 -11.489   1.045  0.00  0.00    +0.052 C 
ENDBRANCH   6   9
BRANCH   1  17
ATOM     17  S   UNL     1       4.663  -4.506   0.277  0.00  0.00    -0.075 S 
BRANCH  17  18
ATOM     18  C   UNL     1       4.964  -2.721   0.162  0.00  0.00    +0.173 C 
BRANCH  18  20
ATOM     19  N   UNL     1       3.624  -0.650  -0.026  0.00  0.00    -0.284 N 
ATOM     20  C   UNL     1       3.647  -1.995   0.069  0.00  0.00    +0.228 C 
ATOM     21  O   UNL     1       2.607  -2.620   0.079  0.00  0.00    -0.275 OA
ATOM     22  H   UNL     1       4.454  -0.156  -0.115  0.00  0.00    +0.155 HD
BRANCH  19  26
ATOM     23  C   UNL     1      -0.013   1.384   0.064  0.00  0.00    +0.021 A 
ATOM     24  C   UNL     1       1.083   1.958  -0.554  0.00  0.00    +0.023 A 
ATOM     25  C   UNL     1       2.290   1.286  -0.585  0.00  0.00    +0.062 A 
ATOM     26  C   UNL     1       2.402   0.033   0.005  0.00  0.00    +0.053 A 
ATOM     27  C   UNL     1       1.300  -0.541   0.624  0.00  0.00    +0.044 A 
ATOM     28  C   UNL     1       0.095   0.136   0.652  0.00  0.00    +0.043 A 
ATOM     29 CL   UNL     1      -1.284  -0.580   1.427  0.00  0.00    -0.083 Cl
ATOM     30 CL   UNL     1       3.666   2.007  -1.362  0.00  0.00    -0.082 Cl
ENDBRANCH  19  26
ENDBRANCH  18  20
ENDBRANCH  17  18
ENDBRANCH   1  17
TORSDOF 5
