REMARK  Name = ZINC44918603
REMARK  6 active torsions:
REMARK  status: ('A' for Active; 'I' for Inactive)
REMARK    1  A    between atoms: C_1  and  C_2
REMARK    2  A    between atoms: C_2  and  C_30
REMARK    3  A    between atoms: C_4  and  N_13
REMARK    4  A    between atoms: C_14  and  C_16
REMARK    5  A    between atoms: C_19  and  C_22
REMARK    6  A    between atoms: C_22  and  N_23
REMARK                            x       y       z     vdW  Elec       q    Type
REMARK                         _______ _______ _______ _____ _____    ______ ____
ROOT
ATOM      1  N   UNL     1      -3.410  -0.634   1.479  0.00  0.00    -0.304 N 
ATOM      2  C   UNL     1      -4.418  -0.011   2.120  0.00  0.00    +0.245 C 
ATOM      3  O   UNL     1      -4.276   1.131   2.513  0.00  0.00    -0.270 OA
ATOM      4  H   UNL     1      -3.523  -1.545   1.166  0.00  0.00    +0.150 HD
ENDROOT
BRANCH   1   8
ATOM      5  C   UNL     1      -0.019   1.526   0.010  0.00  0.00    +0.055 C 
ATOM      6  C   UNL     1       0.002  -0.004   0.002  0.00  0.00    +0.107 C 
ATOM      7  C   UNL     1      -1.435  -0.540   0.040  0.00  0.00    +0.074 C 
ATOM      8  C   UNL     1      -2.142   0.066   1.254  0.00  0.00    +0.111 C 
ATOM      9  C   UNL     1      -1.268  -0.077   2.474  0.00  0.00    +0.015 A 
ATOM     10  C   UNL     1      -1.846   0.054   3.727  0.00  0.00    +0.009 A 
ATOM     11  C   UNL     1      -1.075  -0.067   4.866  0.00  0.00    +0.001 A 
ATOM     12  C   UNL     1       0.281  -0.320   4.759  0.00  0.00    +0.004 A 
ATOM     13  C   UNL     1       0.861  -0.454   3.515  0.00  0.00    +0.046 A 
ATOM     14  C   UNL     1       0.087  -0.334   2.365  0.00  0.00    +0.126 A 
ATOM     15  O   UNL     1       0.692  -0.482   1.158  0.00  0.00    -0.486 OA
ATOM     16  C   UNL     1       0.706  -0.503  -1.262  0.00  0.00    +0.055 C 
ENDBRANCH   1   8
BRANCH   2  17
ATOM     17  C   UNL     1      -5.698  -0.717   2.347  0.00  0.00    +0.037 A 
ATOM     18  C   UNL     1      -5.862  -2.029   1.903  0.00  0.00    +0.013 A 
ATOM     19  C   UNL     1      -7.059  -2.682   2.118  0.00  0.00    +0.002 A 
ATOM     20  C   UNL     1      -8.094  -2.038   2.772  0.00  0.00    -0.064 A 
ATOM     21  C   UNL     1      -7.937  -0.737   3.215  0.00  0.00    +0.002 A 
ATOM     22  C   UNL     1      -6.744  -0.074   3.011  0.00  0.00    +0.013 A 
BRANCH  20  23
ATOM     23  C   UNL     1      -9.398  -2.757   3.003  0.00  0.00    -0.043 C 
BRANCH  23  24
ATOM     24  N   UNL     1      -9.347  -3.461   4.292  0.00  0.00    +0.382 N 
ATOM     25  C   UNL     1      -8.256  -4.453   4.247  0.00  0.00    -0.078 C 
ATOM     26  C   UNL     1      -7.806  -4.726   5.660  0.00  0.00    -0.019 C 
ATOM     27  C   UNL     1      -8.491  -5.979   6.238  0.00  0.00    -0.002 C 
ATOM     28  C   UNL     1      -9.980  -6.049   5.845  0.00  0.00    -0.002 C 
ATOM     29  C   UNL     1     -10.659  -4.705   5.927  0.00  0.00    -0.019 C 
ATOM     30  C   UNL     1     -10.599  -4.026   4.543  0.00  0.00    -0.078 C 
ATOM     31  H   UNL     1      -9.143  -2.791   5.018  0.00  0.00    -0.081 HD
ENDBRANCH  23  24
ENDBRANCH  20  23
ENDBRANCH   2  17
TORSDOF 4
