REMARK  Name = ZINC01335202
REMARK  6 active torsions:
REMARK  status: ('A' for Active; 'I' for Inactive)
REMARK    1  A    between atoms: C_1  and  C_2
REMARK    2  A    between atoms: C_9  and  C_12
REMARK    3  A    between atoms: N_15  and  S_18
REMARK    4  A    between atoms: S_18  and  C_21
REMARK    5  A    between atoms: C_24  and  C_27
REMARK    6  A    between atoms: N_29  and  C_30
REMARK                            x       y       z     vdW  Elec       q    Type
REMARK                         _______ _______ _______ _____ _____    ______ ____
ROOT
ATOM      1  S   UNL     1       2.296  -3.603  -1.091  0.00  0.00    +0.061 S 
ATOM      2  O   UNL     1       2.787  -4.285   0.056  0.00  0.00    -0.153 OA
ATOM      3  O   UNL     1       1.714  -4.287  -2.192  0.00  0.00    -0.153 OA
ENDROOT
BRANCH   1   7
ATOM      4  C   UNL     1       0.002  -0.004   0.002  0.00  0.00    +0.057 C 
ATOM      5  C   UNL     1       1.198  -0.502   0.816  0.00  0.00    +0.028 C 
ATOM      6  C   UNL     1       1.196  -2.034   0.835  0.00  0.00    +0.110 C 
ATOM      7  N   UNL     1       1.163  -2.523  -0.550  0.00  0.00    -0.177 NA
ATOM      8  C   UNL     1       0.106  -2.036  -1.447  0.00  0.00    +0.110 C 
ATOM      9  C   UNL     1       0.120  -0.504  -1.439  0.00  0.00    +0.028 C 
BRANCH   4  18
ATOM     10  C   UNL     1      -1.646   7.215   0.054  0.00  0.00    +0.044 C 
ATOM     11  C   UNL     1      -0.846   5.938   0.040  0.00  0.00    -0.048 A 
ATOM     12  C   UNL     1       0.541   5.997   0.028  0.00  0.00    +0.005 A 
ATOM     13  C   UNL     1       1.289   4.839   0.015  0.00  0.00    +0.028 A 
ATOM     14  C   UNL     1       0.650   3.607   0.015  0.00  0.00    +0.066 A 
ATOM     15  C   UNL     1      -0.754   3.548   0.028  0.00  0.00    +0.089 A 
ATOM     16  C   UNL     1      -1.492   4.735   0.040  0.00  0.00    +0.033 A 
ATOM     17  N   UNL     1      -1.095   2.234   0.019  0.00  0.00    -0.232 NA
ATOM     18  C   UNL     1      -0.018   1.503   0.010  0.00  0.00    +0.111 A 
ATOM     19  N   UNL     1       1.086   2.297   0.004  0.00  0.00    -0.342 N 
ATOM     20  H   UNL     1       2.037   1.990  -0.006  0.00  0.00    +0.167 HD
ENDBRANCH   4  18
ENDBRANCH   1   7
BRANCH   1  21
ATOM     21  C   UNL     1       3.643  -2.667  -1.735  0.00  0.00    +0.106 A 
ATOM     22  C   UNL     1       3.655  -2.306  -3.070  0.00  0.00    +0.029 A 
ATOM     23  C   UNL     1       4.703  -1.568  -3.579  0.00  0.00    +0.015 A 
ATOM     24  C   UNL     1       5.759  -1.194  -2.747  0.00  0.00    +0.037 A 
ATOM     25  C   UNL     1       5.744  -1.566  -1.401  0.00  0.00    +0.015 A 
ATOM     26  C   UNL     1       4.686  -2.300  -0.903  0.00  0.00    +0.029 A 
BRANCH  24  27
ATOM     27  C   UNL     1       6.889  -0.409  -3.287  0.00  0.00    +0.244 C 
ATOM     28  O   UNL     1       7.807  -0.086  -2.559  0.00  0.00    -0.270 OA
ATOM     29  N   UNL     1       6.901  -0.052  -4.586  0.00  0.00    -0.308 N 
ATOM     30  H   UNL     1       6.168  -0.310  -5.167  0.00  0.00    +0.149 HD
BRANCH  29  31
ATOM     31  C   UNL     1       8.021   0.727  -5.122  0.00  0.00    +0.073 C 
ATOM     32  C   UNL     1       7.775   2.215  -4.866  0.00  0.00    +0.022 C 
ATOM     33  C   UNL     1       8.945   3.028  -5.425  0.00  0.00    +0.002 C 
ATOM     34  C   UNL     1       9.063   2.782  -6.931  0.00  0.00    +0.000 C 
ATOM     35  C   UNL     1       9.309   1.293  -7.186  0.00  0.00    +0.002 C 
ATOM     36  C   UNL     1       8.139   0.480  -6.627  0.00  0.00    +0.022 C 
ENDBRANCH  29  31
ENDBRANCH  24  27
ENDBRANCH   1  21
TORSDOF 5
