REMARK  Name = ZINC39664091
REMARK  12 active torsions:
REMARK  status: ('A' for Active; 'I' for Inactive)
REMARK    1  A    between atoms: C_1  and  C_2
REMARK    2  A    between atoms: C_2  and  C_3
REMARK    3  A    between atoms: C_3  and  C_4
REMARK    4  A    between atoms: C_3  and  C_6
REMARK    5  A    between atoms: C_4  and  C_5
REMARK    6  A    between atoms: C_10  and  C_19
REMARK    7  A    between atoms: N_21  and  C_22
REMARK    8  A    between atoms: C_22  and  C_23
REMARK    9  A    between atoms: C_23  and  C_25
REMARK   10  A    between atoms: C_23  and  N_33
REMARK   11  A    between atoms: C_28  and  O_31
REMARK   12  A    between atoms: O_31  and  C_32
REMARK                            x       y       z     vdW  Elec       q    Type
REMARK                         _______ _______ _______ _____ _____    ______ ____
ROOT
ATOM      1  C   UNL     1       4.360  -1.439  -3.343  0.00  0.00    +0.218 C 
ATOM      2  O   UNL     1       4.460  -1.642  -2.151  0.00  0.00    -0.275 OA
ATOM      3  N   UNL     1       5.417  -0.976  -4.038  0.00  0.00    -0.316 N 
ATOM      4  H   UNL     1       5.317  -0.742  -4.974  0.00  0.00    +0.149 HD
ENDROOT
BRANCH   1   9
ATOM      5  C   UNL     1       0.870  -1.780  -1.158  0.00  0.00    +0.219 C 
ATOM      6  O   UNL     1       0.983  -0.694  -0.631  0.00  0.00    -0.275 OA
ATOM      7  N   UNL     1       1.319  -1.970  -2.414  0.00  0.00    -0.300 N 
ATOM      8  C   UNL     1       1.899  -0.963  -3.333  0.00  0.00    +0.121 C 
ATOM      9  C   UNL     1       3.053  -1.704  -4.046  0.00  0.00    +0.100 C 
ATOM     10  C   UNL     1       2.683  -3.193  -3.949  0.00  0.00    -0.004 C 
ATOM     11  C   UNL     1       1.351  -3.236  -3.186  0.00  0.00    +0.115 C 
ATOM     12  C   UNL     1       3.753  -3.954  -3.172  0.00  0.00    -0.010 C 
ATOM     13  C   UNL     1       3.391  -5.442  -3.139  0.00  0.00    -0.082 C 
ATOM     14  N   UNL     1       3.295  -5.955  -4.511  0.00  0.00    +0.379 N 
ATOM     15  C   UNL     1       2.202  -5.282  -5.222  0.00  0.00    -0.082 C 
ATOM     16  C   UNL     1       2.513  -3.788  -5.344  0.00  0.00    -0.010 C 
ATOM     17  H   UNL     1       4.164  -5.784  -4.994  0.00  0.00    -0.086 HD
ATOM     18  H   UNL     1       3.117  -6.948  -4.485  0.00  0.00    -0.086 HD
BRANCH   5  19
ATOM     19  C   UNL     1       0.227  -2.918  -0.407  0.00  0.00    +0.075 C 
BRANCH  19  21
ATOM     20  C   UNL     1      -0.222  -3.863   1.862  0.00  0.00    +0.004 C 
ATOM     21  C   UNL     1       0.318  -2.653   1.097  0.00  0.00    +0.009 C 
ENDBRANCH  19  21
BRANCH  19  22
ATOM     22  C   UNL     1      -1.242  -3.034  -0.817  0.00  0.00    +0.009 C 
ATOM     23  C   UNL     1      -1.330  -3.493  -2.274  0.00  0.00    +0.004 C 
ENDBRANCH  19  22
ENDBRANCH   5  19
ENDBRANCH   1   9
BRANCH   3  24
ATOM     24  C   UNL     1       6.718  -0.826  -3.380  0.00  0.00    +0.093 C 
BRANCH  24  25
ATOM     25  C   UNL     1       7.474  -2.155  -3.436  0.00  0.00    -0.020 C 
BRANCH  25  26
ATOM     26  C   UNL     1       8.778  -2.022  -2.693  0.00  0.00    -0.059 A 
ATOM     27  C   UNL     1       9.860  -1.414  -3.302  0.00  0.00    +0.005 A 
ATOM     28  C   UNL     1      11.057  -1.292  -2.623  0.00  0.00    +0.046 A 
ATOM     29  C   UNL     1      11.173  -1.779  -1.329  0.00  0.00    +0.120 A 
ATOM     30  C   UNL     1      10.085  -2.389  -0.721  0.00  0.00    +0.046 A 
ATOM     31  C   UNL     1       8.889  -2.504  -1.402  0.00  0.00    +0.005 A 
BRANCH  29  32
ATOM     32  O   UNL     1      12.349  -1.661  -0.660  0.00  0.00    -0.495 OA
ATOM     33  C   UNL     1      12.396  -2.185   0.669  0.00  0.00    +0.277 C 
ENDBRANCH  29  32
ENDBRANCH  25  26
BRANCH  25  34
ATOM     34  N   UNL     1       7.742  -2.507  -4.837  0.00  0.00    +0.385 N 
ATOM     35  C   UNL     1       8.523  -3.769  -4.907  0.00  0.00    -0.078 C 
ATOM     36  C   UNL     1       8.236  -4.284  -6.340  0.00  0.00    -0.020 C 
ATOM     37  C   UNL     1       6.750  -3.914  -6.549  0.00  0.00    -0.020 C 
ATOM     38  C   UNL     1       6.473  -2.779  -5.546  0.00  0.00    -0.078 C 
ATOM     39  H   UNL     1       8.243  -1.761  -5.294  0.00  0.00    -0.081 HD
ENDBRANCH  25  34
ENDBRANCH  24  25
ENDBRANCH   3  24
TORSDOF 9
