REMARK  Name = ZINC21548614
REMARK  7 active torsions:
REMARK  status: ('A' for Active; 'I' for Inactive)
REMARK    1  A    between atoms: C_1  and  C_2
REMARK    2  A    between atoms: C_9  and  N_13
REMARK    3  A    between atoms: C_10  and  C_11
REMARK    4  A    between atoms: C_14  and  C_16
REMARK    5  A    between atoms: C_16  and  N_17
REMARK    6  A    between atoms: N_20  and  C_23
REMARK    7  A    between atoms: C_23  and  C_24
REMARK                            x       y       z     vdW  Elec       q    Type
REMARK                         _______ _______ _______ _____ _____    ______ ____
ROOT
ATOM      1  C   UNL     1       2.624  -7.488   3.399  0.00  0.00    +0.180 C 
ENDROOT
BRANCH   1   2
ATOM      2  N   UNL     1       2.916  -7.509   4.839  0.00  0.00    -0.298 NA
ATOM      3  C   UNL     1       4.122  -6.726   5.143  0.00  0.00    +0.066 C 
ATOM      4  C   UNL     1       4.357  -6.724   6.655  0.00  0.00    -0.063 C 
ATOM      5  N   UNL     1       4.516  -8.106   7.129  0.00  0.00    +0.384 N 
ATOM      6  C   UNL     1       3.294  -8.868   6.840  0.00  0.00    -0.063 C 
ATOM      7  C   UNL     1       3.050  -8.888   5.329  0.00  0.00    +0.066 C 
ATOM      8  H   UNL     1       5.298  -8.534   6.658  0.00  0.00    -0.081 HD
BRANCH   5   9
ATOM      9  C   UNL     1       4.759  -8.102   8.577  0.00  0.00    -0.043 C 
BRANCH   9  10
ATOM     10  C   UNL     1       5.044  -9.507   9.043  0.00  0.00    -0.060 A 
ATOM     11  C   UNL     1       4.004 -10.323   9.447  0.00  0.00    +0.005 A 
ATOM     12  C   UNL     1       4.260 -11.613   9.874  0.00  0.00    +0.050 A 
ATOM     13  C   UNL     1       5.561 -12.090   9.898  0.00  0.00    +0.166 A 
ATOM     14  C   UNL     1       6.608 -11.267   9.491  0.00  0.00    +0.166 A 
ATOM     15  C   UNL     1       6.343  -9.978   9.059  0.00  0.00    +0.051 A 
ATOM     16  O   UNL     1       7.778 -11.961   9.606  0.00  0.00    -0.453 OA
ATOM     17  C   UNL     1       7.482 -13.073  10.472  0.00  0.00    +0.466 C 
ATOM     18  O   UNL     1       6.075 -13.299  10.269  0.00  0.00    -0.453 OA
ENDBRANCH   9  10
ENDBRANCH   5   9
ENDBRANCH   1   2
BRANCH   1  20
ATOM     19  N   UNL     1       1.941  -5.828   1.697  0.00  0.00    -0.278 N 
ATOM     20  C   UNL     1       2.252  -6.088   2.983  0.00  0.00    +0.232 C 
ATOM     21  O   UNL     1       2.232  -5.196   3.804  0.00  0.00    -0.274 OA
ATOM     22  H   UNL     1       1.957  -6.541   1.040  0.00  0.00    +0.155 HD
BRANCH  19  30
ATOM     23  C   UNL     1      -0.019   1.526   0.010  0.00  0.00    +0.008 C 
ATOM     24  C   UNL     1       0.002  -0.004   0.002  0.00  0.00    -0.009 C 
ATOM     25  C   UNL     1       0.724  -0.500  -1.254  0.00  0.00    +0.008 C 
ATOM     26  C   UNL     1       0.537  -2.012  -1.399  0.00  0.00    +0.037 C 
ATOM     27  C   UNL     1       0.935  -2.680  -0.092  0.00  0.00    -0.018 A 
ATOM     28  C   UNL     1       1.019  -1.977   1.059  0.00  0.00    -0.004 A 
ATOM     29  S   UNL     1       1.508  -3.165   2.275  0.00  0.00    -0.077 S 
ATOM     30  C   UNL     1       1.599  -4.539   1.313  0.00  0.00    +0.090 A 
ATOM     31  C   UNL     1       1.254  -4.090   0.049  0.00  0.00    +0.084 A 
ATOM     32  C   UNL     1       0.750  -0.515   1.242  0.00  0.00    +0.046 C 
BRANCH  31  33
ATOM     33  C   UNL     1       1.212  -4.980  -1.072  0.00  0.00    +0.102 C 
ATOM     34  N   UNL     1       1.180  -5.685  -1.962  0.00  0.00    -0.191 NA
ENDBRANCH  31  33
ENDBRANCH  19  30
ENDBRANCH   1  20
TORSDOF 6
