REMARK  Name = ZINC21171199
REMARK  12 active torsions:
REMARK  status: ('A' for Active; 'I' for Inactive)
REMARK    1  A    between atoms: C_1  and  C_2
REMARK    2  A    between atoms: C_2  and  C_4
REMARK    3  A    between atoms: C_2  and  O_14
REMARK    4  A    between atoms: N_6  and  C_7
REMARK    5  A    between atoms: C_7  and  C_8
REMARK    6  A    between atoms: C_7  and  C_9
REMARK    7  A    between atoms: C_7  and  C_11
REMARK    8  A    between atoms: C_11  and  C_12
REMARK    9  A    between atoms: C_11  and  C_13
REMARK   10  A    between atoms: O_14  and  C_15
REMARK   11  A    between atoms: C_15  and  C_17
REMARK   12  A    between atoms: C_20  and  N_23
REMARK                            x       y       z     vdW  Elec       q    Type
REMARK                         _______ _______ _______ _____ _____    ______ ____
ROOT
ATOM      1  C   UNL     1      -3.282  -1.227   1.305  0.00  0.00    +0.059 A 
ATOM      2  C   UNL     1      -4.234  -0.838   0.358  0.00  0.00    +0.017 A 
ATOM      3  C   UNL     1      -5.523  -1.317   0.443  0.00  0.00    +0.025 A 
ATOM      4  C   UNL     1      -5.877  -2.187   1.469  0.00  0.00    +0.045 A 
ATOM      5  C   UNL     1      -4.932  -2.576   2.413  0.00  0.00    +0.025 A 
ATOM      6  C   UNL     1      -3.640  -2.106   2.331  0.00  0.00    +0.017 A 
ENDROOT
BRANCH   4   7
ATOM      7  N   UNL     1      -7.184  -2.670   1.552  0.00  0.00    -0.202 N 
ATOM      8  C   UNL     1      -8.089  -1.974   2.266  0.00  0.00    +0.258 C 
ATOM      9  O   UNL     1      -7.758  -0.944   2.822  0.00  0.00    -0.269 OA
ATOM     10  C   UNL     1      -9.475  -2.450   2.376  0.00  0.00    +0.046 A 
ATOM     11  C   UNL     1     -10.440  -1.764   3.100  0.00  0.00    +0.014 A 
ATOM     12  C   UNL     1     -11.737  -2.256   3.175  0.00  0.00    +0.001 A 
ATOM     13  C   UNL     1     -12.101  -3.413   2.548  0.00  0.00    +0.008 A 
ATOM     14  C   UNL     1     -11.155  -4.139   1.804  0.00  0.00    -0.016 A 
ATOM     15  C   UNL     1      -9.834  -3.650   1.720  0.00  0.00    +0.006 A 
ATOM     16  C   UNL     1      -8.859  -4.357   0.980  0.00  0.00    +0.046 A 
ATOM     17  C   UNL     1      -9.221  -5.533   0.340  0.00  0.00    +0.014 A 
ATOM     18  C   UNL     1     -10.526  -6.003   0.429  0.00  0.00    +0.001 A 
ATOM     19  C   UNL     1     -11.480  -5.334   1.141  0.00  0.00    +0.008 A 
ATOM     20  C   UNL     1      -7.495  -3.813   0.911  0.00  0.00    +0.258 C 
ATOM     21  O   UNL     1      -6.641  -4.401   0.276  0.00  0.00    -0.269 OA
ENDBRANCH   4   7
BRANCH   1  22
ATOM     22  C   UNL     1      -1.901  -0.717   1.217  0.00  0.00    +0.340 C 
ATOM     23  O   UNL     1      -1.073  -1.060   2.037  0.00  0.00    -0.245 OA
BRANCH  22  24
ATOM     24  O   UNL     1      -1.558   0.130   0.227  0.00  0.00    -0.449 OA
BRANCH  24  26
ATOM     25  C   UNL     1      -0.081   1.867   1.027  0.00  0.00    +0.062 C 
ATOM     26  C   UNL     1      -0.203   0.585   0.202  0.00  0.00    +0.259 C 
BRANCH  26  27
ATOM     27  C   UNL     1       0.209   0.861  -1.221  0.00  0.00    +0.255 C 
ATOM     28  O   UNL     1      -0.605   0.773  -2.115  0.00  0.00    -0.272 OA
ATOM     29  N   UNL     1       1.482   1.205  -1.499  0.00  0.00    -0.294 N 
ATOM     30  H   UNL     1       2.133   1.275  -0.783  0.00  0.00    +0.150 HD
BRANCH  29  31
ATOM     31  C   UNL     1       1.882   1.474  -2.882  0.00  0.00    +0.121 C 
ATOM     32  C   UNL     1       1.055   2.636  -3.436  0.00  0.00    +0.048 C 
BRANCH  31  33
ATOM     33  C   UNL     1       3.367   1.840  -2.922  0.00  0.00    +0.020 C 
ATOM     34  C   UNL     1       4.202   0.634  -2.486  0.00  0.00    +0.010 C 
ATOM     35  C   UNL     1       3.756   2.241  -4.346  0.00  0.00    +0.010 C 
ENDBRANCH  31  33
BRANCH  31  36
ATOM     36  C   UNL     1       1.651   0.273  -3.702  0.00  0.00    +0.088 C 
ATOM     37  N   UNL     1       1.473  -0.653  -4.335  0.00  0.00    -0.194 NA
ENDBRANCH  31  36
ENDBRANCH  29  31
ENDBRANCH  26  27
ENDBRANCH  24  26
ENDBRANCH  22  24
ENDBRANCH   1  22
TORSDOF 8
