REMARK  Name = ZINC21234071
REMARK  12 active torsions:
REMARK  status: ('A' for Active; 'I' for Inactive)
REMARK    1  A    between atoms: C_1  and  C_2
REMARK    2  A    between atoms: C_2  and  O_3
REMARK    3  A    between atoms: O_3  and  C_4
REMARK    4  A    between atoms: C_6  and  C_14
REMARK    5  A    between atoms: C_9  and  O_10
REMARK    6  A    between atoms: O_10  and  C_11
REMARK    7  A    between atoms: C_11  and  C_13
REMARK    8  A    between atoms: C_19  and  C_24
REMARK    9  A    between atoms: C_27  and  O_32
REMARK   10  A    between atoms: C_28  and  O_30
REMARK   11  A    between atoms: O_30  and  C_31
REMARK   12  A    between atoms: O_32  and  C_33
REMARK                            x       y       z     vdW  Elec       q    Type
REMARK                         _______ _______ _______ _____ _____    ______ ____
ROOT
ATOM      1  C   UNL     1      -5.706  -1.878   0.097  0.00  0.00    +0.136 C 
ATOM      2  C   UNL     1      -4.437  -1.078  -0.075  0.00  0.00    +0.036 C 
ATOM      3  C   UNL     1      -3.890  -0.709  -1.246  0.00  0.00    +0.017 C 
ATOM      4  C   UNL     1      -2.600   0.094  -1.274  0.00  0.00    +0.059 C 
ATOM      5  C   UNL     1      -2.532   1.012  -0.055  0.00  0.00    +0.032 C 
ATOM      6  C   UNL     1      -2.581   0.129   1.198  0.00  0.00    +0.088 C 
ATOM      7  C   UNL     1      -3.826  -0.706   1.146  0.00  0.00    +0.163 C 
ATOM      8  O   UNL     1      -4.327  -1.075   2.189  0.00  0.00    -0.292 OA
ATOM      9  N   UNL     1      -4.399  -1.011  -2.467  0.00  0.00    -0.316 N 
ATOM     10  C   UNL     1      -5.735  -0.874  -2.827  0.00  0.00    +0.052 A 
ATOM     11  C   UNL     1      -6.152   0.022  -3.796  0.00  0.00    +0.025 A 
ATOM     12  C   UNL     1      -7.492   0.074  -4.139  0.00  0.00    +0.002 A 
ATOM     13  C   UNL     1      -8.404  -0.764  -3.524  0.00  0.00    +0.002 A 
ATOM     14  C   UNL     1      -7.990  -1.648  -2.542  0.00  0.00    +0.025 A 
ATOM     15  C   UNL     1      -6.654  -1.686  -2.180  0.00  0.00    +0.049 A 
ATOM     16  N   UNL     1      -6.209  -2.477  -1.121  0.00  0.00    -0.331 N 
ATOM     17  H   UNL     1      -3.739  -1.397  -3.258  0.00  0.00    +0.152 HD
ATOM     18  H   UNL     1      -6.245  -3.572  -1.222  0.00  0.00    +0.147 HD
ENDROOT
BRANCH   1  21
ATOM     19  C   UNL     1      -8.283  -0.386   2.423  0.00  0.00    +0.163 A 
ATOM     20  C   UNL     1      -7.304  -1.220   1.907  0.00  0.00    +0.055 A 
ATOM     21  C   UNL     1      -6.771  -0.970   0.656  0.00  0.00    -0.019 A 
ATOM     22  C   UNL     1      -7.207   0.116  -0.080  0.00  0.00    +0.009 A 
ATOM     23  C   UNL     1      -8.188   0.949   0.426  0.00  0.00    +0.050 A 
ATOM     24  C   UNL     1      -8.727   0.704   1.679  0.00  0.00    +0.173 A 
BRANCH  19  25
ATOM     25  O   UNL     1      -8.809  -0.632   3.652  0.00  0.00    -0.489 OA
BRANCH  25  27
ATOM     26  C   UNL     1      -9.011  -1.882   5.710  0.00  0.00    +0.048 C 
ATOM     27  C   UNL     1      -8.306  -1.768   4.358  0.00  0.00    +0.226 C 
ENDBRANCH  25  27
ENDBRANCH  19  25
BRANCH  24  28
ATOM     28  O   UNL     1      -9.687   1.525   2.181  0.00  0.00    -0.422 OA
BRANCH  28  29
ATOM     29  C   UNL     1      -9.292   2.461   3.058  0.00  0.00    +0.309 C 
ATOM     30  O   UNL     1      -8.117   2.601   3.304  0.00  0.00    -0.251 OA
ATOM     31  C   UNL     1     -10.313   3.337   3.737  0.00  0.00    +0.136 C 
ENDBRANCH  28  29
ENDBRANCH  24  28
ENDBRANCH   1  21
BRANCH   5  32
ATOM     32  C   UNL     1      -1.245   1.796  -0.077  0.00  0.00    -0.040 A 
ATOM     33  C   UNL     1      -0.033   1.131  -0.095  0.00  0.00    +0.008 A 
ATOM     34  C   UNL     1       1.150   1.846  -0.121  0.00  0.00    +0.049 A 
ATOM     35  C   UNL     1       1.123   3.231  -0.123  0.00  0.00    +0.161 A 
ATOM     36  C   UNL     1      -0.097   3.900  -0.100  0.00  0.00    +0.162 A 
ATOM     37  C   UNL     1      -1.279   3.178  -0.074  0.00  0.00    +0.053 A 
BRANCH  36  38
ATOM     38  O   UNL     1      -0.129   5.260  -0.102  0.00  0.00    -0.491 OA
ATOM     39  C   UNL     1      -1.417   5.879  -0.077  0.00  0.00    +0.277 C 
ENDBRANCH  36  38
BRANCH  35  40
ATOM     40  O   UNL     1       2.286   3.936  -0.149  0.00  0.00    -0.491 OA
ATOM     41  C   UNL     1       3.500   3.183  -0.173  0.00  0.00    +0.277 C 
ENDBRANCH  35  40
ENDBRANCH   5  32
TORSDOF 8
