REMARK  Name = ZINC40332821
REMARK  6 active torsions:
REMARK  status: ('A' for Active; 'I' for Inactive)
REMARK    1  A    between atoms: C_3  and  C_9
REMARK    2  A    between atoms: C_4  and  N_8
REMARK    3  A    between atoms: C_6  and  N_7
REMARK    4  A    between atoms: N_11  and  C_12
REMARK    5  A    between atoms: N_11  and  C_19
REMARK    6  A    between atoms: C_12  and  C_13
REMARK                            x       y       z     vdW  Elec       q    Type
REMARK                         _______ _______ _______ _____ _____    ______ ____
ROOT
ATOM      1  C   UNL     1       6.957   1.560   1.989  0.00  0.00    +0.023 A 
ATOM      2  C   UNL     1       5.743   2.080   1.646  0.00  0.00    +0.017 A 
ATOM      3  C   UNL     1       5.100   1.654   0.479  0.00  0.00    +0.058 A 
ATOM      4  C   UNL     1       5.711   0.687  -0.340  0.00  0.00    +0.039 A 
ATOM      5  C   UNL     1       6.944   0.167   0.019  0.00  0.00    +0.046 A 
ATOM      6  C   UNL     1       7.567   0.602   1.181  0.00  0.00    +0.026 A 
ENDROOT
BRANCH   6   7
ATOM      7  N   UNL     1       8.805   0.079   1.541  0.00  0.00    -0.358 N 
ATOM      8  H   UNL     1       9.242   0.382   2.352  0.00  0.00    +0.142 HD
ATOM      9  H   UNL     1       9.231  -0.588   0.980  0.00  0.00    +0.142 HD
ENDBRANCH   6   7
BRANCH   4  10
ATOM     10  N   UNL     1       5.081   0.257  -1.501  0.00  0.00    -0.357 N 
ATOM     11  H   UNL     1       4.255   0.676  -1.789  0.00  0.00    +0.142 HD
ATOM     12  H   UNL     1       5.468  -0.463  -2.023  0.00  0.00    +0.142 HD
ENDBRANCH   4  10
BRANCH   3  13
ATOM     13  C   UNL     1       3.791   2.214   0.110  0.00  0.00    +0.249 C 
ATOM     14  O   UNL     1       2.853   1.472  -0.114  0.00  0.00    -0.270 OA
ATOM     15  N   UNL     1       3.630   3.549   0.020  0.00  0.00    -0.294 N 
BRANCH  15  16
ATOM     16  C   UNL     1       2.300   4.112  -0.228  0.00  0.00    +0.076 C 
ATOM     17  C   UNL     1       1.093   3.201   0.004  0.00  0.00    +0.024 C 
ATOM     18  C   UNL     1       1.513   3.565  -1.421  0.00  0.00    +0.024 C 
ENDBRANCH  15  16
BRANCH  15  19
ATOM     19  C   UNL     1       4.785   4.438   0.171  0.00  0.00    +0.114 C 
BRANCH  19  20
ATOM     20  C   UNL     1       5.333   4.800  -1.211  0.00  0.00    +0.034 C 
ATOM     21  C   UNL     1       6.608   5.677  -1.087  0.00  0.00    +0.035 C 
ATOM     22  C   UNL     1       7.345   5.313  -2.401  0.00  0.00    +0.160 C 
ATOM     23  O   UNL     1       7.078   3.916  -2.606  0.00  0.00    -0.379 OA
ATOM     24  C   UNL     1       5.861   3.546  -1.940  0.00  0.00    +0.165 C 
ENDBRANCH  19  20
ENDBRANCH  15  19
ENDBRANCH   3  13
TORSDOF 6
