REMARK  Name = ZINC31045273
REMARK  8 active torsions:
REMARK  status: ('A' for Active; 'I' for Inactive)
REMARK    1  A    between atoms: C_4  and  N_16
REMARK    2  A    between atoms: C_5  and  C_7
REMARK    3  A    between atoms: N_9  and  C_10
REMARK    4  A    between atoms: C_10  and  C_11
REMARK    5  A    between atoms: C_17  and  C_19
REMARK    6  A    between atoms: N_24  and  C_26
REMARK    7  A    between atoms: C_26  and  C_27
REMARK    8  A    between atoms: C_29  and  C_32
REMARK                            x       y       z     vdW  Elec       q    Type
REMARK                         _______ _______ _______ _____ _____    ______ ____
ROOT
ATOM      1  N   UNL     1       2.566   7.639  -4.077  0.00  0.00    -0.285 N 
ATOM      2  C   UNL     1       2.331   7.019  -2.904  0.00  0.00    +0.219 C 
ATOM      3  O   UNL     1       2.244   7.666  -1.882  0.00  0.00    -0.275 OA
ATOM      4  H   UNL     1       2.735   7.047  -4.988  0.00  0.00    +0.155 HD
ENDROOT
BRANCH   2   5
ATOM      5  C   UNL     1       2.175   5.520  -2.862  0.00  0.00    +0.059 C 
ATOM      6  C   UNL     1       0.991   5.105  -3.739  0.00  0.00    +0.009 C 
ATOM      7  C   UNL     1       0.802   3.588  -3.644  0.00  0.00    -0.018 C 
ATOM      8  C   UNL     1       0.584   3.197  -2.180  0.00  0.00    -0.078 C 
ATOM      9  N   UNL     1       1.744   3.616  -1.383  0.00  0.00    +0.386 N 
ATOM     10  C   UNL     1       1.917   5.073  -1.421  0.00  0.00    -0.065 C 
ATOM     11  H   UNL     1       2.640   3.160  -1.830  0.00  0.00    -0.081 HD
BRANCH   9  12
ATOM     12  C   UNL     1       1.633   3.135   0.001  0.00  0.00    +0.022 C 
BRANCH  12  13
ATOM     13  C   UNL     1       1.214   1.687  -0.003  0.00  0.00    +0.211 A 
ATOM     14  N   UNL     1       2.010   0.647  -0.025  0.00  0.00    -0.193 NA
ATOM     15  C   UNL     1       1.196  -0.433  -0.019  0.00  0.00    +0.202 A 
ATOM     16  N   UNL     1      -0.034   0.010   0.006  0.00  0.00    -0.056 NA
ATOM     17  O   UNL     1      -0.039   1.223   0.015  0.00  0.00    -0.340 OA
BRANCH  15  18
ATOM     18  C   UNL     1       1.620  -1.855  -0.036  0.00  0.00    +0.023 A 
ATOM     19  C   UNL     1       2.975  -2.181  -0.068  0.00  0.00    +0.013 A 
ATOM     20  C   UNL     1       3.364  -3.505  -0.077  0.00  0.00    +0.021 A 
ATOM     21  C   UNL     1       2.410  -4.509  -0.069  0.00  0.00    +0.041 A 
ATOM     22  C   UNL     1       1.063  -4.190  -0.044  0.00  0.00    +0.021 A 
ATOM     23  C   UNL     1       0.664  -2.869  -0.028  0.00  0.00    +0.013 A 
ATOM     24 CL   UNL     1       2.906  -6.172  -0.089  0.00  0.00    -0.084 Cl
ENDBRANCH  15  18
ENDBRANCH  12  13
ENDBRANCH   9  12
ENDBRANCH   2   5
BRANCH   1  28
ATOM     25  C   UNL     1       2.653  11.805  -4.249  0.00  0.00    +0.001 A 
ATOM     26  C   UNL     1       1.933  11.162  -3.255  0.00  0.00    +0.002 A 
ATOM     27  C   UNL     1       1.902   9.783  -3.196  0.00  0.00    +0.024 A 
ATOM     28  C   UNL     1       2.595   9.031  -4.135  0.00  0.00    +0.046 A 
ATOM     29  C   UNL     1       3.330   9.679  -5.138  0.00  0.00    +0.058 A 
ATOM     30  C   UNL     1       3.347  11.075  -5.189  0.00  0.00    +0.015 A 
BRANCH  29  31
ATOM     31  C   UNL     1       4.076   8.891  -6.138  0.00  0.00    +0.246 C 
ATOM     32  O   UNL     1       3.983   7.679  -6.149  0.00  0.00    -0.270 OA
ATOM     33  N   UNL     1       4.861   9.515  -7.039  0.00  0.00    -0.304 N 
ATOM     34  H   UNL     1       4.945  10.612  -7.029  0.00  0.00    +0.149 HD
BRANCH  33  35
ATOM     35  C   UNL     1       5.602   8.733  -8.031  0.00  0.00    +0.179 C 
BRANCH  35  36
ATOM     36  C   UNL     1       6.396   9.662  -8.912  0.00  0.00    +0.122 A 
ATOM     37  C   UNL     1       7.656  10.076  -8.686  0.00  0.00    +0.046 A 
ATOM     38  C   UNL     1       8.005  10.931  -9.756  0.00  0.00    +0.041 A 
ATOM     39  C   UNL     1       6.938  10.988 -10.573  0.00  0.00    +0.195 A 
ATOM     40  O   UNL     1       5.968  10.213 -10.060  0.00  0.00    -0.466 OA
ENDBRANCH  35  36
ENDBRANCH  33  35
ENDBRANCH  29  31
ENDBRANCH   1  28
TORSDOF 8
