REMARK  Name = ZINC32986275
REMARK  9 active torsions:
REMARK  status: ('A' for Active; 'I' for Inactive)
REMARK    1  A    between atoms: C_1  and  C_2
REMARK    2  A    between atoms: C_2  and  C_3
REMARK    3  A    between atoms: C_2  and  N_4
REMARK    4  A    between atoms: C_5  and  C_7
REMARK    5  A    between atoms: C_17  and  S_18
REMARK    6  A    between atoms: S_18  and  C_19
REMARK    7  A    between atoms: C_19  and  C_20
REMARK    8  A    between atoms: N_27  and  C_30
REMARK    9  A    between atoms: C_30  and  C_31
REMARK                            x       y       z     vdW  Elec       q    Type
REMARK                         _______ _______ _______ _____ _____    ______ ____
ROOT
ATOM      1  C   UNL     1      -1.235   3.148   0.033  0.00  0.00    +0.039 A 
ATOM      2  C   UNL     1      -1.213   1.750   0.017  0.00  0.00    +0.014 A 
ATOM      3  C   UNL     1      -0.013   1.076   0.008  0.00  0.00    +0.016 A 
ATOM      4  C   UNL     1       1.184   1.791   0.000  0.00  0.00    +0.064 A 
ATOM      5  C   UNL     1       1.167   3.194   0.008  0.00  0.00    +0.065 A 
ATOM      6  C   UNL     1      -0.043   3.868   0.024  0.00  0.00    +0.040 A 
ATOM      7  N   UNL     1       2.375   3.891   0.000  0.00  0.00    -0.256 N 
ATOM      8  C   UNL     1       3.566   3.220  -0.016  0.00  0.00    +0.240 A 
ATOM      9  N   UNL     1       4.531   4.113  -0.021  0.00  0.00    -0.109 NA
ATOM     10  N   UNL     1       3.946   5.385  -0.008  0.00  0.00    -0.120 NA
ATOM     11  C   UNL     1       2.644   5.233   0.004  0.00  0.00    +0.198 A 
ATOM     12  N   UNL     1       3.617   1.834  -0.024  0.00  0.00    -0.272 N 
ATOM     13  C   UNL     1       2.487   1.097  -0.016  0.00  0.00    +0.263 A 
ATOM     14  O   UNL     1       2.541  -0.117  -0.023  0.00  0.00    -0.267 OA
ENDROOT
BRANCH   1  16
ATOM     15  N   UNL     1      -3.685   3.170   0.059  0.00  0.00    -0.309 N 
ATOM     16  C   UNL     1      -2.530   3.865   0.050  0.00  0.00    +0.244 C 
ATOM     17  O   UNL     1      -2.552   5.080   0.058  0.00  0.00    -0.270 OA
ATOM     18  H   UNL     1      -3.665   2.070   0.052  0.00  0.00    +0.149 HD
BRANCH  15  20
ATOM     19  C   UNL     1      -6.053   2.986  -0.527  0.00  0.00    +0.027 C 
ATOM     20  C   UNL     1      -4.967   3.880   0.076  0.00  0.00    +0.067 C 
ATOM     21  C   UNL     1      -5.337   4.228   1.519  0.00  0.00    +0.027 C 
ENDBRANCH  15  20
ENDBRANCH   1  16
BRANCH  11  22
ATOM     22  S   UNL     1       1.451   6.529   0.024  0.00  0.00    -0.081 S 
BRANCH  22  23
ATOM     23  C   UNL     1       2.448   8.044   0.022  0.00  0.00    +0.112 C 
BRANCH  23  24
ATOM     24  C   UNL     1       1.538   9.245   0.038  0.00  0.00    -0.036 A 
ATOM     25  C   UNL     1       1.132   9.789   1.243  0.00  0.00    +0.004 A 
ATOM     26  C   UNL     1       0.298  10.891   1.259  0.00  0.00    +0.002 A 
ATOM     27  C   UNL     1      -0.132  11.450   0.070  0.00  0.00    +0.020 A 
ATOM     28  C   UNL     1       0.274  10.906  -1.136  0.00  0.00    +0.041 A 
ATOM     29  C   UNL     1       1.113   9.806  -1.151  0.00  0.00    +0.024 A 
ATOM     30 CL   UNL     1      -0.265  11.608  -2.630  0.00  0.00    -0.084 Cl
ENDBRANCH  23  24
ENDBRANCH  22  23
ENDBRANCH  11  22
BRANCH  12  31
ATOM     31  C   UNL     1       4.917   1.160  -0.041  0.00  0.00    +0.163 C 
BRANCH  31  32
ATOM     32  C   UNL     1       5.349   0.937  -1.467  0.00  0.00    -0.028 A 
ATOM     33  C   UNL     1       5.000  -0.230  -2.120  0.00  0.00    +0.005 A 
ATOM     34  C   UNL     1       5.392  -0.433  -3.431  0.00  0.00    +0.000 A 
ATOM     35  C   UNL     1       6.141   0.528  -4.084  0.00  0.00    +0.000 A 
ATOM     36  C   UNL     1       6.494   1.693  -3.430  0.00  0.00    +0.000 A 
ATOM     37  C   UNL     1       6.097   1.898  -2.121  0.00  0.00    +0.005 A 
ENDBRANCH  31  32
ENDBRANCH  12  31
TORSDOF 7
