REMARK  Name = ZINC34835360
REMARK  16 active torsions:
REMARK  status: ('A' for Active; 'I' for Inactive)
REMARK    1  A    between atoms: C_1  and  C_2
REMARK    2  A    between atoms: C_2  and  C_3
REMARK    3  A    between atoms: C_6  and  C_9
REMARK    4  A    between atoms: N_11  and  C_12
REMARK    5  A    between atoms: N_11  and  C_36
REMARK    6  A    between atoms: C_12  and  C_13
REMARK    7  A    between atoms: C_14  and  C_34
REMARK    8  A    between atoms: N_16  and  C_27
REMARK    9  A    between atoms: C_17  and  N_18
REMARK   10  A    between atoms: N_21  and  C_24
REMARK   11  A    between atoms: C_24  and  C_25
REMARK   12  A    between atoms: C_24  and  C_26
REMARK   13  A    between atoms: C_34  and  C_35
REMARK   14  A    between atoms: C_36  and  C_37
REMARK   15  A    between atoms: C_37  and  C_38
REMARK   16  A    between atoms: C_37  and  C_39
REMARK                            x       y       z     vdW  Elec       q    Type
REMARK                         _______ _______ _______ _____ _____    ______ ____
ROOT
ATOM      1  C   UNL     1      -5.518  -1.742  -0.167  0.00  0.00    +0.033 A 
ATOM      2  C   UNL     1      -5.111  -1.183   1.048  0.00  0.00    +0.070 A 
ATOM      3  N   UNL     1      -4.516  -0.044   0.802  0.00  0.00    -0.169 NA
ATOM      4  N   UNL     1      -4.519   0.168  -0.582  0.00  0.00    -0.218 N 
ATOM      5  C   UNL     1      -5.139  -0.895  -1.164  0.00  0.00    +0.130 A 
ENDROOT
BRANCH   5   6
ATOM      6  N   UNL     1      -5.349  -1.081  -2.527  0.00  0.00    -0.318 N 
ATOM      7  C   UNL     1      -6.162  -0.133  -3.304  0.00  0.00    +0.088 C 
ATOM      8  C   UNL     1      -5.369   0.281  -4.548  0.00  0.00    -0.059 C 
ATOM      9  N   UNL     1      -4.964  -0.918  -5.290  0.00  0.00    +0.383 N 
ATOM     10  C   UNL     1      -4.037  -1.719  -4.480  0.00  0.00    -0.059 C 
ATOM     11  C   UNL     1      -4.759  -2.229  -3.234  0.00  0.00    +0.088 C 
ATOM     12  H   UNL     1      -5.780  -1.470  -5.508  0.00  0.00    -0.081 HD
BRANCH   9  13
ATOM     13  C   UNL     1      -4.300  -0.519  -6.539  0.00  0.00    -0.075 C 
ATOM     14  C   UNL     1      -3.877  -1.768  -7.314  0.00  0.00    -0.014 C 
ATOM     15  C   UNL     1      -5.268   0.306  -7.389  0.00  0.00    -0.014 C 
ENDBRANCH   9  13
ENDBRANCH   5   6
BRANCH   4  16
ATOM     16  C   UNL     1      -3.977   1.275  -1.250  0.00  0.00    +0.068 A 
ATOM     17  C   UNL     1      -3.262   1.096  -2.427  0.00  0.00    +0.030 A 
ATOM     18  C   UNL     1      -2.729   2.188  -3.083  0.00  0.00    +0.040 A 
ATOM     19  C   UNL     1      -2.907   3.461  -2.569  0.00  0.00    +0.124 A 
ATOM     20  C   UNL     1      -3.619   3.642  -1.395  0.00  0.00    +0.040 A 
ATOM     21  C   UNL     1      -4.159   2.553  -0.739  0.00  0.00    +0.030 A 
ATOM     22  F   UNL     1      -2.384   4.528  -3.212  0.00  0.00    -0.205 F 
ENDBRANCH   4  16
BRANCH   2  23
ATOM     23  C   UNL     1      -5.324  -1.790   2.411  0.00  0.00    +0.054 C 
ATOM     24  C   UNL     1      -4.077  -2.579   2.818  0.00  0.00    +0.010 C 
ENDBRANCH   2  23
BRANCH   1  25
ATOM     25  C   UNL     1      -6.242  -3.052  -0.343  0.00  0.00    +0.148 C 
BRANCH  25  28
ATOM     26  C   UNL     1      -8.405  -2.597  -1.369  0.00  0.00    +0.247 C 
ATOM     27  O   UNL     1      -7.872  -2.666  -2.459  0.00  0.00    -0.270 OA
ATOM     28  N   UNL     1      -7.686  -2.828  -0.252  0.00  0.00    -0.293 N 
BRANCH  26  32
ATOM     29  C   UNL     1     -12.530  -1.629  -1.079  0.00  0.00    -0.048 A 
ATOM     30  C   UNL     1     -11.709  -0.899  -1.920  0.00  0.00    +0.004 A 
ATOM     31  C   UNL     1     -10.368  -1.208  -2.018  0.00  0.00    +0.013 A 
ATOM     32  C   UNL     1      -9.841  -2.260  -1.268  0.00  0.00    +0.037 A 
ATOM     33  C   UNL     1     -10.675  -2.993  -0.422  0.00  0.00    +0.013 A 
ATOM     34  C   UNL     1     -12.013  -2.669  -0.328  0.00  0.00    +0.004 A 
BRANCH  29  36
ATOM     35  C   UNL     1     -14.199  -0.250   0.131  0.00  0.00    +0.009 C 
ATOM     36  C   UNL     1     -13.994  -1.286  -0.977  0.00  0.00    +0.032 C 
ENDBRANCH  29  36
ENDBRANCH  26  32
BRANCH  28  37
ATOM     37  C   UNL     1      -8.351  -2.854   1.054  0.00  0.00    +0.111 C 
BRANCH  37  38
ATOM     38  C   UNL     1      -7.983  -4.146   1.787  0.00  0.00    +0.000 C 
ATOM     39  C   UNL     1      -8.564  -4.112   3.202  0.00  0.00    +0.009 C 
ATOM     40  C   UNL     1      -8.558  -5.344   1.028  0.00  0.00    +0.009 C 
ENDBRANCH  37  38
ENDBRANCH  28  37
ENDBRANCH  25  28
ENDBRANCH   1  25
TORSDOF 10
