REMARK  Name = ZINC36630117
REMARK  5 active torsions:
REMARK  status: ('A' for Active; 'I' for Inactive)
REMARK    1  A    between atoms: C_1  and  C_2
REMARK    2  A    between atoms: C_5  and  S_8
REMARK    3  A    between atoms: S_8  and  N_11
REMARK    4  A    between atoms: C_15  and  C_18
REMARK    5  A    between atoms: C_24  and  C_26
REMARK                            x       y       z     vdW  Elec       q    Type
REMARK                         _______ _______ _______ _____ _____    ______ ____
ROOT
ATOM      1  N   UNL     1       1.651  -4.999  -0.034  0.00  0.00    -0.176 NA
ATOM      2  C   UNL     1       2.364  -5.199  -1.304  0.00  0.00    +0.109 C 
ATOM      3  C   UNL     1       2.984  -6.599  -1.306  0.00  0.00    +0.018 C 
ATOM      4  C   UNL     1       3.858  -6.767  -0.061  0.00  0.00    +0.015 C 
ATOM      5  C   UNL     1       2.995  -6.624   1.194  0.00  0.00    +0.091 C 
ATOM      6  C   UNL     1       2.376  -5.218   1.225  0.00  0.00    +0.122 C 
ENDROOT
BRANCH   5   7
ATOM      7  C   UNL     1       3.850  -6.823   2.419  0.00  0.00    +0.225 C 
ATOM      8  O   UNL     1       3.952  -5.934   3.238  0.00  0.00    -0.275 OA
ATOM      9  N   UNL     1       4.502  -7.988   2.604  0.00  0.00    -0.238 N 
ATOM     10  C   UNL     1       5.290  -8.171   3.731  0.00  0.00    +0.314 A 
ATOM     11  N   UNL     1       5.481  -7.301   4.691  0.00  0.00    -0.092 NA
ATOM     12  N   UNL     1       6.267  -7.805   5.577  0.00  0.00    -0.106 NA
ATOM     13  C   UNL     1       6.609  -9.019   5.215  0.00  0.00    +0.252 A 
ATOM     14  O   UNL     1       5.993  -9.278   4.041  0.00  0.00    -0.405 OA
ATOM     15  H   UNL     1       4.420  -8.698   1.949  0.00  0.00    +0.159 HD
BRANCH  13  16
ATOM     16  C   UNL     1       7.498  -9.936   5.957  0.00  0.00    +0.065 A 
ATOM     17  C   UNL     1       8.089  -9.549   7.210  0.00  0.00    +0.042 A 
ATOM     18  C   UNL     1       8.893 -10.435   7.837  0.00  0.00    +0.080 A 
ATOM     19  S   UNL     1       8.872 -11.837   6.736  0.00  0.00    -0.064 S 
ATOM     20  C   UNL     1       7.785 -11.187   5.480  0.00  0.00    +0.092 A 
ATOM     21 CL   UNL     1       7.232 -11.948   4.021  0.00  0.00    -0.075 Cl
ATOM     22 CL   UNL     1       9.737 -10.254   9.343  0.00  0.00    -0.076 Cl
ENDBRANCH  13  16
ENDBRANCH   5   7
BRANCH   1  23
ATOM     23  S   UNL     1       0.063  -4.530  -0.023  0.00  0.00    +0.061 S 
ATOM     24  O   UNL     1      -0.476  -4.950   1.223  0.00  0.00    -0.153 OA
ATOM     25  O   UNL     1      -0.490  -4.937  -1.267  0.00  0.00    -0.153 OA
BRANCH  23  30
ATOM     26  C   UNL     1      -0.018   1.503   0.010  0.00  0.00    +0.044 C 
ATOM     27  C   UNL     1       0.002  -0.004   0.002  0.00  0.00    -0.050 A 
ATOM     28  C   UNL     1       0.006  -0.689  -1.199  0.00  0.00    +0.005 A 
ATOM     29  C   UNL     1       0.025  -2.071  -1.206  0.00  0.00    +0.029 A 
ATOM     30  C   UNL     1       0.040  -2.768  -0.013  0.00  0.00    +0.105 A 
ATOM     31  C   UNL     1       0.037  -2.084   1.188  0.00  0.00    +0.029 A 
ATOM     32  C   UNL     1       0.023  -0.702   1.195  0.00  0.00    +0.005 A 
ENDBRANCH  23  30
ENDBRANCH   1  23
TORSDOF 4
