REMARK  Name = ZINC35807162
REMARK  6 active torsions:
REMARK  status: ('A' for Active; 'I' for Inactive)
REMARK    1  A    between atoms: C_1  and  C_2
REMARK    2  A    between atoms: C_2  and  O_3
REMARK    3  A    between atoms: O_3  and  C_4
REMARK    4  A    between atoms: C_9  and  C_10
REMARK    5  A    between atoms: C_10  and  C_12
REMARK    6  A    between atoms: C_33  and  C_40
REMARK                            x       y       z     vdW  Elec       q    Type
REMARK                         _______ _______ _______ _____ _____    ______ ____
ROOT
ATOM      1  C   UNL     1       2.672  -2.001  -4.689  0.00  0.00    +0.066 C 
ATOM      2  C   UNL     1       4.174  -2.176  -4.429  0.00  0.00    -0.055 C 
ATOM      3  C   UNL     1       4.555  -3.664  -4.459  0.00  0.00    -0.016 C 
ATOM      4  C   UNL     1       5.710  -3.750  -5.485  0.00  0.00    -0.020 C 
ATOM      5  C   UNL     1       5.392  -2.566  -6.435  0.00  0.00    -0.076 C 
ATOM      6  N   UNL     1       4.912  -1.505  -5.523  0.00  0.00    +0.395 N 
ATOM      7  C   UNL     1       3.977  -0.605  -6.209  0.00  0.00    +0.060 C 
ATOM      8  C   UNL     1       2.562  -1.096  -5.918  0.00  0.00    +0.085 C 
ATOM      9  C   UNL     1       1.987  -1.888  -7.067  0.00  0.00    -0.011 A 
ATOM     10  C   UNL     1       2.306  -3.098  -7.639  0.00  0.00    +0.006 A 
ATOM     11  C   UNL     1       1.589  -3.567  -8.726  0.00  0.00    +0.000 A 
ATOM     12  C   UNL     1       0.532  -2.826  -9.223  0.00  0.00    +0.002 A 
ATOM     13  C   UNL     1       0.183  -1.631  -8.630  0.00  0.00    +0.023 A 
ATOM     14  C   UNL     1       0.899  -1.157  -7.533  0.00  0.00    +0.038 A 
ATOM     15  N   UNL     1       0.703  -0.030  -6.736  0.00  0.00    -0.285 N 
ATOM     16  C   UNL     1       1.617   0.059  -5.745  0.00  0.00    +0.228 C 
ATOM     17  O   UNL     1       1.645   0.947  -4.919  0.00  0.00    -0.275 OA
ATOM     18  C   UNL     1       4.181   0.803  -5.694  0.00  0.00    -0.026 A 
ATOM     19  C   UNL     1       4.171   1.354  -4.433  0.00  0.00    +0.008 A 
ATOM     20  C   UNL     1       4.388   2.711  -4.268  0.00  0.00    -0.050 A 
ATOM     21  C   UNL     1       4.626   3.508  -5.372  0.00  0.00    +0.005 A 
ATOM     22  C   UNL     1       4.655   2.956  -6.636  0.00  0.00    +0.024 A 
ATOM     23  C   UNL     1       4.442   1.589  -6.809  0.00  0.00    +0.036 A 
ATOM     24  N   UNL     1       4.463   0.800  -7.958  0.00  0.00    -0.286 N 
ATOM     25  C   UNL     1       4.238  -0.501  -7.685  0.00  0.00    +0.212 C 
ATOM     26  O   UNL     1       4.245  -1.394  -8.507  0.00  0.00    -0.277 OA
ATOM     27  C   UNL     1       4.367   3.317  -2.888  0.00  0.00    +0.044 C 
ATOM     28  H   UNL     1      -0.004   0.619  -6.874  0.00  0.00    +0.155 HD
ATOM     29  H   UNL     1       4.619   1.144  -8.851  0.00  0.00    +0.155 HD
ATOM     30  H   UNL     1       5.697  -0.978  -5.144  0.00  0.00    -0.079 HD
ENDROOT
BRANCH   1  31
ATOM     31  C   UNL     1       1.984  -1.433  -3.482  0.00  0.00    +0.169 C 
ATOM     32  O   UNL     1       2.608  -0.760  -2.689  0.00  0.00    -0.292 OA
BRANCH  31  38
ATOM     33  C   UNL     1      -0.092  -1.165  -2.132  0.00  0.00    +0.131 A 
ATOM     34  C   UNL     1      -1.443  -1.413  -1.938  0.00  0.00    +0.046 A 
ATOM     35  C   UNL     1      -2.143  -2.181  -2.846  0.00  0.00    +0.004 A 
ATOM     36  C   UNL     1      -1.507  -2.710  -3.958  0.00  0.00    +0.001 A 
ATOM     37  C   UNL     1      -0.167  -2.475  -4.169  0.00  0.00    +0.015 A 
ATOM     38  C   UNL     1       0.556  -1.694  -3.260  0.00  0.00    +0.059 A 
BRANCH  33  39
ATOM     39  O   UNL     1       0.598  -0.411  -1.240  0.00  0.00    -0.492 OA
BRANCH  39  41
ATOM     40  C   UNL     1       0.809   0.912   0.770  0.00  0.00    +0.048 C 
ATOM     41  C   UNL     1      -0.129   0.092  -0.117  0.00  0.00    +0.226 C 
ENDBRANCH  39  41
ENDBRANCH  33  39
ENDBRANCH  31  38
ENDBRANCH   1  31
TORSDOF 4
