REMARK  Name = ZINC15557300
REMARK  10 active torsions:
REMARK  status: ('A' for Active; 'I' for Inactive)
REMARK    1  A    between atoms: C_1  and  C_2
REMARK    2  A    between atoms: C_2  and  N_3
REMARK    3  A    between atoms: N_3  and  C_4
REMARK    4  A    between atoms: N_3  and  S_6
REMARK    5  A    between atoms: C_4  and  C_5
REMARK    6  A    between atoms: S_6  and  C_9
REMARK    7  A    between atoms: C_13  and  C_15
REMARK    8  A    between atoms: N_17  and  N_18
REMARK    9  A    between atoms: C_19  and  C_21
REMARK   10  A    between atoms: C_28  and  C_31
REMARK                            x       y       z     vdW  Elec       q    Type
REMARK                         _______ _______ _______ _____ _____    ______ ____
ROOT
ATOM      1  C   UNL     1       2.419   3.941  -0.001  0.00  0.00    +0.262 C 
ATOM      2  O   UNL     1       3.483   3.352  -0.014  0.00  0.00    -0.269 OA
ATOM      3  N   UNL     1       2.394   5.288   0.006  0.00  0.00    -0.230 N 
ATOM      4  H   UNL     1       1.546   5.757   0.017  0.00  0.00    +0.173 HD
ENDROOT
BRANCH   1   9
ATOM      5  C   UNL     1      -1.248   3.133   0.030  0.00  0.00    +0.106 A 
ATOM      6  C   UNL     1      -1.220   1.749   0.017  0.00  0.00    +0.030 A 
ATOM      7  C   UNL     1      -0.013   1.076   0.008  0.00  0.00    +0.022 A 
ATOM      8  C   UNL     1       1.175   1.781   0.000  0.00  0.00    +0.053 A 
ATOM      9  C   UNL     1       1.153   3.178   0.008  0.00  0.00    +0.058 A 
ATOM     10  C   UNL     1      -0.070   3.851   0.022  0.00  0.00    +0.043 A 
ATOM     11 CL   UNL     1       2.691   0.935  -0.018  0.00  0.00    -0.083 Cl
BRANCH   5  12
ATOM     12  S   UNL     1      -2.793   3.981   0.048  0.00  0.00    +0.061 S 
ATOM     13  O   UNL     1      -3.743   3.082   0.603  0.00  0.00    -0.153 OA
ATOM     14  O   UNL     1      -2.545   5.265   0.603  0.00  0.00    -0.153 OA
BRANCH  12  15
ATOM     15  N   UNL     1      -3.236   4.224  -1.529  0.00  0.00    -0.177 NA
BRANCH  15  17
ATOM     16  C   UNL     1      -5.522   3.598  -2.133  0.00  0.00    +0.022 C 
ATOM     17  C   UNL     1      -4.043   3.219  -2.226  0.00  0.00    +0.106 C 
ENDBRANCH  15  17
BRANCH  15  18
ATOM     18  C   UNL     1      -2.822   5.444  -2.227  0.00  0.00    +0.106 C 
ATOM     19  C   UNL     1      -1.538   5.171  -3.012  0.00  0.00    +0.022 C 
ENDBRANCH  15  18
ENDBRANCH  12  15
ENDBRANCH   5  12
ENDBRANCH   1   9
BRANCH   3  20
ATOM     20  N   UNL     1       3.595   6.011  -0.002  0.00  0.00    -0.230 N 
ATOM     21  C   UNL     1       3.570   7.358   0.005  0.00  0.00    +0.267 C 
ATOM     22  O   UNL     1       2.505   7.947   0.018  0.00  0.00    -0.268 OA
ATOM     23  H   UNL     1       4.443   5.541  -0.013  0.00  0.00    +0.173 HD
BRANCH  21  24
ATOM     24  C   UNL     1       4.826   8.114  -0.003  0.00  0.00    +0.076 A 
ATOM     25  C   UNL     1       5.019   9.483  -0.004  0.00  0.00    +0.024 A 
ATOM     26  C   UNL     1       6.320   9.960  -0.009  0.00  0.00    -0.036 A 
ATOM     27  C   UNL     1       7.317   9.027  -0.024  0.00  0.00    -0.006 A 
ATOM     28  S   UNL     1       6.504   7.508  -0.023  0.00  0.00    -0.088 S 
ATOM     29  C   UNL     1       8.793   9.283  -0.038  0.00  0.00    +0.043 C 
ATOM     30  C   UNL     1       9.026  10.754  -0.409  0.00  0.00    +0.009 C 
ATOM     31  C   UNL     1       8.104  11.629   0.445  0.00  0.00    -0.009 C 
ATOM     32  C   UNL     1       6.653  11.450  -0.003  0.00  0.00    +0.039 C 
ATOM     33  C   UNL     1       8.507  13.097   0.288  0.00  0.00    +0.008 C 
ENDBRANCH  21  24
ENDBRANCH   3  20
TORSDOF 7
