REMARK  Name = ZINC21232330
REMARK  10 active torsions:
REMARK  status: ('A' for Active; 'I' for Inactive)
REMARK    1  A    between atoms: C_1  and  C_2
REMARK    2  A    between atoms: C_2  and  O_3
REMARK    3  A    between atoms: O_3  and  C_4
REMARK    4  A    between atoms: C_7  and  C_12
REMARK    5  A    between atoms: C_9  and  O_10
REMARK    6  A    between atoms: O_10  and  C_11
REMARK    7  A    between atoms: C_17  and  C_23
REMARK    8  A    between atoms: C_25  and  O_31
REMARK    9  A    between atoms: C_26  and  O_30
REMARK   10  A    between atoms: O_31  and  C_32
REMARK                            x       y       z     vdW  Elec       q    Type
REMARK                         _______ _______ _______ _____ _____    ______ ____
ROOT
ATOM      1  C   UNL     1      -0.013   1.086   0.008  0.00  0.00    +0.032 C 
ATOM      2  C   UNL     1      -0.733   1.597  -1.242  0.00  0.00    +0.059 C 
ATOM      3  C   UNL     1       0.010   1.144  -2.474  0.00  0.00    +0.018 C 
ATOM      4  C   UNL     1       1.348   0.971  -2.451  0.00  0.00    +0.020 C 
ATOM      5  C   UNL     1       2.072   0.529  -3.701  0.00  0.00    +0.063 C 
ATOM      6  C   UNL     1       1.183  -0.434  -4.489  0.00  0.00    +0.109 C 
ATOM      7  C   UNL     1      -0.197   0.158  -4.615  0.00  0.00    +0.218 C 
ATOM      8  O   UNL     1      -0.854  -0.048  -5.613  0.00  0.00    -0.275 OA
ATOM      9  N   UNL     1      -0.701   0.915  -3.625  0.00  0.00    -0.289 N 
ATOM     10  C   UNL     1       2.094   1.193  -1.281  0.00  0.00    +0.162 C 
ATOM     11  O   UNL     1       3.299   1.038  -1.302  0.00  0.00    -0.292 OA
ATOM     12  C   UNL     1       1.423   1.620  -0.003  0.00  0.00    +0.088 C 
ATOM     13  H   UNL     1      -1.702   1.353  -3.750  0.00  0.00    +0.155 HD
ENDROOT
BRANCH   5  14
ATOM     14  C   UNL     1       2.387   1.732  -4.552  0.00  0.00    -0.034 A 
ATOM     15  C   UNL     1       3.700   2.035  -4.859  0.00  0.00    +0.053 A 
ATOM     16  C   UNL     1       3.992   3.140  -5.641  0.00  0.00    +0.163 A 
ATOM     17  C   UNL     1       2.961   3.944  -6.117  0.00  0.00    +0.177 A 
ATOM     18  C   UNL     1       1.645   3.635  -5.806  0.00  0.00    +0.086 A 
ATOM     19  C   UNL     1       1.361   2.526  -5.028  0.00  0.00    +0.028 A 
ATOM     20 CL   UNL     1       0.355   4.636  -6.396  0.00  0.00    -0.080 Cl
BRANCH  17  21
ATOM     21  O   UNL     1       3.242   5.031  -6.885  0.00  0.00    -0.502 OA
ATOM     22  H   UNL     1       2.426   5.666  -7.260  0.00  0.00    +0.292 HD
ENDBRANCH  17  21
BRANCH  16  23
ATOM     23  O   UNL     1       5.284   3.439  -5.944  0.00  0.00    -0.491 OA
ATOM     24  C   UNL     1       6.290   2.570  -5.421  0.00  0.00    +0.277 C 
ENDBRANCH  16  23
ENDBRANCH   5  14
BRANCH   1  28
ATOM     25  C   UNL     1      -2.034   2.481   3.509  0.00  0.00    +0.162 A 
ATOM     26  C   UNL     1      -1.519   3.386   2.596  0.00  0.00    +0.050 A 
ATOM     27  C   UNL     1      -0.867   2.933   1.465  0.00  0.00    +0.008 A 
ATOM     28  C   UNL     1      -0.725   1.575   1.242  0.00  0.00    -0.040 A 
ATOM     29  C   UNL     1      -1.241   0.666   2.147  0.00  0.00    +0.053 A 
ATOM     30  C   UNL     1      -1.892   1.115   3.285  0.00  0.00    +0.162 A 
BRANCH  30  31
ATOM     31  O   UNL     1      -2.395   0.222   4.179  0.00  0.00    -0.491 OA
ATOM     32  C   UNL     1      -2.212  -1.165   3.884  0.00  0.00    +0.277 C 
ENDBRANCH  30  31
BRANCH  25  33
ATOM     33  O   UNL     1      -2.677   2.926   4.622  0.00  0.00    -0.489 OA
BRANCH  33  35
ATOM     34  C   UNL     1      -3.533   4.648   6.085  0.00  0.00    +0.048 C 
ATOM     35  C   UNL     1      -2.785   4.341   4.786  0.00  0.00    +0.226 C 
ENDBRANCH  33  35
ENDBRANCH  25  33
ENDBRANCH   1  28
TORSDOF 7
