REMARK  Name = ZINC15985786
REMARK  5 active torsions:
REMARK  status: ('A' for Active; 'I' for Inactive)
REMARK    1  A    between atoms: C_6  and  S_7
REMARK    2  A    between atoms: S_7  and  C_8
REMARK    3  A    between atoms: C_8  and  C_9
REMARK    4  A    between atoms: N_11  and  N_12
REMARK    5  A    between atoms: C_13  and  C_15
REMARK                            x       y       z     vdW  Elec       q    Type
REMARK                         _______ _______ _______ _____ _____    ______ ____
ROOT
ATOM      1  C   UNL     1       3.041   5.808   0.003  0.00  0.00    +0.239 C 
ATOM      2  O   UNL     1       2.045   6.501   0.016  0.00  0.00    -0.273 OA
ATOM      3  N   UNL     1       4.260   6.381  -0.005  0.00  0.00    -0.233 N 
ATOM      4  H   UNL     1       5.056   5.827  -0.015  0.00  0.00    +0.173 HD
ENDROOT
BRANCH   3   5
ATOM      5  N   UNL     1       4.378   7.777   0.001  0.00  0.00    -0.230 N 
ATOM      6  C   UNL     1       5.598   8.351  -0.008  0.00  0.00    +0.262 C 
ATOM      7  O   UNL     1       6.596   7.656  -0.021  0.00  0.00    -0.269 OA
ATOM      8  H   UNL     1       3.582   8.331   0.011  0.00  0.00    +0.173 HD
BRANCH   6   9
ATOM      9  C   UNL     1       5.723   9.823  -0.002  0.00  0.00    +0.058 A 
ATOM     10  C   UNL     1       4.579  10.623   0.007  0.00  0.00    +0.034 A 
ATOM     11  C   UNL     1       4.702  11.998   0.019  0.00  0.00    +0.042 A 
ATOM     12  C   UNL     1       5.958  12.584   0.010  0.00  0.00    +0.021 A 
ATOM     13  C   UNL     1       7.095  11.798  -0.004  0.00  0.00    +0.022 A 
ATOM     14  C   UNL     1       6.986  10.420  -0.010  0.00  0.00    +0.053 A 
ATOM     15 CL   UNL     1       8.414   9.434  -0.028  0.00  0.00    -0.083 Cl
ATOM     16 CL   UNL     1       3.281  12.995   0.036  0.00  0.00    -0.084 Cl
ENDBRANCH   6   9
ENDBRANCH   3   5
BRANCH   1  17
ATOM     17  C   UNL     1       2.914   4.307  -0.003  0.00  0.00    +0.171 C 
BRANCH  17  18
ATOM     18  S   UNL     1       1.159   3.848   0.011  0.00  0.00    -0.116 S 
BRANCH  18  24
ATOM     19  C   UNL     1      -0.017   1.377   0.010  0.00  0.00    +0.016 A 
ATOM     20  C   UNL     1       0.002  -0.004   0.002  0.00  0.00    +0.016 A 
ATOM     21  C   UNL     1       1.209  -0.681  -0.013  0.00  0.00    +0.018 A 
ATOM     22  C   UNL     1       2.400   0.023  -0.021  0.00  0.00    +0.016 A 
ATOM     23  C   UNL     1       2.388   1.403  -0.013  0.00  0.00    +0.016 A 
ATOM     24  C   UNL     1       1.178   2.086   0.002  0.00  0.00    +0.008 A 
ATOM     25 BR   UNL     1       1.230  -2.572  -0.023  0.00  0.00    -0.050 Br
ENDBRANCH  18  24
ENDBRANCH  17  18
ENDBRANCH   1  17
TORSDOF 5
