REMARK  Name = ZINC43193535
REMARK  15 active torsions:
REMARK  status: ('A' for Active; 'I' for Inactive)
REMARK    1  A    between atoms: C_1  and  C_2
REMARK    2  A    between atoms: C_4  and  C_30
REMARK    3  A    between atoms: C_7  and  C_20
REMARK    4  A    between atoms: C_10  and  C_11
REMARK    5  A    between atoms: C_10  and  O_19
REMARK    6  A    between atoms: C_16  and  O_17
REMARK    7  A    between atoms: O_17  and  C_18
REMARK    8  A    between atoms: C_22  and  O_28
REMARK    9  A    between atoms: C_25  and  O_26
REMARK   10  A    between atoms: O_26  and  C_27
REMARK   11  A    between atoms: O_28  and  C_29
REMARK   12  A    between atoms: C_32  and  O_38
REMARK   13  A    between atoms: C_35  and  O_36
REMARK   14  A    between atoms: O_36  and  C_37
REMARK   15  A    between atoms: O_38  and  C_39
REMARK                            x       y       z     vdW  Elec       q    Type
REMARK                         _______ _______ _______ _____ _____    ______ ____
ROOT
ATOM      1  C   UNL     1      -0.219   1.436   0.484  0.00  0.00    +0.009 C 
ATOM      2  C   UNL     1      -0.099  -0.076   0.289  0.00  0.00    +0.012 C 
ATOM      3  C   UNL     1      -1.492  -0.681   0.109  0.00  0.00    -0.030 C 
ATOM      4  N   UNL     1      -2.307  -0.406   1.299  0.00  0.00    +0.389 N 
ATOM      5  C   UNL     1      -1.713  -1.061   2.471  0.00  0.00    -0.033 C 
ATOM      6  C   UNL     1      -0.328  -0.471   2.742  0.00  0.00    +0.029 C 
ATOM      7  C   UNL     1       0.568  -0.699   1.520  0.00  0.00    +0.094 C 
ATOM      8  H   UNL     1      -2.346   0.590   1.455  0.00  0.00    -0.084 HD
ATOM      9  H   UNL     1      -3.241  -0.760   1.155  0.00  0.00    -0.084 HD
ENDROOT
BRANCH   7  10
ATOM     10  C   UNL     1       1.909  -0.052   1.748  0.00  0.00    +0.026 A 
ATOM     11  C   UNL     1       2.216   0.486   2.983  0.00  0.00    +0.010 A 
ATOM     12  C   UNL     1       3.447   1.081   3.193  0.00  0.00    +0.001 A 
ATOM     13  C   UNL     1       4.373   1.138   2.168  0.00  0.00    +0.004 A 
ATOM     14  C   UNL     1       4.072   0.602   0.932  0.00  0.00    +0.046 A 
ATOM     15  C   UNL     1       2.839  -0.000   0.720  0.00  0.00    +0.126 A 
BRANCH  15  16
ATOM     16  O   UNL     1       2.542  -0.534  -0.494  0.00  0.00    -0.495 OA
ATOM     17  C   UNL     1       3.491  -0.329  -1.542  0.00  0.00    +0.277 C 
ENDBRANCH  15  16
ENDBRANCH   7  10
BRANCH   5  18
ATOM     18  C   UNL     1      -2.596  -0.838   3.671  0.00  0.00    -0.016 A 
ATOM     19  C   UNL     1      -3.515   0.194   3.671  0.00  0.00    +0.051 A 
ATOM     20  C   UNL     1      -4.328   0.398   4.775  0.00  0.00    +0.121 A 
ATOM     21  C   UNL     1      -4.220  -0.433   5.880  0.00  0.00    +0.049 A 
ATOM     22  C   UNL     1      -3.301  -1.465   5.881  0.00  0.00    +0.049 A 
ATOM     23  C   UNL     1      -2.491  -1.673   4.774  0.00  0.00    +0.122 A 
BRANCH  23  24
ATOM     24  O   UNL     1      -1.591  -2.692   4.772  0.00  0.00    -0.495 OA
ATOM     25  C   UNL     1      -1.537  -3.512   5.941  0.00  0.00    +0.277 C 
ENDBRANCH  23  24
BRANCH  20  26
ATOM     26  O   UNL     1      -5.232   1.414   4.775  0.00  0.00    -0.495 OA
ATOM     27  C   UNL     1      -6.037   1.567   5.946  0.00  0.00    +0.277 C 
ENDBRANCH  20  26
ENDBRANCH   5  18
BRANCH   3  28
ATOM     28  C   UNL     1      -1.372  -2.171  -0.083  0.00  0.00    -0.016 A 
ATOM     29  C   UNL     1      -2.167  -3.029   0.652  0.00  0.00    +0.051 A 
ATOM     30  C   UNL     1      -2.057  -4.400   0.476  0.00  0.00    +0.121 A 
ATOM     31  C   UNL     1      -1.147  -4.910  -0.439  0.00  0.00    +0.049 A 
ATOM     32  C   UNL     1      -0.352  -4.053  -1.174  0.00  0.00    +0.049 A 
ATOM     33  C   UNL     1      -0.466  -2.681  -1.001  0.00  0.00    +0.122 A 
BRANCH  33  34
ATOM     34  O   UNL     1       0.313  -1.837  -1.728  0.00  0.00    -0.495 OA
ATOM     35  C   UNL     1       1.123  -2.421  -2.750  0.00  0.00    +0.277 C 
ENDBRANCH  33  34
BRANCH  30  36
ATOM     36  O   UNL     1      -2.840  -5.244   1.200  0.00  0.00    -0.495 OA
ATOM     37  C   UNL     1      -2.672  -6.644   0.967  0.00  0.00    +0.277 C 
ENDBRANCH  30  36
ENDBRANCH   3  28
BRANCH   7  38
ATOM     38  O   UNL     1       0.742  -2.102   1.310  0.00  0.00    -0.384 OA
ATOM     39  H   UNL     1       1.159  -2.561   2.052  0.00  0.00    +0.211 HD
ENDBRANCH   7  38
TORSDOF 9
