REMARK  Name = ZINC64612727
REMARK  7 active torsions:
REMARK  status: ('A' for Active; 'I' for Inactive)
REMARK    1  A    between atoms: C_1  and  C_2
REMARK    2  A    between atoms: C_6  and  N_9
REMARK    3  A    between atoms: C_7  and  C_8
REMARK    4  A    between atoms: N_12  and  S_15
REMARK    5  A    between atoms: S_15  and  C_18
REMARK    6  A    between atoms: C_21  and  C_24
REMARK    7  A    between atoms: C_28  and  C_30
REMARK                            x       y       z     vdW  Elec       q    Type
REMARK                         _______ _______ _______ _____ _____    ______ ____
ROOT
ATOM      1  S   UNL     1       0.113  -5.910   5.333  0.00  0.00    +0.043 S 
ATOM      2  O   UNL     1       1.343  -5.553   5.948  0.00  0.00    -0.157 OA
ATOM      3  O   UNL     1      -1.126  -5.595   5.954  0.00  0.00    -0.157 OA
ENDROOT
BRANCH   1   7
ATOM      4  N   UNL     1       0.051  -2.796   2.390  0.00  0.00    -0.327 N 
ATOM      5  C   UNL     1      -1.205  -3.197   3.038  0.00  0.00    +0.122 C 
ATOM      6  C   UNL     1      -1.179  -4.714   3.263  0.00  0.00    +0.128 C 
ATOM      7  N   UNL     1       0.094  -5.071   3.905  0.00  0.00    -0.177 NA
ATOM      8  C   UNL     1       1.351  -4.670   3.257  0.00  0.00    +0.128 C 
ATOM      9  C   UNL     1       1.324  -3.159   3.029  0.00  0.00    +0.122 C 
BRANCH   4  15
ATOM     10  C   UNL     1      -0.018   1.503   0.010  0.00  0.00    +0.044 C 
ATOM     11  C   UNL     1       0.002  -0.004   0.002  0.00  0.00    -0.046 A 
ATOM     12  C   UNL     1       0.006  -0.688  -1.200  0.00  0.00    +0.004 A 
ATOM     13  C   UNL     1       0.024  -2.071  -1.212  0.00  0.00    +0.002 A 
ATOM     14  C   UNL     1       0.039  -2.773  -0.023  0.00  0.00    +0.023 A 
ATOM     15  C   UNL     1       0.036  -2.089   1.186  0.00  0.00    +0.033 A 
ATOM     16  C   UNL     1       0.023  -0.700   1.194  0.00  0.00    -0.027 A 
ATOM     17  C   UNL     1       0.025   0.046   2.504  0.00  0.00    +0.046 C 
ENDBRANCH   4  15
ENDBRANCH   1   7
BRANCH   1  18
ATOM     18  C   UNL     1       0.141  -7.657   4.847  0.00  0.00    +0.214 C 
ATOM     19  C   UNL     1      -0.025  -8.555   6.059  0.00  0.00    +0.035 C 
ATOM     20  C   UNL     1      -1.148  -9.231   5.839  0.00  0.00    +0.099 C 
ATOM     21  N   UNL     1      -1.726  -8.897   4.662  0.00  0.00    -0.257 NA
ATOM     22  C   UNL     1      -1.069  -7.999   4.000  0.00  0.00    +0.116 C 
BRANCH  20  23
ATOM     23  C   UNL     1      -1.712 -10.253   6.792  0.00  0.00    +0.327 C 
ATOM     24  N   UNL     1      -3.076  -9.876   7.204  0.00  0.00    -0.223 N 
ATOM     25  N   UNL     1      -3.901 -10.920   6.762  0.00  0.00    -0.145 NA
ATOM     26  C   UNL     1      -3.199 -11.825   6.163  0.00  0.00    +0.239 C 
ATOM     27  O   UNL     1      -1.878 -11.517   6.132  0.00  0.00    -0.446 OA
ATOM     28  H   UNL     1      -3.345  -9.075   7.680  0.00  0.00    +0.172 HD
BRANCH  26  29
ATOM     29  C   UNL     1      -3.770 -13.057   5.581  0.00  0.00    +0.038 A 
ATOM     30  C   UNL     1      -2.938 -13.988   4.956  0.00  0.00    +0.013 A 
ATOM     31  C   UNL     1      -3.477 -15.136   4.415  0.00  0.00    +0.001 A 
ATOM     32  C   UNL     1      -4.839 -15.367   4.489  0.00  0.00    +0.000 A 
ATOM     33  C   UNL     1      -5.670 -14.448   5.107  0.00  0.00    +0.001 A 
ATOM     34  C   UNL     1      -5.143 -13.299   5.659  0.00  0.00    +0.013 A 
ENDBRANCH  26  29
ENDBRANCH  20  23
ENDBRANCH   1  18
TORSDOF 5
