REMARK  Name = ZINC37426996
REMARK  8 active torsions:
REMARK  status: ('A' for Active; 'I' for Inactive)
REMARK    1  A    between atoms: C_1  and  C_2
REMARK    2  A    between atoms: C_5  and  N_8
REMARK    3  A    between atoms: C_11  and  C_13
REMARK    4  A    between atoms: C_19  and  C_33
REMARK    5  A    between atoms: N_25  and  C_26
REMARK    6  A    between atoms: C_26  and  C_27
REMARK    7  A    between atoms: N_29  and  C_30
REMARK    8  A    between atoms: C_38  and  C_39
REMARK                            x       y       z     vdW  Elec       q    Type
REMARK                         _______ _______ _______ _____ _____    ______ ____
ROOT
ATOM      1  N   UNL     1       0.255  -3.639  -0.121  0.00  0.00    -0.217 N 
ATOM      2  C   UNL     1       0.254  -4.499   0.927  0.00  0.00    +0.137 A 
ATOM      3  C   UNL     1      -0.192  -5.697   0.492  0.00  0.00    +0.038 A 
ATOM      4  C   UNL     1      -0.474  -5.580  -0.880  0.00  0.00    +0.100 A 
ATOM      5  N   UNL     1      -0.210  -4.340  -1.244  0.00  0.00    -0.164 NA
ATOM      6  C   UNL     1      -0.352  -6.922   1.355  0.00  0.00    +0.112 C 
ATOM      7  S   UNL     1       1.308  -7.596   1.724  0.00  0.00    -0.138 S 
ATOM      8  C   UNL     1       2.271  -6.077   2.029  0.00  0.00    +0.166 C 
ATOM      9  C   UNL     1       1.478  -5.103   2.846  0.00  0.00    +0.231 C 
ATOM     10  O   UNL     1       1.595  -5.092   4.054  0.00  0.00    -0.274 OA
ATOM     11  N   UNL     1       0.643  -4.245   2.251  0.00  0.00    -0.246 N 
ENDROOT
BRANCH   1  16
ATOM     12  C   UNL     1       1.830   1.811   0.017  0.00  0.00    +0.044 C 
ATOM     13  C   UNL     1       1.412   0.363  -0.020  0.00  0.00    -0.050 A 
ATOM     14  C   UNL     1       0.289  -0.012  -0.733  0.00  0.00    +0.005 A 
ATOM     15  C   UNL     1      -0.097  -1.338  -0.769  0.00  0.00    +0.028 A 
ATOM     16  C   UNL     1       0.644  -2.294  -0.087  0.00  0.00    +0.067 A 
ATOM     17  C   UNL     1       1.771  -1.913   0.629  0.00  0.00    +0.028 A 
ATOM     18  C   UNL     1       2.155  -0.587   0.656  0.00  0.00    +0.005 A 
ENDBRANCH   1  16
BRANCH   6  19
ATOM     19  C   UNL     1      -1.170  -7.954   0.623  0.00  0.00    -0.027 A 
ATOM     20  C   UNL     1      -0.563  -9.094   0.128  0.00  0.00    +0.005 A 
ATOM     21  C   UNL     1      -1.314 -10.040  -0.544  0.00  0.00    +0.000 A 
ATOM     22  C   UNL     1      -2.671  -9.848  -0.721  0.00  0.00    +0.000 A 
ATOM     23  C   UNL     1      -3.278  -8.709  -0.226  0.00  0.00    +0.003 A 
ATOM     24  C   UNL     1      -2.528  -7.764   0.450  0.00  0.00    -0.046 A 
ATOM     25  C   UNL     1      -3.191  -6.525   0.994  0.00  0.00    +0.044 C 
ENDBRANCH   6  19
BRANCH   4  26
ATOM     26  C   UNL     1      -0.984  -6.659  -1.762  0.00  0.00    +0.002 A 
ATOM     27  C   UNL     1      -2.207  -6.511  -2.413  0.00  0.00    +0.010 A 
ATOM     28  C   UNL     1      -2.676  -7.518  -3.232  0.00  0.00    +0.001 A 
ATOM     29  C   UNL     1      -1.935  -8.673  -3.406  0.00  0.00    +0.000 A 
ATOM     30  C   UNL     1      -0.721  -8.826  -2.761  0.00  0.00    +0.001 A 
ATOM     31  C   UNL     1      -0.239  -7.823  -1.945  0.00  0.00    +0.010 A 
ENDBRANCH   4  26
BRANCH  11  32
ATOM     32  C   UNL     1       0.146  -3.067   2.965  0.00  0.00    +0.210 C 
BRANCH  32  33
ATOM     33  C   UNL     1      -1.064  -3.446   3.780  0.00  0.00    +0.231 C 
ATOM     34  O   UNL     1      -1.470  -4.589   3.765  0.00  0.00    -0.274 OA
ATOM     35  N   UNL     1      -1.694  -2.516   4.524  0.00  0.00    -0.311 N 
ATOM     36  H   UNL     1      -1.369  -1.602   4.536  0.00  0.00    +0.149 HD
BRANCH  35  37
ATOM     37  C   UNL     1      -2.870  -2.885   5.316  0.00  0.00    +0.073 C 
ATOM     38  C   UNL     1      -4.066  -1.931   5.292  0.00  0.00    +0.024 C 
ATOM     39  C   UNL     1      -3.192  -2.030   6.544  0.00  0.00    +0.024 C 
ENDBRANCH  35  37
ENDBRANCH  32  33
ENDBRANCH  11  32
TORSDOF 6
