REMARK  Name = ZINC14094059
REMARK  8 active torsions:
REMARK  status: ('A' for Active; 'I' for Inactive)
REMARK    1  A    between atoms: C_1  and  C_2
REMARK    2  A    between atoms: C_2  and  N_3
REMARK    3  A    between atoms: C_5  and  C_14
REMARK    4  A    between atoms: C_14  and  N_62
REMARK    5  A    between atoms: C_15  and  N_62
REMARK    6  A    between atoms: C_16  and  C_17
REMARK    7  A    between atoms: C_16  and  N_62
REMARK    8  A    between atoms: N_19  and  N_20
REMARK                            x       y       z     vdW  Elec       q    Type
REMARK                         _______ _______ _______ _____ _____    ______ ____
ROOT
ATOM      1  C   UNL     1       5.950   1.240  -0.640  0.00  0.00    +0.020 C 
ENDROOT
BRANCH   1   2
ATOM      2  C   UNL     1       4.494   0.946  -0.389  0.00  0.00    +0.213 C 
ATOM      3  O   UNL     1       3.688   1.063  -1.287  0.00  0.00    -0.276 OA
ATOM      4  N   UNL     1       4.087   0.553   0.835  0.00  0.00    -0.225 N 
ATOM      5  H   UNL     1       4.732   0.460   1.554  0.00  0.00    +0.173 HD
BRANCH   4   6
ATOM      6  N   UNL     1       2.733   0.279   1.068  0.00  0.00    -0.137 N 
ATOM      7  C   UNL     1       2.221  -0.963   1.192  0.00  0.00    +0.263 C 
ATOM      8  O   UNL     1       2.821  -2.014   1.126  0.00  0.00    -0.271 OA
ATOM      9  C   UNL     1       0.742  -0.767   1.432  0.00  0.00    +0.114 C 
ATOM     10  C   UNL     1      -0.069  -1.415   0.315  0.00  0.00    +0.035 C 
ATOM     11  C   UNL     1      -1.561  -1.173   0.560  0.00  0.00    +0.003 C 
ATOM     12  C   UNL     1      -1.957  -1.769   1.912  0.00  0.00    +0.000 C 
ATOM     13  C   UNL     1      -1.151  -1.096   3.025  0.00  0.00    +0.003 C 
ATOM     14  C   UNL     1       0.342  -1.337   2.789  0.00  0.00    +0.035 C 
ATOM     15  N   UNL     1       0.567   0.691   1.415  0.00  0.00    -0.284 N 
ATOM     16  C   UNL     1       1.787   1.218   1.196  0.00  0.00    +0.326 C 
ATOM     17  O   UNL     1       2.004   2.411   1.123  0.00  0.00    -0.251 OA
ATOM     18  H   UNL     1      -0.263   1.178   1.534  0.00  0.00    +0.151 HD
ENDBRANCH   4   6
ENDBRANCH   1   2
BRANCH   1  20
ATOM     19  C   UNL     1       5.839   0.534  -2.953  0.00  0.00    -0.095 C 
ATOM     20  N   UNL     1       6.115   1.667  -2.045  0.00  0.00    +0.386 N 
ATOM     21  H   UNL     1       5.449   2.424  -2.244  0.00  0.00    -0.081 HD
BRANCH  20  22
ATOM     22  C   UNL     1       7.489   2.167  -2.264  0.00  0.00    -0.032 C 
BRANCH  22  25
ATOM     23  N   UNL     1       9.128   5.405  -1.176  0.00  0.00    -0.324 N 
ATOM     24  C   UNL     1       9.040   4.081  -1.801  0.00  0.00    +0.147 C 
ATOM     25  C   UNL     1       7.595   3.579  -1.683  0.00  0.00    +0.174 C 
ATOM     26  O   UNL     1       6.756   4.471  -2.423  0.00  0.00    -0.487 OA
ATOM     27  C   UNL     1       6.973   5.804  -2.244  0.00  0.00    +0.142 A 
ATOM     28  C   UNL     1       8.133   6.273  -1.639  0.00  0.00    +0.072 A 
ATOM     29  C   UNL     1       8.320   7.643  -1.484  0.00  0.00    +0.027 A 
ATOM     30  C   UNL     1       7.358   8.530  -1.925  0.00  0.00    +0.002 A 
ATOM     31  C   UNL     1       6.204   8.061  -2.523  0.00  0.00    +0.004 A 
ATOM     32  C   UNL     1       6.011   6.701  -2.683  0.00  0.00    +0.047 A 
BRANCH  23  34
ATOM     33  C   UNL     1      10.681   6.300  -2.844  0.00  0.00    +0.024 C 
ATOM     34  C   UNL     1      10.463   5.988  -1.362  0.00  0.00    +0.102 C 
ENDBRANCH  23  34
ENDBRANCH  22  25
ENDBRANCH  20  22
ENDBRANCH   1  20
TORSDOF 6
