REMARK  Name = ZINC20240861
REMARK  10 active torsions:
REMARK  status: ('A' for Active; 'I' for Inactive)
REMARK    1  A    between atoms: C_1  and  C_2
REMARK    2  A    between atoms: C_3  and  C_14
REMARK    3  A    between atoms: C_5  and  C_7
REMARK    4  A    between atoms: C_14  and  N_15
REMARK    5  A    between atoms: C_19  and  C_22
REMARK    6  A    between atoms: N_24  and  C_25
REMARK    7  A    between atoms: C_25  and  C_27
REMARK    8  A    between atoms: C_25  and  C_28
REMARK    9  A    between atoms: C_28  and  C_29
REMARK   10  A    between atoms: C_29  and  C_30
REMARK                            x       y       z     vdW  Elec       q    Type
REMARK                         _______ _______ _______ _____ _____    ______ ____
ROOT
ATOM      1  N   UNL     1      -2.989  -0.232  -1.369  0.00  0.00    +0.384 N 
ATOM      2  C   UNL     1      -2.251   0.856  -2.024  0.00  0.00    -0.078 C 
ATOM      3  C   UNL     1      -2.685   0.963  -3.488  0.00  0.00    -0.018 C 
ATOM      4  C   UNL     1      -4.188   1.254  -3.549  0.00  0.00    +0.009 C 
ATOM      5  C   UNL     1      -4.942   0.152  -2.799  0.00  0.00    +0.058 C 
ATOM      6  C   UNL     1      -4.424   0.075  -1.361  0.00  0.00    -0.066 C 
ATOM      7  H   UNL     1      -2.833  -1.092  -1.873  0.00  0.00    -0.081 HD
ENDROOT
BRANCH   5   8
ATOM      8  C   UNL     1      -6.415   0.469  -2.788  0.00  0.00    +0.215 C 
ATOM      9  O   UNL     1      -6.996   0.616  -1.733  0.00  0.00    -0.276 OA
ATOM     10  N   UNL     1      -7.087   0.590  -3.950  0.00  0.00    -0.313 N 
ATOM     11  H   UNL     1      -6.623   0.473  -4.793  0.00  0.00    +0.149 HD
BRANCH  10  12
ATOM     12  C   UNL     1      -8.520   0.898  -3.939  0.00  0.00    +0.070 C 
ATOM     13  C   UNL     1      -8.715   2.412  -3.838  0.00  0.00    +0.028 C 
BRANCH  12  14
ATOM     14  C   UNL     1      -9.161   0.386  -5.230  0.00  0.00    +0.026 C 
BRANCH  14  15
ATOM     15  C   UNL     1      -9.076  -1.141  -5.271  0.00  0.00    +0.037 C 
BRANCH  15  16
ATOM     16  C   UNL     1      -9.708  -1.645  -6.543  0.00  0.00    -0.047 A 
ATOM     17  C   UNL     1     -11.057  -1.945  -6.573  0.00  0.00    +0.003 A 
ATOM     18  C   UNL     1     -11.636  -2.408  -7.739  0.00  0.00    +0.000 A 
ATOM     19  C   UNL     1     -10.867  -2.570  -8.876  0.00  0.00    +0.000 A 
ATOM     20  C   UNL     1      -9.518  -2.269  -8.847  0.00  0.00    +0.000 A 
ATOM     21  C   UNL     1      -8.939  -1.802  -7.681  0.00  0.00    +0.003 A 
ENDBRANCH  15  16
ENDBRANCH  14  15
ENDBRANCH  12  14
ENDBRANCH  10  12
ENDBRANCH   5   8
BRANCH   1  22
ATOM     22  C   UNL     1      -2.513  -0.381   0.012  0.00  0.00    -0.019 C 
BRANCH  22  25
ATOM     23  C   UNL     1      -0.018   1.503   0.010  0.00  0.00    +0.088 C 
ATOM     24  C   UNL     1       0.002  -0.004   0.002  0.00  0.00    +0.124 A 
ATOM     25  C   UNL     1      -1.070  -0.816   0.003  0.00  0.00    +0.066 A 
ATOM     26  N   UNL     1      -0.627  -2.083  -0.007  0.00  0.00    -0.216 NA
ATOM     27  C   UNL     1       0.685  -2.068  -0.013  0.00  0.00    +0.228 A 
ATOM     28  O   UNL     1       1.098  -0.788  -0.013  0.00  0.00    -0.440 OA
BRANCH  27  29
ATOM     29  C   UNL     1       1.562  -3.258  -0.023  0.00  0.00    +0.037 A 
ATOM     30  C   UNL     1       1.006  -4.538  -0.033  0.00  0.00    +0.014 A 
ATOM     31  C   UNL     1       1.829  -5.644  -0.042  0.00  0.00    +0.021 A 
ATOM     32  C   UNL     1       3.205  -5.487  -0.042  0.00  0.00    +0.041 A 
ATOM     33  C   UNL     1       3.762  -4.220  -0.032  0.00  0.00    +0.021 A 
ATOM     34  C   UNL     1       2.949  -3.106  -0.029  0.00  0.00    +0.014 A 
ATOM     35 CL   UNL     1       4.234  -6.885  -0.053  0.00  0.00    -0.084 Cl
ENDBRANCH  27  29
ENDBRANCH  22  25
ENDBRANCH   1  22
TORSDOF 8
