REMARK  Name = ZINC36537618
REMARK  7 active torsions:
REMARK  status: ('A' for Active; 'I' for Inactive)
REMARK    1  A    between atoms: C_1  and  N_2
REMARK    2  A    between atoms: N_2  and  C_3
REMARK    3  A    between atoms: C_3  and  C_5
REMARK    4  A    between atoms: C_3  and  C_11
REMARK    5  A    between atoms: N_13  and  C_14
REMARK    6  A    between atoms: C_20  and  C_22
REMARK    7  A    between atoms: C_26  and  N_28
REMARK                            x       y       z     vdW  Elec       q    Type
REMARK                         _______ _______ _______ _____ _____    ______ ____
ROOT
ATOM      1  C   UNL     1       0.178  -0.559   1.305  0.00  0.00    +0.192 C 
ENDROOT
BRANCH   1   2
ATOM      2  C   UNL     1       1.362   0.029   2.027  0.00  0.00    -0.018 A 
ATOM      3  C   UNL     1       2.354  -0.800   2.518  0.00  0.00    +0.006 A 
ATOM      4  C   UNL     1       3.441  -0.261   3.180  0.00  0.00    +0.000 A 
ATOM      5  C   UNL     1       3.536   1.108   3.351  0.00  0.00    +0.000 A 
ATOM      6  C   UNL     1       2.545   1.937   2.860  0.00  0.00    +0.000 A 
ATOM      7  C   UNL     1       1.461   1.398   2.193  0.00  0.00    +0.006 A 
ENDBRANCH   1   2
BRANCH   1   9
ATOM      8  C   UNL     1      -0.030   1.506  -0.155  0.00  0.00    +0.133 C 
ATOM      9  N   UNL     1       0.063   0.050  -0.023  0.00  0.00    -0.285 N 
ATOM     10  C   UNL     1       0.044  -0.729  -1.122  0.00  0.00    +0.247 C 
ATOM     11  O   UNL     1       0.011  -1.939  -1.009  0.00  0.00    -0.270 OA
BRANCH  10  12
ATOM     12  C   UNL     1       0.064  -0.113  -2.466  0.00  0.00    +0.039 A 
ATOM     13  C   UNL     1       0.792   1.058  -2.689  0.00  0.00    +0.013 A 
ATOM     14  C   UNL     1       0.807   1.627  -3.945  0.00  0.00    +0.003 A 
ATOM     15  C   UNL     1       0.102   1.042  -4.982  0.00  0.00    +0.033 A 
ATOM     16  C   UNL     1      -0.621  -0.117  -4.768  0.00  0.00    +0.127 A 
ATOM     17  C   UNL     1      -0.639  -0.701  -3.518  0.00  0.00    +0.045 A 
BRANCH  16  18
ATOM     18  N   UNL     1      -1.373  -0.736  -5.883  0.00  0.00    +0.056 N 
ATOM     19  O   UNL     1      -1.353  -0.228  -6.980  0.00  0.00    -0.126 OA
ATOM     20  O   UNL     1      -2.005  -1.749  -5.696  0.00  0.00    -0.126 OA
ENDBRANCH  16  18
ENDBRANCH  10  12
ENDBRANCH   1   9
BRANCH   1  21
ATOM     21  C   UNL     1      -1.077  -0.285   2.093  0.00  0.00    +0.238 C 
ATOM     22  O   UNL     1      -1.979   0.355   1.595  0.00  0.00    -0.273 OA
ATOM     23  N   UNL     1      -1.198  -0.753   3.351  0.00  0.00    -0.311 N 
ATOM     24  H   UNL     1      -0.478  -1.265   3.750  0.00  0.00    +0.149 HD
BRANCH  23  25
ATOM     25  C   UNL     1      -2.418  -0.487   4.117  0.00  0.00    +0.073 C 
ATOM     26  C   UNL     1      -2.308   0.882   4.792  0.00  0.00    +0.022 C 
ATOM     27  C   UNL     1      -3.583   1.160   5.593  0.00  0.00    +0.002 C 
ATOM     28  C   UNL     1      -3.761   0.078   6.659  0.00  0.00    +0.000 C 
ATOM     29  C   UNL     1      -3.871  -1.291   5.984  0.00  0.00    +0.002 C 
ATOM     30  C   UNL     1      -2.597  -1.569   5.184  0.00  0.00    +0.022 C 
ENDBRANCH  23  25
ENDBRANCH   1  21
TORSDOF 6
