REMARK  Name = ZINC00377506
REMARK  6 active torsions:
REMARK  status: ('A' for Active; 'I' for Inactive)
REMARK    1  A    between atoms: C_1  and  C_2
REMARK    2  A    between atoms: C_2  and  O_3
REMARK    3  A    between atoms: O_3  and  C_4
REMARK    4  A    between atoms: C_12  and  C_25
REMARK    5  A    between atoms: C_13  and  N_24
REMARK    6  A    between atoms: C_20  and  C_23
REMARK                            x       y       z     vdW  Elec       q    Type
REMARK                         _______ _______ _______ _____ _____    ______ ____
ROOT
ATOM      1  C   UNL     1       0.801  -1.812   1.304  0.00  0.00    +0.403 C 
ATOM      2  O   UNL     1       0.321  -2.554   0.470  0.00  0.00    -0.226 OA
ATOM      3  N   UNL     1       1.444  -2.326   2.379  0.00  0.00    -0.267 N 
ATOM      4  C   UNL     1       2.020  -1.423   3.380  0.00  0.00    +0.112 C 
ATOM      5  C   UNL     1       3.485  -1.800   3.581  0.00  0.00    +0.036 C 
ATOM      6  C   UNL     1       3.642  -3.267   3.982  0.00  0.00    +0.045 C 
ATOM      7  C   UNL     1       2.927  -4.214   3.035  0.00  0.00    +0.036 C 
ATOM      8  C   UNL     1       1.562  -3.772   2.539  0.00  0.00    +0.112 C 
ATOM      9  C   UNL     1       5.130  -3.557   3.919  0.00  0.00    +0.097 C 
ATOM     10  C   UNL     1       5.888  -3.623   5.039  0.00  0.00    +0.198 C 
ATOM     11  O   UNL     1       5.356  -3.411   6.249  0.00  0.00    -0.445 OA
ATOM     12  C   UNL     1       4.031  -3.547   6.425  0.00  0.00    +0.115 C 
ATOM     13  C   UNL     1       3.155  -3.473   5.399  0.00  0.00    +0.044 C 
ATOM     14  C   UNL     1       1.779  -3.576   5.669  0.00  0.00    +0.164 C 
ATOM     15  O   UNL     1       0.952  -3.268   4.836  0.00  0.00    -0.292 OA
ATOM     16  C   UNL     1       1.243  -4.070   6.989  0.00  0.00    +0.083 C 
ATOM     17  C   UNL     1       2.356  -4.766   7.772  0.00  0.00    +0.001 C 
ATOM     18  C   UNL     1       3.549  -3.810   7.834  0.00  0.00    +0.078 C 
ATOM     19  C   UNL     1       1.875  -5.082   9.190  0.00  0.00    +0.008 C 
ENDROOT
BRANCH  10  20
ATOM     20  N   UNL     1       7.226  -3.911   4.929  0.00  0.00    -0.328 N 
ATOM     21  H   UNL     1       7.619  -4.065   4.055  0.00  0.00    +0.145 HD
ATOM     22  H   UNL     1       7.779  -3.960   5.724  0.00  0.00    +0.145 HD
ENDBRANCH  10  20
BRANCH   9  23
ATOM     23  C   UNL     1       5.791  -3.733   2.659  0.00  0.00    +0.101 C 
ATOM     24  N   UNL     1       6.315  -3.872   1.661  0.00  0.00    -0.191 NA
ENDBRANCH   9  23
BRANCH   1  25
ATOM     25  O   UNL     1       0.693  -0.477   1.160  0.00  0.00    -0.451 OA
BRANCH  25  27
ATOM     26  C   UNL     1      -0.019   1.526   0.010  0.00  0.00    +0.048 C 
ATOM     27  C   UNL     1       0.002  -0.004   0.002  0.00  0.00    +0.230 C 
ENDBRANCH  25  27
ENDBRANCH   1  25
TORSDOF 4
