REMARK  Name = ZINC64040350
REMARK  7 active torsions:
REMARK  status: ('A' for Active; 'I' for Inactive)
REMARK    1  A    between atoms: C_1  and  C_2
REMARK    2  A    between atoms: C_2  and  C_3
REMARK    3  A    between atoms: C_3  and  C_4
REMARK    4  A    between atoms: C_4  and  C_18
REMARK    5  A    between atoms: N_7  and  C_11
REMARK    6  A    between atoms: C_11  and  C_12
REMARK    7  A    between atoms: C_24  and  C_26
REMARK                            x       y       z     vdW  Elec       q    Type
REMARK                         _______ _______ _______ _____ _____    ______ ____
ROOT
ATOM      1  C   UNL     1       1.512  -2.547  -2.479  0.00  0.00    +0.024 C 
ATOM      2  C   UNL     1       0.917  -1.950  -3.756  0.00  0.00    +0.025 C 
ATOM      3  C   UNL     1       1.715  -2.445  -4.966  0.00  0.00    +0.108 C 
ATOM      4  N   UNL     1       1.746  -3.914  -4.944  0.00  0.00    -0.298 N 
ATOM      5  C   UNL     1       2.216  -4.592  -3.728  0.00  0.00    +0.108 C 
ATOM      6  C   UNL     1       1.412  -4.073  -2.532  0.00  0.00    +0.025 C 
ATOM      7  C   UNL     1       1.351  -4.626  -6.018  0.00  0.00    +0.259 C 
ATOM      8  O   UNL     1       0.964  -4.054  -7.015  0.00  0.00    -0.271 OA
ENDROOT
BRANCH   7   9
ATOM      9  C   UNL     1       1.388  -6.132  -5.979  0.00  0.00    +0.263 C 
ATOM     10  N   UNL     1       2.763  -6.607  -6.177  0.00  0.00    -0.356 N 
ATOM     11  C   UNL     1       2.773  -7.338  -7.253  0.00  0.00    +0.061 A 
ATOM     12  C   UNL     1       3.836  -8.075  -7.952  0.00  0.00    +0.027 A 
ATOM     13  C   UNL     1       3.542  -8.762  -9.074  0.00  0.00    +0.002 A 
ATOM     14  C   UNL     1       2.246  -8.808  -9.617  0.00  0.00    +0.002 A 
ATOM     15  C   UNL     1       1.200  -8.168  -9.057  0.00  0.00    +0.027 A 
ATOM     16  C   UNL     1       1.401  -7.388  -7.829  0.00  0.00    +0.061 A 
ATOM     17  N   UNL     1       0.596  -6.684  -7.085  0.00  0.00    -0.356 N 
ATOM     18  H   UNL     1       3.525  -6.411  -5.609  0.00  0.00    +0.162 HD
ATOM     19  H   UNL     1      -0.353  -6.550  -7.234  0.00  0.00    +0.162 HD
ENDBRANCH   7   9
BRANCH   1  20
ATOM     20  C   UNL     1       0.739  -2.027  -1.265  0.00  0.00    +0.115 C 
ATOM     21  C   UNL     1      -0.672  -2.580  -1.252  0.00  0.00    +0.247 C 
ATOM     22  O   UNL     1      -1.532  -2.413  -2.090  0.00  0.00    -0.273 OA
ATOM     23  N   UNL     1      -0.772  -3.296  -0.114  0.00  0.00    -0.222 N 
ATOM     24  C   UNL     1       0.368  -3.273   0.585  0.00  0.00    +0.309 C 
ATOM     25  O   UNL     1       0.521  -3.845   1.646  0.00  0.00    -0.252 OA
ATOM     26  N   UNL     1       1.325  -2.545  -0.017  0.00  0.00    -0.285 N 
ATOM     27  H   UNL     1       2.226  -2.390   0.308  0.00  0.00    +0.151 HD
BRANCH  20  28
ATOM     28  C   UNL     1       0.718  -0.497  -1.257  0.00  0.00    +0.035 C 
BRANCH  28  30
ATOM     29  C   UNL     1      -0.019   1.526   0.010  0.00  0.00    +0.004 C 
ATOM     30  C   UNL     1       0.002  -0.004   0.002  0.00  0.00    -0.001 C 
ENDBRANCH  28  30
ENDBRANCH  20  28
BRANCH  23  31
ATOM     31  C   UNL     1      -1.981  -4.011   0.305  0.00  0.00    +0.149 C 
BRANCH  31  32
ATOM     32  C   UNL     1      -1.948  -5.436  -0.250  0.00  0.00    +0.136 C 
ATOM     33  C   UNL     1      -3.271  -6.158   0.084  0.00  0.00    +0.035 C 
ATOM     34  C   UNL     1      -2.786  -7.591   0.432  0.00  0.00    +0.031 C 
ATOM     35  C   UNL     1      -1.421  -7.285   1.100  0.00  0.00    +0.160 C 
ATOM     36  O   UNL     1      -0.884  -6.172   0.364  0.00  0.00    -0.375 OA
ENDBRANCH  31  32
ENDBRANCH  23  31
ENDBRANCH   1  20
TORSDOF 6
