REMARK  Name = ZINC03349050
REMARK  8 active torsions:
REMARK  status: ('A' for Active; 'I' for Inactive)
REMARK    1  A    between atoms: C_1  and  C_2
REMARK    2  A    between atoms: C_7  and  N_8
REMARK    3  A    between atoms: C_12  and  C_13
REMARK    4  A    between atoms: C_16  and  N_18
REMARK    5  A    between atoms: C_23  and  C_24
REMARK    6  A    between atoms: C_23  and  C_26
REMARK    7  A    between atoms: C_26  and  C_28
REMARK    8  A    between atoms: C_29  and  C_38
REMARK                            x       y       z     vdW  Elec       q    Type
REMARK                         _______ _______ _______ _____ _____    ______ ____
ROOT
ATOM      1  N   UNL     1      -1.286   3.162   0.577  0.00  0.00    -0.269 N 
ATOM      2  C   UNL     1      -2.494   3.570   0.932  0.00  0.00    +0.271 A 
ATOM      3  O   UNL     1      -2.735   4.741   1.152  0.00  0.00    -0.266 OA
ATOM      4  C   UNL     1      -3.542   2.522   1.047  0.00  0.00    +0.082 A 
ATOM      5  C   UNL     1      -4.901   2.660   1.401  0.00  0.00    +0.066 C 
ATOM      6  S   UNL     1      -2.663   1.087   0.625  0.00  0.00    -0.064 S 
ATOM      7  C   UNL     1      -1.066   1.828   0.339  0.00  0.00    +0.110 A 
ATOM      8  C   UNL     1       0.121   1.202  -0.041  0.00  0.00    +0.130 C 
ENDROOT
BRANCH   1  15
ATOM      9  C   UNL     1       0.408   3.604   2.821  0.00  0.00    +0.046 C 
ATOM     10  C   UNL     1       0.609   4.330   1.516  0.00  0.00    -0.026 A 
ATOM     11  C   UNL     1       1.639   5.240   1.382  0.00  0.00    +0.005 A 
ATOM     12  C   UNL     1       1.825   5.905   0.184  0.00  0.00    +0.000 A 
ATOM     13  C   UNL     1       0.980   5.662  -0.884  0.00  0.00    +0.002 A 
ATOM     14  C   UNL     1      -0.049   4.750  -0.758  0.00  0.00    +0.026 A 
ATOM     15  C   UNL     1      -0.241   4.084   0.445  0.00  0.00    +0.053 A 
ENDBRANCH   1  15
BRANCH   5  16
ATOM     16  C   UNL     1      -5.721   1.544   1.450  0.00  0.00    +0.132 A 
ATOM     17  C   UNL     1      -7.095   1.530   1.794  0.00  0.00    +0.052 A 
ATOM     18  C   UNL     1      -7.506   0.214   1.710  0.00  0.00    +0.076 A 
ATOM     19  C   UNL     1      -6.406  -0.538   1.335  0.00  0.00    +0.280 A 
ATOM     20  O   UNL     1      -5.352   0.271   1.185  0.00  0.00    -0.435 OA
BRANCH  19  21
ATOM     21  N   UNL     1      -6.397  -2.004   1.132  0.00  0.00    +0.093 N 
ATOM     22  O   UNL     1      -7.502  -2.700   1.309  0.00  0.00    -0.123 OA
ATOM     23  O   UNL     1      -5.286  -2.613   0.774  0.00  0.00    -0.123 OA
ENDBRANCH  19  21
ENDBRANCH   5  16
BRANCH   8  24
ATOM     24  C   UNL     1       0.142  -0.209  -0.281  0.00  0.00    +0.106 C 
ATOM     25  N   UNL     1       0.158  -1.329  -0.471  0.00  0.00    -0.191 NA
ENDBRANCH   8  24
BRANCH   8  26
ATOM     26  C   UNL     1       1.353   1.995  -0.203  0.00  0.00    +0.208 C 
ATOM     27  O   UNL     1       1.441   2.808  -1.105  0.00  0.00    -0.286 OA
BRANCH  26  28
ATOM     28  C   UNL     1       2.475   1.806   0.725  0.00  0.00    +0.051 A 
ATOM     29  C   UNL     1       3.729   2.374   0.635  0.00  0.00    +0.025 A 
ATOM     30  N   UNL     1       4.485   1.966   1.673  0.00  0.00    -0.358 N 
ATOM     31  H   UNL     1       5.404   2.235   1.825  0.00  0.00    +0.166 HD
ATOM     32  C   UNL     1       3.773   1.106   2.486  0.00  0.00    +0.047 A 
ATOM     33  C   UNL     1       2.489   0.965   1.936  0.00  0.00    +0.011 A 
ATOM     34  C   UNL     1       1.548   0.146   2.556  0.00  0.00    +0.011 A 
ATOM     35  C   UNL     1       1.885  -0.524   3.713  0.00  0.00    +0.001 A 
ATOM     36  C   UNL     1       3.153  -0.387   4.257  0.00  0.00    +0.002 A 
ATOM     37  C   UNL     1       4.093   0.421   3.653  0.00  0.00    +0.026 A 
ATOM     38  C   UNL     1       4.182   3.311  -0.454  0.00  0.00    +0.064 C 
ENDBRANCH  26  28
ENDBRANCH   8  26
TORSDOF 6
