REMARK  Name = ZINC08762207
REMARK  11 active torsions:
REMARK  status: ('A' for Active; 'I' for Inactive)
REMARK    1  A    between atoms: C_1  and  O_2
REMARK    2  A    between atoms: O_2  and  C_3
REMARK    3  A    between atoms: C_6  and  N_9
REMARK    4  A    between atoms: C_10  and  C_11
REMARK    5  A    between atoms: C_11  and  C_12
REMARK    6  A    between atoms: C_13  and  C_32
REMARK    7  A    between atoms: N_18  and  C_19
REMARK    8  A    between atoms: C_19  and  C_20
REMARK    9  A    between atoms: C_20  and  N_21
REMARK   10  A    between atoms: N_21  and  C_22
REMARK   11  A    between atoms: C_25  and  C_27
REMARK                            x       y       z     vdW  Elec       q    Type
REMARK                         _______ _______ _______ _____ _____    ______ ____
ROOT
ATOM      1  C   UNL     1       2.330   1.469  -0.012  0.00  0.00    +0.048 A 
ATOM      2  C   UNL     1       2.422   0.091  -0.021  0.00  0.00    +0.137 A 
ATOM      3  C   UNL     1       1.167  -0.678  -0.013  0.00  0.00    +0.291 A 
ATOM      4  O   UNL     1       1.182  -1.898  -0.020  0.00  0.00    -0.264 OA
ATOM      5  N   UNL     1       0.002  -0.004   0.002  0.00  0.00    -0.198 NA
ATOM      6  C   UNL     1      -0.016   1.300   0.009  0.00  0.00    +0.203 A 
ATOM      7  N   UNL     1       1.106   2.041   0.003  0.00  0.00    -0.332 N 
ENDROOT
BRANCH   2   8
ATOM      8  C   UNL     1       3.694  -0.567  -0.037  0.00  0.00    +0.106 C 
ATOM      9  N   UNL     1       4.703  -1.089  -0.050  0.00  0.00    -0.191 NA
ENDBRANCH   2   8
BRANCH   1  10
ATOM     10  C   UNL     1       3.574   2.320  -0.020  0.00  0.00    +0.102 C 
BRANCH  10  12
ATOM     11  N   UNL     1       5.199   2.301   1.780  0.00  0.00    -0.259 NA
ATOM     12  C   UNL     1       4.002   2.596   1.399  0.00  0.00    +0.090 C 
BRANCH  11  16
ATOM     13  C   UNL     1       6.378   3.060   5.679  0.00  0.00    +0.120 A 
ATOM     14  C   UNL     1       6.688   1.844   5.087  0.00  0.00    +0.048 A 
ATOM     15  C   UNL     1       6.297   1.587   3.790  0.00  0.00    +0.031 A 
ATOM     16  C   UNL     1       5.590   2.553   3.072  0.00  0.00    +0.064 A 
ATOM     17  C   UNL     1       5.284   3.776   3.669  0.00  0.00    +0.031 A 
ATOM     18  C   UNL     1       5.673   4.023   4.969  0.00  0.00    +0.048 A 
BRANCH  13  20
ATOM     19  C   UNL     1       6.412   4.581   7.506  0.00  0.00    +0.277 C 
ATOM     20  O   UNL     1       6.764   3.309   6.958  0.00  0.00    -0.495 OA
ENDBRANCH  13  20
ENDBRANCH  11  16
ENDBRANCH  10  12
ENDBRANCH   1  10
BRANCH   7  21
ATOM     21  C   UNL     1       0.999   3.502   0.011  0.00  0.00    +0.141 C 
BRANCH  21  22
ATOM     22  C   UNL     1       1.073   4.028  -1.424  0.00  0.00    +0.124 C 
BRANCH  22  23
ATOM     23  N   UNL     1       0.966   5.489  -1.415  0.00  0.00    -0.328 N 
ATOM     24  H   UNL     1       0.866   5.963  -0.574  0.00  0.00    +0.148 HD
BRANCH  23  25
ATOM     25  C   UNL     1       1.009   6.196  -2.611  0.00  0.00    +0.115 A 
ATOM     26  C   UNL     1       0.901   7.585  -2.596  0.00  0.00    +0.079 A 
ATOM     27  C   UNL     1       0.950   8.276  -3.794  0.00  0.00    +0.037 A 
ATOM     28  C   UNL     1       1.095   7.553  -4.971  0.00  0.00    +0.072 A 
ATOM     29  C   UNL     1       1.191   6.177  -4.912  0.00  0.00    +0.096 A 
ATOM     30 CL   UNL     1       0.713   8.437  -1.095  0.00  0.00    -0.080 Cl
ATOM     31  N   UNL     1       1.152   5.465  -3.754  0.00  0.00    -0.348 N 
ATOM     32  H   UNL     1       1.225   4.441  -3.740  0.00  0.00    +0.167 HD
BRANCH  28  33
ATOM     33  C   UNL     1       1.148   8.263  -6.299  0.00  0.00    +0.419 C 
ATOM     34  F   UNL     1       1.298   7.324  -7.324  0.00  0.00    -0.166 F 
ATOM     35  F   UNL     1      -0.038   8.980  -6.492  0.00  0.00    -0.166 F 
ATOM     36  F   UNL     1       2.234   9.145  -6.313  0.00  0.00    -0.166 F 
ENDBRANCH  28  33
ENDBRANCH  23  25
ENDBRANCH  22  23
ENDBRANCH  21  22
ENDBRANCH   7  21
TORSDOF 10
