REMARK  Name = ZINC35463160
REMARK  5 active torsions:
REMARK  status: ('A' for Active; 'I' for Inactive)
REMARK    1  A    between atoms: C_1  and  S_2
REMARK    2  A    between atoms: S_2  and  N_5
REMARK    3  A    between atoms: N_8  and  C_11
REMARK    4  A    between atoms: C_14  and  N_17
REMARK    5  A    between atoms: N_17  and  C_18
REMARK                            x       y       z     vdW  Elec       q    Type
REMARK                         _______ _______ _______ _____ _____    ______ ____
ROOT
ATOM      1  C   UNL     1       2.716  -0.721  -4.829  0.00  0.00    +0.030 A 
ATOM      2  C   UNL     1       2.055  -0.554  -6.039  0.00  0.00    +0.025 A 
ATOM      3  C   UNL     1       2.738  -0.721  -7.227  0.00  0.00    +0.025 A 
ATOM      4  C   UNL     1       4.085  -1.057  -7.213  0.00  0.00    +0.032 A 
ATOM      5  C   UNL     1       4.746  -1.225  -6.003  0.00  0.00    +0.025 A 
ATOM      6  C   UNL     1       4.065  -1.052  -4.814  0.00  0.00    +0.025 A 
ENDROOT
BRANCH   1  10
ATOM      7  N   UNL     1       1.058   0.915  -1.530  0.00  0.00    -0.178 NA
ATOM      8  C   UNL     1       2.496   0.609  -1.530  0.00  0.00    +0.128 C 
ATOM      9  C   UNL     1       2.723  -0.675  -2.337  0.00  0.00    +0.122 C 
ATOM     10  N   UNL     1       2.025  -0.551  -3.624  0.00  0.00    -0.327 N 
ATOM     11  C   UNL     1       0.587  -0.245  -3.624  0.00  0.00    +0.122 C 
ATOM     12  C   UNL     1       0.359   1.034  -2.817  0.00  0.00    +0.128 C 
BRANCH   7  14
ATOM     13  C   UNL     1      -0.348  -0.543   0.333  0.00  0.00    +0.215 C 
ATOM     14  S   UNL     1       0.240   1.116  -0.104  0.00  0.00    +0.029 S 
ATOM     15  O   UNL     1      -0.860   1.954  -0.433  0.00  0.00    -0.158 OA
ATOM     16  O   UNL     1       1.227   1.546   0.823  0.00  0.00    -0.158 OA
ENDBRANCH   7  14
ENDBRANCH   1  10
BRANCH   4  17
ATOM     17  N   UNL     1       4.777  -1.228  -8.418  0.00  0.00    -0.299 N 
ATOM     18  H   UNL     1       4.294  -1.227  -9.259  0.00  0.00    +0.154 HD
BRANCH  17  19
ATOM     19  C   UNL     1       6.144  -1.397  -8.410  0.00  0.00    +0.133 A 
ATOM     20  C   UNL     1       6.717  -2.530  -8.957  0.00  0.00    +0.014 A 
ATOM     21  C   UNL     1       8.101  -2.670  -8.933  0.00  0.00    +0.052 A 
ATOM     22  N   UNL     1       8.852  -1.729  -8.392  0.00  0.00    -0.215 NA
ATOM     23  C   UNL     1       8.313  -0.628  -7.859  0.00  0.00    +0.255 A 
ATOM     24  N   UNL     1       6.959  -0.446  -7.866  0.00  0.00    -0.182 N 
ATOM     25  N   UNL     1       6.721   0.788  -7.248  0.00  0.00    -0.151 NA
ATOM     26  C   UNL     1       7.888   1.282  -6.914  0.00  0.00    +0.247 A 
ATOM     27  N   UNL     1       8.848   0.436  -7.269  0.00  0.00    -0.197 NA
ATOM     28  C   UNL     1       8.486  -3.981  -9.586  0.00  0.00    +0.056 C 
ATOM     29  C   UNL     1       7.190  -4.817  -9.613  0.00  0.00    +0.011 C 
ATOM     30  C   UNL     1       6.091  -3.733  -9.624  0.00  0.00    +0.041 C 
ENDBRANCH  17  19
ENDBRANCH   4  17
TORSDOF 4
