REMARK  Name = ZINC20647366
REMARK  4 active torsions:
REMARK  status: ('A' for Active; 'I' for Inactive)
REMARK    1  A    between atoms: C_10  and  C_27
REMARK    2  A    between atoms: N_16  and  C_19
REMARK    3  A    between atoms: C_19  and  C_20
REMARK    4  A    between atoms: C_20  and  N_21
REMARK                            x       y       z     vdW  Elec       q    Type
REMARK                         _______ _______ _______ _____ _____    ______ ____
ROOT
ATOM      1  C   UNL     1       2.405   1.344  -0.014  0.00  0.00    +0.002 A 
ATOM      2  C   UNL     1       1.207   2.036   0.002  0.00  0.00    +0.002 A 
ATOM      3  C   UNL     1      -0.017   1.386   0.010  0.00  0.00    +0.028 A 
ATOM      4  C   UNL     1       0.002  -0.004   0.002  0.00  0.00    +0.072 A 
ATOM      5  C   UNL     1       1.229  -0.717  -0.011  0.00  0.00    +0.091 A 
ATOM      6  C   UNL     1       2.453  -0.038  -0.022  0.00  0.00    +0.030 A 
ATOM      7  N   UNL     1       0.932  -2.034  -0.008  0.00  0.00    -0.214 NA
ATOM      8  C   UNL     1      -0.357  -2.186   0.011  0.00  0.00    +0.209 A 
ATOM      9  N   UNL     1      -0.978  -0.945  -0.003  0.00  0.00    -0.284 N 
ATOM     10  C   UNL     1      -2.439  -0.840  -0.040  0.00  0.00    +0.248 C 
ATOM     11  N   UNL     1      -3.012  -2.024   0.616  0.00  0.00    -0.225 NA
ATOM     12  C   UNL     1      -2.415  -3.178   0.599  0.00  0.00    +0.189 C 
ATOM     13  N   UNL     1      -1.144  -3.320   0.065  0.00  0.00    -0.230 N 
ATOM     14  C   UNL     1      -0.694  -4.612  -0.442  0.00  0.00    +0.204 C 
ATOM     15  N   UNL     1      -1.228  -5.689   0.408  0.00  0.00    -0.269 NA
ATOM     16  C   UNL     1      -2.697  -5.599   0.484  0.00  0.00    +0.193 C 
ATOM     17  N   UNL     1      -3.045  -4.303   1.091  0.00  0.00    -0.304 N 
ATOM     18  H   UNL     1      -3.784  -4.257   1.905  0.00  0.00    +0.150 HD
ENDROOT
BRANCH  10  19
ATOM     19  C   UNL     1      -2.905  -0.780  -1.472  0.00  0.00    +0.034 A 
ATOM     20  C   UNL     1      -3.275   0.298  -2.205  0.00  0.00    +0.015 A 
ATOM     21  C   UNL     1      -3.668   0.114  -3.518  0.00  0.00    +0.008 A 
ATOM     22  C   UNL     1      -3.683  -1.141  -4.029  0.00  0.00    +0.045 A 
ATOM     23  S   UNL     1      -3.123  -2.113  -2.640  0.00  0.00    -0.098 S 
ENDBRANCH  10  19
BRANCH  15  24
ATOM     24  C   UNL     1      -0.806  -7.007  -0.086  0.00  0.00    +0.103 C 
BRANCH  24  25
ATOM     25  C   UNL     1      -1.163  -8.076   0.949  0.00  0.00    +0.100 C 
BRANCH  25  26
ATOM     26  N   UNL     1      -0.742  -9.394   0.456  0.00  0.00    -0.297 NA
ATOM     27  C   UNL     1      -1.520  -9.788  -0.728  0.00  0.00    +0.112 C 
ATOM     28  C   UNL     1      -1.009 -11.136  -1.243  0.00  0.00    +0.175 C 
ATOM     29  O   UNL     1      -1.092 -12.104  -0.194  0.00  0.00    -0.377 OA
ATOM     30  C   UNL     1      -0.345 -11.753   0.974  0.00  0.00    +0.175 C 
ATOM     31  C   UNL     1      -0.850 -10.411   1.512  0.00  0.00    +0.112 C 
ENDBRANCH  25  26
ENDBRANCH  24  25
ENDBRANCH  15  24
TORSDOF 4
