REMARK  Name = ZINC32603281
REMARK  7 active torsions:
REMARK  status: ('A' for Active; 'I' for Inactive)
REMARK    1  A    between atoms: C_1  and  C_2
REMARK    2  A    between atoms: C_2  and  N_3
REMARK    3  A    between atoms: C_5  and  C_17
REMARK    4  A    between atoms: N_19  and  CA_20
REMARK    5  A    between atoms: CA_20  and  CB_22
REMARK    6  A    between atoms: CA_20  and  C_24
REMARK    7  A    between atoms: CB_22  and  SG_23
REMARK                            x       y       z     vdW  Elec       q    Type
REMARK                         _______ _______ _______ _____ _____    ______ ____
ROOT
ATOM      1  N   UNK A   0       6.629   4.775   0.024  0.00  0.00    -0.346 N 
ATOM      2  C   UNK A   0       5.351   4.374  -0.005  0.00  0.00    +0.103 A 
ATOM      3  C   UNK A   0       4.702   4.074  -1.184  0.00  0.00    +0.100 A 
ATOM      4  C   UNK A   0       5.438   4.191  -2.452  0.00  0.00    +0.202 A 
ATOM      5  O   UNK A   0       4.910   3.932  -3.520  0.00  0.00    -0.286 OA
ATOM      6  C   UNK A   0       6.839   4.640  -2.379  0.00  0.00    +0.050 A 
ATOM      7  C   UNK A   0       7.393   4.919  -1.117  0.00  0.00    +0.056 A 
ATOM      8  C   UNK A   0       8.715   5.340  -1.030  0.00  0.00    +0.076 A 
ATOM      9  C   UNK A   0       9.474   5.482  -2.178  0.00  0.00    +0.168 A 
ATOM     10  C   UNK A   0       8.921   5.203  -3.432  0.00  0.00    +0.167 A 
ATOM     11  C   UNK A   0       7.611   4.784  -3.534  0.00  0.00    +0.063 A 
ATOM     12  O   UNK A   0       9.874   5.421  -4.386  0.00  0.00    -0.453 OA
ATOM     13  C   UNK A   0      10.880   6.227  -3.745  0.00  0.00    +0.466 C 
ATOM     14  O   UNK A   0      10.769   5.874  -2.354  0.00  0.00    -0.453 OA
ENDROOT
BRANCH   3  15
ATOM     15  C   UNK A   0       3.297   3.638  -1.173  0.00  0.00    +0.250 C 
ATOM     16  O   UNK A   0       2.733   3.375  -2.218  0.00  0.00    -0.270 OA
ATOM     17  N   CYS A   1       2.634   3.529  -0.004  0.00  0.00    -0.297 N 
ATOM     18  H   CYS A   1       3.144   3.766   0.941  0.00  0.00    +0.150 HD
BRANCH  17  19
ATOM     19  CA  CYS A   1       1.235   3.094   0.007  0.00  0.00    +0.196 C 
BRANCH  19  20
ATOM     20  C   CYS A   1       1.177   1.588  -0.001  0.00  0.00    +0.377 C 
ATOM     21  O   CYS A   1       2.199   0.944  -0.014  0.00  0.00    -0.244 OA
ATOM     22  OXT CYS A   1      -0.011   0.963   0.007  0.00  0.00    -0.244 OA
ENDBRANCH  19  20
BRANCH  19  23
ATOM     23  CB  CYS A   1       0.546   3.625   1.266  0.00  0.00    +0.099 C 
BRANCH  23  24
ATOM     24  SG  CYS A   1       0.485   5.437   1.203  0.00  0.00    -0.176 S 
ATOM     25  HG  CYS A   1       0.023   6.000   2.027  0.00  0.00    +0.102 HD
ENDBRANCH  23  24
ENDBRANCH  19  23
ENDBRANCH  17  19
ENDBRANCH   3  15
BRANCH   1  27
ATOM     26  C   UNK A   0       7.137   6.573   1.602  0.00  0.00    +0.027 C 
ATOM     27  C   UNK A   0       7.242   5.073   1.320  0.00  0.00    +0.118 C 
ENDBRANCH   1  27
TORSDOF 6
