REMARK  Name = ZINC13811731
REMARK  6 active torsions:
REMARK  status: ('A' for Active; 'I' for Inactive)
REMARK    1  A    between atoms: C_1  and  C_2
REMARK    2  A    between atoms: C_4  and  C_39
REMARK    3  A    between atoms: C_9  and  C_28
REMARK    4  A    between atoms: C_11  and  C_19
REMARK    5  A    between atoms: C_22  and  N_25
REMARK    6  A    between atoms: C_28  and  C_30
REMARK                            x       y       z     vdW  Elec       q    Type
REMARK                         _______ _______ _______ _____ _____    ______ ____
ROOT
ATOM      1  C   UNL     1      -0.020   1.597   0.148  0.00  0.00    +0.044 C 
ATOM      2  C   UNL     1       0.024   0.091   0.104  0.00  0.00    -0.050 A 
ATOM      3  C   UNL     1       0.065  -0.566  -1.113  0.00  0.00    +0.008 A 
ATOM      4  C   UNL     1       0.106  -1.943  -1.160  0.00  0.00    -0.029 A 
ATOM      5  C   UNL     1       0.106  -2.685   0.020  0.00  0.00    +0.042 A 
ATOM      6  C   UNL     1       0.064  -2.014   1.237  0.00  0.00    +0.004 A 
ATOM      7  C   UNL     1       0.030  -0.638   1.280  0.00  0.00    +0.011 A 
ATOM      8  C   UNL     1       0.071  -3.080   2.300  0.00  0.00    +0.137 C 
ATOM      9  C   UNL     1      -1.195  -3.006   3.160  0.00  0.00    +0.103 C 
ATOM     10  C   UNL     1      -0.709  -2.429   4.511  0.00  0.00    +0.050 C 
ATOM     11  C   UNL     1       0.763  -2.860   4.564  0.00  0.00    +0.077 C 
ATOM     12  N   UNL     1       1.243  -2.941   3.180  0.00  0.00    -0.271 NA
ATOM     13  C   UNL     1       1.989  -1.714   2.760  0.00  0.00    +0.155 C 
ATOM     14  S   UNL     1       2.858  -1.293   4.333  0.00  0.00    -0.144 S 
ATOM     15  C   UNL     1       1.576  -1.931   5.478  0.00  0.00    +0.090 C 
ATOM     16  C   UNL     1       0.125  -4.380   1.538  0.00  0.00    +0.243 C 
ATOM     17  O   UNL     1       0.148  -5.496   2.013  0.00  0.00    -0.273 OA
ATOM     18  N   UNL     1       0.143  -4.065   0.230  0.00  0.00    -0.283 N 
ATOM     19  C   UNL     1       0.151  -2.649  -2.491  0.00  0.00    +0.045 C 
ATOM     20  H   UNL     1       0.177  -4.720  -0.484  0.00  0.00    +0.155 HD
ENDROOT
BRANCH  10  21
ATOM     21  C   UNL     1      -1.486  -3.028   5.655  0.00  0.00    -0.042 A 
ATOM     22  C   UNL     1      -1.456  -4.393   5.870  0.00  0.00    +0.006 A 
ATOM     23  C   UNL     1      -2.168  -4.943   6.920  0.00  0.00    +0.033 A 
ATOM     24  C   UNL     1      -2.909  -4.127   7.755  0.00  0.00    +0.126 A 
ATOM     25  C   UNL     1      -2.938  -2.762   7.540  0.00  0.00    +0.033 A 
ATOM     26  C   UNL     1      -2.222  -2.212   6.492  0.00  0.00    +0.006 A 
BRANCH  24  27
ATOM     27  N   UNL     1      -3.672  -4.716   8.878  0.00  0.00    +0.056 N 
ATOM     28  O   UNL     1      -3.647  -5.910   9.066  0.00  0.00    -0.126 OA
ATOM     29  O   UNL     1      -4.321  -4.002   9.608  0.00  0.00    -0.126 OA
ENDBRANCH  24  27
ENDBRANCH  10  21
BRANCH   9  30
ATOM     30  C   UNL     1      -2.208  -2.087   2.526  0.00  0.00    +0.171 C 
ATOM     31  O   UNL     1      -2.244  -0.916   2.839  0.00  0.00    -0.292 OA
BRANCH  30  32
ATOM     32  C   UNL     1      -3.155  -2.612   1.529  0.00  0.00    +0.036 A 
ATOM     33  C   UNL     1      -4.099  -1.767   0.927  0.00  0.00    +0.014 A 
ATOM     34  C   UNL     1      -4.965  -2.310  -0.004  0.00  0.00    +0.020 A 
ATOM     35  C   UNL     1      -4.873  -3.657  -0.310  0.00  0.00    +0.111 A 
ATOM     36  N   UNL     1      -3.974  -4.429   0.271  0.00  0.00    -0.263 NA
ATOM     37  C   UNL     1      -3.124  -3.960   1.160  0.00  0.00    +0.122 A 
ENDBRANCH  30  32
ENDBRANCH   9  30
TORSDOF 4
