REMARK  Name = ZINC40335674
REMARK  5 active torsions:
REMARK  status: ('A' for Active; 'I' for Inactive)
REMARK    1  A    between atoms: C_1  and  C_2
REMARK    2  A    between atoms: C_2  and  C_4
REMARK    3  A    between atoms: C_2  and  N_11
REMARK    4  A    between atoms: C_12  and  C_14
REMARK    5  A    between atoms: C_16  and  N_20
REMARK                            x       y       z     vdW  Elec       q    Type
REMARK                         _______ _______ _______ _____ _____    ______ ____
ROOT
ATOM      1  N   UNL     1       0.688  -0.476  -1.203  0.00  0.00    -0.304 N 
ATOM      2  C   UNL     1       0.006  -0.608  -2.358  0.00  0.00    +0.261 C 
ATOM      3  O   UNL     1      -1.179  -0.335  -2.400  0.00  0.00    -0.269 OA
ATOM      4  H   UNL     1       1.632  -0.695  -1.170  0.00  0.00    +0.150 HD
ENDROOT
BRANCH   2   5
ATOM      5  C   UNL     1       0.693  -1.081  -3.565  0.00  0.00    +0.104 A 
ATOM      6  C   UNL     1       0.124  -1.257  -4.809  0.00  0.00    +0.055 A 
ATOM      7  C   UNL     1       1.134  -1.719  -5.664  0.00  0.00    +0.043 A 
ATOM      8  C   UNL     1       2.279  -1.815  -4.938  0.00  0.00    +0.106 A 
ATOM      9  N   UNL     1       2.022  -1.424  -3.662  0.00  0.00    -0.355 N 
ATOM     10  H   UNL     1       2.667  -1.394  -2.938  0.00  0.00    +0.166 HD
BRANCH   7  11
ATOM     11  N   UNL     1       0.989  -2.028  -7.029  0.00  0.00    -0.357 N 
ATOM     12  H   UNL     1       0.126  -1.927  -7.460  0.00  0.00    +0.142 HD
ATOM     13  H   UNL     1       1.752  -2.343  -7.539  0.00  0.00    +0.142 HD
ENDBRANCH   7  11
ENDBRANCH   2   5
BRANCH   1  15
ATOM     14  C   UNL     1      -0.019   1.526   0.010  0.00  0.00    +0.033 C 
ATOM     15  C   UNL     1       0.002  -0.004   0.002  0.00  0.00    +0.100 C 
BRANCH  15  16
ATOM     16  C   UNL     1       0.731  -0.503   1.223  0.00  0.00    -0.026 A 
ATOM     17  C   UNL     1       2.113  -0.514   1.247  0.00  0.00    +0.005 A 
ATOM     18  C   UNL     1       2.782  -0.971   2.366  0.00  0.00    +0.001 A 
ATOM     19  C   UNL     1       2.070  -1.419   3.463  0.00  0.00    +0.015 A 
ATOM     20  C   UNL     1       0.687  -1.409   3.440  0.00  0.00    +0.018 A 
ATOM     21  C   UNL     1       0.018  -0.945   2.321  0.00  0.00    +0.020 A 
ATOM     22 BR   UNL     1      -0.289  -2.021   4.939  0.00  0.00    -0.050 Br
ENDBRANCH  15  16
ENDBRANCH   1  15
TORSDOF 4
