REMARK  Name = ZINC36694432
REMARK  8 active torsions:
REMARK  status: ('A' for Active; 'I' for Inactive)
REMARK    1  A    between atoms: C_1  and  C_2
REMARK    2  A    between atoms: C_7  and  C_9
REMARK    3  A    between atoms: C_7  and  C_10
REMARK    4  A    between atoms: N_13  and  C_17
REMARK    5  A    between atoms: C_17  and  C_18
REMARK    6  A    between atoms: N_20  and  C_21
REMARK    7  A    between atoms: C_21  and  C_23
REMARK    8  A    between atoms: C_21  and  C_24
REMARK                            x       y       z     vdW  Elec       q    Type
REMARK                         _______ _______ _______ _____ _____    ______ ____
ROOT
ATOM      1  C   UNL     1      -1.206   2.543  -0.184  0.00  0.00    +0.007 C 
ATOM      2  C   UNL     1      -1.105   1.028   0.022  0.00  0.00    -0.011 C 
ATOM      3  C   UNL     1      -0.179   0.435  -1.041  0.00  0.00    +0.038 C 
ATOM      4  C   UNL     1      -0.110  -1.077  -0.876  0.00  0.00    +0.113 C 
ATOM      5  C   UNL     1       0.280  -1.501   0.526  0.00  0.00    +0.041 C 
ATOM      6  C   UNL     1      -0.414  -0.757   1.653  0.00  0.00    -0.032 C 
ATOM      7  C   UNL     1      -0.510   0.743   1.399  0.00  0.00    +0.009 C 
ATOM      8  C   UNL     1       0.412  -0.964   2.941  0.00  0.00    +0.011 C 
ATOM      9  C   UNL     1      -1.809  -1.337   1.906  0.00  0.00    +0.011 C 
ATOM     10  C   UNL     1      -1.393  -1.727  -1.331  0.00  0.00    +0.247 C 
ATOM     11  O   UNL     1      -2.526  -1.485  -0.972  0.00  0.00    -0.273 OA
ATOM     12  N   UNL     1      -1.033  -2.639  -2.261  0.00  0.00    -0.215 N 
ATOM     13  C   UNL     1       0.271  -2.560  -2.545  0.00  0.00    +0.310 C 
ATOM     14  O   UNL     1       0.830  -3.268  -3.361  0.00  0.00    -0.252 OA
ATOM     15  N   UNL     1       0.894  -1.611  -1.825  0.00  0.00    -0.285 N 
ATOM     16  H   UNL     1       1.815  -1.323  -1.900  0.00  0.00    +0.151 HD
ENDROOT
BRANCH  12  17
ATOM     17  C   UNL     1      -1.957  -3.594  -2.877  0.00  0.00    +0.213 C 
BRANCH  17  18
ATOM     18  C   UNL     1      -2.556  -2.984  -4.118  0.00  0.00    +0.231 C 
ATOM     19  O   UNL     1      -2.243  -1.862  -4.454  0.00  0.00    -0.274 OA
ATOM     20  N   UNL     1      -3.441  -3.686  -4.854  0.00  0.00    -0.307 N 
ATOM     21  H   UNL     1      -3.692  -4.583  -4.585  0.00  0.00    +0.149 HD
BRANCH  20  22
ATOM     22  C   UNL     1      -4.024  -3.093  -6.060  0.00  0.00    +0.102 C 
ATOM     23  C   UNL     1      -3.110  -3.367  -7.256  0.00  0.00    +0.033 C 
BRANCH  22  24
ATOM     24  C   UNL     1      -5.379  -3.701  -6.314  0.00  0.00    -0.009 A 
ATOM     25  C   UNL     1      -5.658  -4.979  -5.867  0.00  0.00    +0.008 A 
ATOM     26  C   UNL     1      -6.901  -5.537  -6.100  0.00  0.00    +0.020 A 
ATOM     27  C   UNL     1      -7.867  -4.816  -6.780  0.00  0.00    +0.042 A 
ATOM     28  C   UNL     1      -7.588  -3.538  -7.227  0.00  0.00    +0.040 A 
ATOM     29  C   UNL     1      -6.346  -2.978  -6.989  0.00  0.00    +0.047 A 
ATOM     30 CL   UNL     1      -5.997  -1.370  -7.545  0.00  0.00    -0.083 Cl
ATOM     31 CL   UNL     1      -9.428  -5.518  -7.073  0.00  0.00    -0.083 Cl
ENDBRANCH  22  24
ENDBRANCH  20  22
ENDBRANCH  17  18
ENDBRANCH  12  17
TORSDOF 4
