REMARK  Name = ZINC14579221
REMARK  11 active torsions:
REMARK  status: ('A' for Active; 'I' for Inactive)
REMARK    1  A    between atoms: C_1  and  C_2
REMARK    2  A    between atoms: C_2  and  C_3
REMARK    3  A    between atoms: C_2  and  C_4
REMARK    4  A    between atoms: C_4  and  C_5
REMARK    5  A    between atoms: C_5  and  N_6
REMARK    6  A    between atoms: N_6  and  C_7
REMARK    7  A    between atoms: C_8  and  N_23
REMARK    8  A    between atoms: N_9  and  C_16
REMARK    9  A    between atoms: C_16  and  C_17
REMARK   10  A    between atoms: C_24  and  C_26
REMARK   11  A    between atoms: C_26  and  C_27
REMARK                            x       y       z     vdW  Elec       q    Type
REMARK                         _______ _______ _______ _____ _____    ______ ____
ROOT
ATOM      1  C   UNL     1      -1.103  -2.102  -0.012  0.00  0.00    +0.140 A 
ATOM      2  C   UNL     1      -0.449  -2.766  -1.030  0.00  0.00    +0.128 A 
ATOM      3  N   UNL     1      -0.496  -4.140  -1.074  0.00  0.00    -0.276 N 
ATOM      4  C   UNL     1      -1.181  -4.828  -0.142  0.00  0.00    +0.331 A 
ATOM      5  O   UNL     1      -1.215  -6.042  -0.201  0.00  0.00    -0.246 OA
ATOM      6  N   UNL     1      -1.828  -4.197   0.854  0.00  0.00    -0.273 N 
ATOM      7  H   UNL     1      -2.329  -4.732   1.535  0.00  0.00    +0.173 HD
ATOM      8  C   UNL     1      -1.809  -2.853   0.946  0.00  0.00    +0.277 A 
ATOM      9  O   UNL     1      -2.399  -2.291   1.853  0.00  0.00    -0.266 OA
ENDROOT
BRANCH   1  10
ATOM     10  N   UNL     1      -1.069  -0.693   0.063  0.00  0.00    -0.264 N 
ATOM     11  C   UNL     1       0.105  -0.056   0.254  0.00  0.00    +0.224 C 
ATOM     12  O   UNL     1       1.119  -0.695   0.443  0.00  0.00    -0.275 OA
BRANCH  10  13
ATOM     13  C   UNL     1      -2.308   0.077  -0.065  0.00  0.00    +0.114 C 
BRANCH  13  14
ATOM     14  C   UNL     1      -2.572   0.377  -1.542  0.00  0.00    +0.022 C 
BRANCH  14  16
ATOM     15  C   UNL     1      -3.689   2.548  -1.012  0.00  0.00    +0.007 C 
ATOM     16  C   UNL     1      -3.866   1.181  -1.677  0.00  0.00    -0.016 C 
ATOM     17  C   UNL     1      -4.196   1.374  -3.158  0.00  0.00    +0.007 C 
ENDBRANCH  14  16
ENDBRANCH  13  14
ENDBRANCH  10  13
BRANCH  11  18
ATOM     18  C   UNL     1       0.157   1.450   0.230  0.00  0.00    +0.133 C 
BRANCH  18  19
ATOM     19  C   UNL     1       1.573   1.908   0.467  0.00  0.00    -0.020 A 
ATOM     20  C   UNL     1       2.363   2.291  -0.601  0.00  0.00    +0.007 A 
ATOM     21  C   UNL     1       3.662   2.711  -0.385  0.00  0.00    +0.020 A 
ATOM     22  C   UNL     1       4.173   2.748   0.900  0.00  0.00    +0.042 A 
ATOM     23  C   UNL     1       3.383   2.365   1.969  0.00  0.00    +0.040 A 
ATOM     24  C   UNL     1       2.081   1.950   1.753  0.00  0.00    +0.046 A 
ATOM     25 CL   UNL     1       1.087   1.475   3.095  0.00  0.00    -0.083 Cl
ATOM     26 CL   UNL     1       5.804   3.275   1.171  0.00  0.00    -0.083 Cl
ENDBRANCH  18  19
ENDBRANCH  11  18
ENDBRANCH   1  10
BRANCH   2  27
ATOM     27  N   UNL     1       0.246  -2.063  -1.985  0.00  0.00    -0.343 N 
ATOM     28  H   UNL     1       0.190  -1.095  -2.011  0.00  0.00    +0.144 HD
ATOM     29  H   UNL     1       0.791  -2.536  -2.633  0.00  0.00    +0.144 HD
ENDBRANCH   2  27
BRANCH   3  30
ATOM     30  C   UNL     1       0.197  -4.859  -2.146  0.00  0.00    +0.163 C 
BRANCH  30  31
ATOM     31  C   UNL     1      -0.734  -5.033  -3.318  0.00  0.00    -0.028 A 
ATOM     32  C   UNL     1      -1.534  -6.157  -3.404  0.00  0.00    +0.005 A 
ATOM     33  C   UNL     1      -2.391  -6.314  -4.477  0.00  0.00    +0.000 A 
ATOM     34  C   UNL     1      -2.441  -5.352  -5.469  0.00  0.00    +0.000 A 
ATOM     35  C   UNL     1      -1.637  -4.231  -5.385  0.00  0.00    +0.000 A 
ATOM     36  C   UNL     1      -0.783  -4.071  -4.310  0.00  0.00    +0.005 A 
ENDBRANCH  30  31
ENDBRANCH   3  30
TORSDOF 9
