REMARK  Name = ZINC20701257
REMARK  4 active torsions:
REMARK  status: ('A' for Active; 'I' for Inactive)
REMARK    1  A    between atoms: C_3  and  O_29
REMARK    2  A    between atoms: C_6  and  N_7
REMARK    3  A    between atoms: C_17  and  C_20
REMARK    4  A    between atoms: C_25  and  O_26
REMARK                            x       y       z     vdW  Elec       q    Type
REMARK                         _______ _______ _______ _____ _____    ______ ____
ROOT
ATOM      1  C   UNL     1      -5.090   2.143   1.387  0.00  0.00    +0.037 A 
ATOM      2  C   UNL     1      -4.450   2.297   2.604  0.00  0.00    +0.049 A 
ATOM      3  C   UNL     1      -3.123   1.941   2.739  0.00  0.00    +0.138 A 
ATOM      4  C   UNL     1      -2.407   1.421   1.654  0.00  0.00    +0.076 A 
ATOM      5  C   UNL     1      -3.074   1.256   0.439  0.00  0.00    +0.014 A 
ATOM      6  C   UNL     1      -4.398   1.624   0.311  0.00  0.00    +0.132 A 
ATOM      7  C   UNL     1      -2.321   0.657  -0.685  0.00  0.00    +0.051 C 
ATOM      8  C   UNL     1      -2.625   0.959  -2.105  0.00  0.00    -0.023 C 
ATOM      9  C   UNL     1      -1.496   0.892  -2.801  0.00  0.00    -0.030 C 
ATOM     10  C   UNL     1      -0.326   0.570  -1.869  0.00  0.00    +0.033 C 
ATOM     11  C   UNL     1      -0.837   1.120  -0.534  0.00  0.00    +0.029 C 
ATOM     12  C   UNL     1      -0.359   0.455   0.740  0.00  0.00    +0.109 C 
ATOM     13  N   UNL     1      -1.064   1.102   1.859  0.00  0.00    -0.333 N 
ATOM     14  H   UNL     1      -0.530   1.311   2.798  0.00  0.00    +0.147 HD
ENDROOT
BRANCH  12  15
ATOM     15  C   UNL     1       1.128   0.644   0.892  0.00  0.00    +0.017 A 
ATOM     16  C   UNL     1       1.620   1.749   1.559  0.00  0.00    +0.029 A 
ATOM     17  C   UNL     1       2.985   1.924   1.699  0.00  0.00    +0.043 A 
ATOM     18  C   UNL     1       3.861   0.992   1.171  0.00  0.00    +0.043 A 
ATOM     19  C   UNL     1       3.373  -0.116   0.503  0.00  0.00    +0.084 A 
ATOM     20  C   UNL     1       2.003  -0.294   0.367  0.00  0.00    +0.140 A 
ATOM     21 CL   UNL     1       4.473  -1.285  -0.159  0.00  0.00    -0.080 Cl
ATOM     22 CL   UNL     1       3.600   3.314   2.537  0.00  0.00    -0.083 Cl
BRANCH  20  23
ATOM     23  O   UNL     1       1.521  -1.386  -0.285  0.00  0.00    -0.505 OA
ATOM     24  H   UNL     1       2.216  -2.130  -0.702  0.00  0.00    +0.292 HD
ENDBRANCH  20  23
ENDBRANCH  12  15
BRANCH   6  25
ATOM     25  N   UNL     1      -5.082   1.460  -0.991  0.00  0.00    +0.057 N 
ATOM     26  O   UNL     1      -5.679   2.399  -1.488  0.00  0.00    -0.126 OA
ATOM     27  O   UNL     1      -5.049   0.387  -1.566  0.00  0.00    -0.126 OA
ENDBRANCH   6  25
BRANCH   3  28
ATOM     28  O   UNL     1      -2.504   2.098   3.940  0.00  0.00    -0.505 OA
ATOM     29  H   UNL     1      -1.446   1.816   4.055  0.00  0.00    +0.292 HD
ENDBRANCH   3  28
TORSDOF 4
