REMARK  Name = ZINC67470190
REMARK  9 active torsions:
REMARK  status: ('A' for Active; 'I' for Inactive)
REMARK    1  A    between atoms: C_1  and  C_2
REMARK    2  A    between atoms: C_2  and  C_3
REMARK    3  A    between atoms: C_2  and  C_4
REMARK    4  A    between atoms: C_2  and  N_12
REMARK    5  A    between atoms: C_4  and  C_5
REMARK    6  A    between atoms: N_15  and  C_16
REMARK    7  A    between atoms: N_15  and  C_17
REMARK    8  A    between atoms: C_17  and  C_18
REMARK    9  A    between atoms: C_22  and  O_24
REMARK                            x       y       z     vdW  Elec       q    Type
REMARK                         _______ _______ _______ _____ _____    ______ ____
ROOT
ATOM      1  N   UNL     1       0.688  -0.476  -1.203  0.00  0.00    -0.294 N 
ATOM      2  C   UNL     1       1.972  -0.132  -1.427  0.00  0.00    +0.303 C 
ATOM      3  O   UNL     1       2.561   0.570  -0.628  0.00  0.00    -0.253 OA
ATOM      4  N   UNL     1       2.602  -0.567  -2.536  0.00  0.00    -0.284 N 
ATOM      5  C   UNL     1       1.893  -1.414  -3.498  0.00  0.00    +0.134 C 
ATOM      6  H   UNL     1       0.218  -1.037  -1.840  0.00  0.00    +0.151 HD
ENDROOT
BRANCH   1   8
ATOM      7  C   UNL     1      -0.019   1.526   0.010  0.00  0.00    +0.031 C 
ATOM      8  C   UNL     1       0.002  -0.004   0.002  0.00  0.00    +0.034 C 
ATOM      9  C   UNL     1       0.742  -0.511   1.242  0.00  0.00    +0.031 C 
BRANCH   8  10
ATOM     10  C   UNL     1      -1.433  -0.534   0.013  0.00  0.00    +0.060 C 
BRANCH  10  11
ATOM     11  C   UNL     1      -2.139  -0.048   1.253  0.00  0.00    -0.045 A 
ATOM     12  C   UNL     1      -2.093  -0.798   2.413  0.00  0.00    +0.005 A 
ATOM     13  C   UNL     1      -2.739  -0.352   3.550  0.00  0.00    +0.015 A 
ATOM     14  C   UNL     1      -3.432   0.845   3.528  0.00  0.00    +0.018 A 
ATOM     15  C   UNL     1      -3.478   1.595   2.367  0.00  0.00    +0.015 A 
ATOM     16  C   UNL     1      -2.827   1.151   1.231  0.00  0.00    +0.005 A 
ATOM     17 BR   UNL     1      -4.317   1.454   5.084  0.00  0.00    -0.050 Br
ENDBRANCH  10  11
ENDBRANCH   8  10
ENDBRANCH   1   8
BRANCH   4  18
ATOM     18  C   UNL     1       3.998  -0.193  -2.779  0.00  0.00    +0.144 C 
BRANCH  18  19
ATOM     19  C   UNL     1       4.909  -1.223  -2.162  0.00  0.00    -0.027 A 
ATOM     20  C   UNL     1       5.333  -1.075  -0.855  0.00  0.00    +0.005 A 
ATOM     21  C   UNL     1       6.169  -2.018  -0.286  0.00  0.00    +0.004 A 
ATOM     22  C   UNL     1       6.583  -3.110  -1.024  0.00  0.00    +0.045 A 
ATOM     23  C   UNL     1       6.158  -3.261  -2.336  0.00  0.00    +0.117 A 
ATOM     24  C   UNL     1       5.315  -2.316  -2.902  0.00  0.00    +0.050 A 
BRANCH  23  25
ATOM     25  O   UNL     1       6.564  -4.335  -3.063  0.00  0.00    -0.507 OA
ATOM     26  H   UNL     1       5.978  -5.101  -2.994  0.00  0.00    +0.292 HD
ENDBRANCH  23  25
ENDBRANCH  18  19
ENDBRANCH   4  18
TORSDOF 6
