REMARK  Name = ZINC39928336
REMARK  11 active torsions:
REMARK  status: ('A' for Active; 'I' for Inactive)
REMARK    1  A    between atoms: C_1  and  C_2
REMARK    2  A    between atoms: C_2  and  O_3
REMARK    3  A    between atoms: O_3  and  C_4
REMARK    4  A    between atoms: C_4  and  C_6
REMARK    5  A    between atoms: N_10  and  C_29
REMARK    6  A    between atoms: C_15  and  N_17
REMARK    7  A    between atoms: C_18  and  C_20
REMARK    8  A    between atoms: C_20  and  S_21
REMARK    9  A    between atoms: S_21  and  C_22
REMARK   10  A    between atoms: C_25  and  C_28
REMARK   11  A    between atoms: C_29  and  C_30
REMARK                            x       y       z     vdW  Elec       q    Type
REMARK                         _______ _______ _______ _____ _____    ______ ____
ROOT
ATOM      1  C   UNL     1       1.451  -2.345  -2.520  0.00  0.00    +0.067 C 
ATOM      2  C   UNL     1       1.556  -3.637  -2.691  0.00  0.00    -0.048 C 
ATOM      3  C   UNL     1       1.139  -4.712  -1.686  0.00  0.00    +0.014 C 
ATOM      4  C   UNL     1       1.230  -6.043  -2.441  0.00  0.00    -0.074 C 
ATOM      5  N   UNL     1       2.577  -6.319  -2.923  0.00  0.00    +0.383 N 
ATOM      6  C   UNL     1       3.264  -5.168  -3.507  0.00  0.00    -0.060 C 
ATOM      7  C   UNL     1       2.245  -4.128  -3.975  0.00  0.00    +0.058 C 
ATOM      8  S   UNL     1       3.102  -2.596  -4.517  0.00  0.00    -0.128 S 
ATOM      9  C   UNL     1       2.035  -1.420  -3.573  0.00  0.00    +0.169 C 
ATOM     10  H   UNL     1       2.523  -7.047  -3.621  0.00  0.00    -0.081 HD
ENDROOT
BRANCH   9  11
ATOM     11  N   UNL     1       2.837  -0.359  -2.957  0.00  0.00    -0.299 N 
ATOM     12  C   UNL     1       4.042  -0.042  -3.470  0.00  0.00    +0.224 C 
ATOM     13  O   UNL     1       4.463  -0.634  -4.441  0.00  0.00    -0.275 OA
ATOM     14  H   UNL     1       2.501   0.114  -2.180  0.00  0.00    +0.150 HD
BRANCH  12  15
ATOM     15  C   UNL     1       4.867   1.049  -2.837  0.00  0.00    +0.173 C 
BRANCH  15  16
ATOM     16  S   UNL     1       6.424   1.237  -3.749  0.00  0.00    -0.077 S 
BRANCH  16  17
ATOM     17  C   UNL     1       7.263   2.531  -2.898  0.00  0.00    +0.185 A 
ATOM     18  H   UNL     1       9.056   2.746  -3.935  0.00  0.00    +0.191 HD
ATOM     19  N   UNL     1       6.819   3.181  -1.843  0.00  0.00    -0.206 NA
ATOM     20  C   UNL     1       7.716   4.092  -1.465  0.00  0.00    +0.149 A 
ATOM     21  N   UNL     1       8.744   4.039  -2.269  0.00  0.00    -0.157 NA
ATOM     22  N   UNL     1       8.480   3.029  -3.207  0.00  0.00    -0.254 N 
ATOM     23  C   UNL     1       7.568   5.033  -0.297  0.00  0.00    +0.090 C 
ENDBRANCH  16  17
ENDBRANCH  15  16
ENDBRANCH  12  15
ENDBRANCH   9  11
BRANCH   1  24
ATOM     24  C   UNL     1       0.776  -1.799  -1.335  0.00  0.00    +0.338 C 
ATOM     25  O   UNL     1       0.312  -2.550  -0.500  0.00  0.00    -0.245 OA
BRANCH  24  26
ATOM     26  O   UNL     1       0.671  -0.465  -1.174  0.00  0.00    -0.462 OA
BRANCH  26  28
ATOM     27  C   UNL     1      -0.019   1.526   0.010  0.00  0.00    +0.048 C 
ATOM     28  C   UNL     1       0.002  -0.004   0.002  0.00  0.00    +0.229 C 
ENDBRANCH  26  28
ENDBRANCH  24  26
ENDBRANCH   1  24
BRANCH   5  29
ATOM     29  C   UNL     1       3.380  -6.819  -1.799  0.00  0.00    -0.043 C 
BRANCH  29  30
ATOM     30  C   UNL     1       2.829  -8.144  -1.338  0.00  0.00    -0.064 A 
ATOM     31  C   UNL     1       1.850  -8.184  -0.362  0.00  0.00    +0.002 A 
ATOM     32  C   UNL     1       1.345  -9.399   0.061  0.00  0.00    +0.000 A 
ATOM     33  C   UNL     1       1.818 -10.574  -0.492  0.00  0.00    +0.000 A 
ATOM     34  C   UNL     1       2.796 -10.534  -1.468  0.00  0.00    +0.000 A 
ATOM     35  C   UNL     1       3.298  -9.319  -1.895  0.00  0.00    +0.002 A 
ENDBRANCH  29  30
ENDBRANCH   5  29
TORSDOF 9
