REMARK  Name = ZINC13500864
REMARK  16 active torsions:
REMARK  status: ('A' for Active; 'I' for Inactive)
REMARK    1  A    between atoms: C_1  and  C_2
REMARK    2  A    between atoms: C_2  and  C_3
REMARK    3  A    between atoms: C_3  and  C_4
REMARK    4  A    between atoms: C_4  and  C_6
REMARK    5  A    between atoms: C_4  and  N_16
REMARK    6  A    between atoms: N_10  and  C_11
REMARK    7  A    between atoms: C_11  and  C_12
REMARK    8  A    between atoms: C_11  and  C_13
REMARK    9  A    between atoms: C_11  and  C_14
REMARK   10  A    between atoms: C_14  and  C_15
REMARK   11  A    between atoms: N_16  and  C_17
REMARK   12  A    between atoms: N_16  and  C_26
REMARK   13  A    between atoms: C_17  and  C_18
REMARK   14  A    between atoms: C_23  and  O_24
REMARK   15  A    between atoms: O_24  and  C_25
REMARK   16  A    between atoms: C_26  and  C_27
REMARK                            x       y       z     vdW  Elec       q    Type
REMARK                         _______ _______ _______ _____ _____    ______ ____
ROOT
ATOM      1  N   UNL     1      -0.030  -2.841   1.560  0.00  0.00    -0.284 NA
ENDROOT
BRANCH   1   2
ATOM      2  C   UNL     1      -1.219  -2.899   0.699  0.00  0.00    +0.127 C 
BRANCH   2   3
ATOM      3  C   UNL     1      -1.972  -1.597   0.793  0.00  0.00    +0.169 A 
ATOM      4  N   UNL     1      -1.455  -0.405   0.962  0.00  0.00    -0.112 NA
ATOM      5  N   UNL     1      -2.421   0.447   0.991  0.00  0.00    -0.023 NA
ATOM      6  N   UNL     1      -3.541  -0.170   0.845  0.00  0.00    -0.043 NA
ATOM      7  N   UNL     1      -3.305  -1.432   0.715  0.00  0.00    -0.222 N 
BRANCH   7   8
ATOM      8  C   UNL     1      -4.303  -2.488   0.521  0.00  0.00    +0.061 C 
ATOM      9  C   UNL     1      -3.935  -3.317  -0.711  0.00  0.00    +0.036 C 
ATOM     10  C   UNL     1      -4.333  -3.393   1.754  0.00  0.00    +0.036 C 
BRANCH   8  11
ATOM     11  C   UNL     1      -5.681  -1.856   0.318  0.00  0.00    +0.026 C 
ATOM     12  C   UNL     1      -6.723  -2.958   0.116  0.00  0.00    +0.006 C 
ENDBRANCH   8  11
ENDBRANCH   7   8
ENDBRANCH   2   3
BRANCH   2  13
ATOM     13  C   UNL     1      -0.789  -3.136  -0.750  0.00  0.00    +0.026 C 
BRANCH  13  15
ATOM     14  C   UNL     1       0.271  -4.769  -2.315  0.00  0.00    +0.004 C 
ATOM     15  C   UNL     1      -0.033  -4.463  -0.848  0.00  0.00    -0.001 C 
ENDBRANCH  13  15
ENDBRANCH   2  13
ENDBRANCH   1   2
BRANCH   1  16
ATOM     16  C   UNL     1       0.353  -4.183   2.020  0.00  0.00    +0.124 C 
BRANCH  16  17
ATOM     17  C   UNL     1       1.284  -4.062   3.199  0.00  0.00    +0.008 A 
ATOM     18  C   UNL     1       2.633  -4.318   3.043  0.00  0.00    +0.008 A 
ATOM     19  C   UNL     1       3.488  -4.208   4.124  0.00  0.00    +0.001 A 
ATOM     20  C   UNL     1       2.996  -3.842   5.363  0.00  0.00    +0.004 A 
ATOM     21  C   UNL     1       1.648  -3.585   5.524  0.00  0.00    +0.046 A 
ATOM     22  C   UNL     1       0.789  -3.689   4.439  0.00  0.00    +0.124 A 
BRANCH  22  23
ATOM     23  O   UNL     1      -0.536  -3.432   4.594  0.00  0.00    -0.495 OA
ATOM     24  C   UNL     1      -0.976  -3.053   5.900  0.00  0.00    +0.277 C 
ENDBRANCH  22  23
ENDBRANCH  16  17
ENDBRANCH   1  16
BRANCH   1  25
ATOM     25  C   UNL     1       1.087  -2.182   0.870  0.00  0.00    +0.126 C 
BRANCH  25  26
ATOM     26  C   UNL     1       0.943  -0.687   0.994  0.00  0.00    +0.031 A 
ATOM     27  C   UNL     1       1.271  -0.070   2.158  0.00  0.00    +0.020 A 
ATOM     28  C   UNL     1       1.120   1.381   2.247  0.00  0.00    +0.003 A 
ATOM     29  C   UNL     1       1.442   2.070   3.423  0.00  0.00    +0.059 A 
ATOM     30  C   UNL     1       1.288   3.438   3.477  0.00  0.00    +0.167 A 
ATOM     31  C   UNL     1       0.812   4.139   2.362  0.00  0.00    +0.168 A 
ATOM     32  C   UNL     1       0.491   3.467   1.197  0.00  0.00    +0.075 A 
ATOM     33  C   UNL     1       0.641   2.088   1.127  0.00  0.00    +0.053 A 
ATOM     34  N   UNL     1       0.325   1.400  -0.028  0.00  0.00    -0.322 N 
ATOM     35  H   UNL     1      -0.005   1.887  -0.799  0.00  0.00    +0.169 HD
ATOM     36  C   UNL     1       0.472   0.066  -0.101  0.00  0.00    +0.254 A 
ATOM     37  O   UNL     1       0.187  -0.508  -1.138  0.00  0.00    -0.268 OA
ATOM     38  O   UNL     1       0.754   5.465   2.678  0.00  0.00    -0.453 OA
ATOM     39  C   UNL     1       0.805   5.522   4.116  0.00  0.00    +0.466 C 
ATOM     40  O   UNL     1       1.525   4.331   4.483  0.00  0.00    -0.453 OA
ENDBRANCH  25  26
ENDBRANCH   1  25
TORSDOF 11
