REMARK  Name = ZINC64370081
REMARK  7 active torsions:
REMARK  status: ('A' for Active; 'I' for Inactive)
REMARK    1  A    between atoms: C_10  and  N_11
REMARK    2  A    between atoms: C_12  and  C_14
REMARK    3  A    between atoms: C_14  and  S_15
REMARK    4  A    between atoms: S_15  and  C_16
REMARK    5  A    between atoms: C_19  and  C_24
REMARK    6  A    between atoms: N_20  and  C_21
REMARK    7  A    between atoms: C_25  and  N_33
REMARK                            x       y       z     vdW  Elec       q    Type
REMARK                         _______ _______ _______ _____ _____    ______ ____
ROOT
ATOM      1  C   UNL     1      10.139   0.113   0.423  0.00  0.00    +0.193 A 
ATOM      2  N   UNL     1      10.137   1.426   0.412  0.00  0.00    -0.122 NA
ATOM      3  N   UNL     1      11.342   1.872   0.435  0.00  0.00    -0.128 NA
ATOM      4  C   UNL     1      12.192   0.867   0.462  0.00  0.00    +0.174 A 
ATOM      5  N   UNL     1      11.446  -0.291   0.461  0.00  0.00    -0.299 N 
ENDROOT
BRANCH   4   6
ATOM      6  C   UNL     1      13.658   0.963   0.493  0.00  0.00    +0.080 A 
ATOM      7  C   UNL     1      14.430   2.085   0.506  0.00  0.00    +0.052 A 
ATOM      8  C   UNL     1      15.876   1.938   0.538  0.00  0.00    +0.029 A 
ATOM      9  C   UNL     1      16.871   2.946   0.556  0.00  0.00    +0.014 A 
ATOM     10  C   UNL     1      18.195   2.576   0.585  0.00  0.00    +0.020 A 
ATOM     11  C   UNL     1      18.548   1.235   0.596  0.00  0.00    +0.112 A 
ATOM     12  N   UNL     1      17.619   0.299   0.579  0.00  0.00    -0.248 NA
ATOM     13  C   UNL     1      16.341   0.602   0.552  0.00  0.00    +0.111 A 
ATOM     14  S   UNL     1      14.849  -0.362   0.531  0.00  0.00    -0.064 S 
BRANCH   7  15
ATOM     15  N   UNL     1      13.841   3.356   0.489  0.00  0.00    -0.356 N 
ATOM     16  H   UNL     1      12.876   3.443   0.468  0.00  0.00    +0.142 HD
ATOM     17  H   UNL     1      14.400   4.149   0.499  0.00  0.00    +0.142 HD
ENDBRANCH   7  15
ENDBRANCH   4   6
BRANCH   5  18
ATOM     18  C   UNL     1      11.946  -1.667   0.492  0.00  0.00    +0.091 C 
ATOM     19  C   UNL     1      10.977  -2.781   0.091  0.00  0.00    +0.027 C 
ATOM     20  C   UNL     1      11.373  -2.604   1.558  0.00  0.00    +0.027 C 
ENDBRANCH   5  18
BRANCH   1  21
ATOM     21  S   UNL     1       8.722  -0.933   0.400  0.00  0.00    -0.077 S 
BRANCH  21  22
ATOM     22  C   UNL     1       7.324   0.221   0.349  0.00  0.00    +0.173 C 
BRANCH  22  24
ATOM     23  N   UNL     1       4.854   0.099   0.288  0.00  0.00    -0.284 N 
ATOM     24  C   UNL     1       6.032  -0.554   0.326  0.00  0.00    +0.228 C 
ATOM     25  O   UNL     1       6.053  -1.767   0.342  0.00  0.00    -0.275 OA
ATOM     26  H   UNL     1       4.838   1.065   0.193  0.00  0.00    +0.155 HD
BRANCH  23  36
ATOM     27  C   UNL     1       0.097   0.932  -1.180  0.00  0.00    +0.001 A 
ATOM     28  C   UNL     1       1.281   1.659  -1.286  0.00  0.00    +0.001 A 
ATOM     29  C   UNL     1       2.449   1.174  -0.784  0.00  0.00    +0.010 A 
ATOM     30  C   UNL     1       2.465  -0.078  -0.148  0.00  0.00    +0.003 A 
ATOM     31  C   UNL     1       1.262  -0.818  -0.039  0.00  0.00    -0.016 A 
ATOM     32  C   UNL     1       0.075  -0.285  -0.570  0.00  0.00    +0.008 A 
ATOM     33  C   UNL     1       1.277  -2.071   0.598  0.00  0.00    +0.008 A 
ATOM     34  C   UNL     1       2.441  -2.563   1.103  0.00  0.00    +0.002 A 
ATOM     35  C   UNL     1       3.629  -1.845   1.002  0.00  0.00    +0.024 A 
ATOM     36  C   UNL     1       3.657  -0.613   0.385  0.00  0.00    +0.041 A 
ENDBRANCH  23  36
ENDBRANCH  22  24
ENDBRANCH  21  22
ENDBRANCH   1  21
TORSDOF 7
