REMARK  Name = ZINC65919174
REMARK  4 active torsions:
REMARK  status: ('A' for Active; 'I' for Inactive)
REMARK    1  A    between atoms: C_6  and  C_7
REMARK    2  A    between atoms: C_9  and  C_12
REMARK    3  A    between atoms: N_14  and  N_15
REMARK    4  A    between atoms: N_18  and  C_19
REMARK                            x       y       z     vdW  Elec       q    Type
REMARK                         _______ _______ _______ _____ _____    ______ ____
ROOT
ATOM      1  C   UNL     1      -2.961  -3.979   0.020  0.00  0.00    +0.279 C 
ATOM      2  O   UNL     1      -4.105  -4.391   0.029  0.00  0.00    -0.267 OA
ATOM      3  N   UNL     1      -1.931  -4.849   0.012  0.00  0.00    -0.228 N 
ATOM      4  H   UNL     1      -1.018  -4.521   0.005  0.00  0.00    +0.173 HD
ENDROOT
BRANCH   3   5
ATOM      5  N   UNL     1      -2.179  -6.228   0.012  0.00  0.00    -0.218 N 
ATOM      6  C   UNL     1      -1.150  -7.098   0.003  0.00  0.00    +0.316 C 
ATOM      7  O   UNL     1      -1.365  -8.295   0.003  0.00  0.00    -0.251 OA
ATOM      8  N   UNL     1       0.118  -6.642  -0.006  0.00  0.00    -0.295 N 
ATOM      9  H   UNL     1      -3.092  -6.557   0.018  0.00  0.00    +0.174 HD
ATOM     10  H   UNL     1       0.290  -5.687  -0.006  0.00  0.00    +0.151 HD
BRANCH   8  11
ATOM     11  C   UNL     1       1.237  -7.588  -0.016  0.00  0.00    +0.074 C 
ATOM     12  C   UNL     1       1.616  -7.972   1.429  0.00  0.00    +0.022 C 
ATOM     13  C   UNL     1       3.160  -8.090   1.399  0.00  0.00    +0.002 C 
ATOM     14  C   UNL     1       3.572  -6.933   0.455  0.00  0.00    +0.002 C 
ATOM     15  C   UNL     1       2.481  -6.926  -0.635  0.00  0.00    +0.022 C 
ENDBRANCH   8  11
ENDBRANCH   3   5
BRANCH   1  18
ATOM     16  C   UNL     1      -1.267  -0.764   0.011  0.00  0.00    +0.109 A 
ATOM     17  N   UNL     1      -1.456  -2.071   0.011  0.00  0.00    -0.234 NA
ATOM     18  C   UNL     1      -2.700  -2.530   0.020  0.00  0.00    +0.135 A 
ATOM     19  C   UNL     1      -3.739  -1.637   0.029  0.00  0.00    +0.080 A 
ATOM     20  S   UNL     1      -2.943  -0.154   0.031  0.00  0.00    -0.075 S 
BRANCH  16  26
ATOM     21  C   UNL     1      -0.017   1.391   0.010  0.00  0.00    +0.012 A 
ATOM     22  C   UNL     1       1.170   2.095   0.002  0.00  0.00    +0.022 A 
ATOM     23  C   UNL     1       2.378   1.420  -0.013  0.00  0.00    +0.059 A 
ATOM     24  C   UNL     1       2.404   0.034  -0.021  0.00  0.00    +0.060 A 
ATOM     25  C   UNL     1       1.223  -0.680  -0.014  0.00  0.00    +0.032 A 
ATOM     26  C   UNL     1       0.002  -0.004   0.002  0.00  0.00    +0.009 A 
ATOM     27 CL   UNL     1       3.924  -0.804  -0.041  0.00  0.00    -0.082 Cl
ATOM     28 CL   UNL     1       3.867   2.312  -0.024  0.00  0.00    -0.082 Cl
ENDBRANCH  16  26
ENDBRANCH   1  18
TORSDOF 4
