REMARK  Name = ZINC22963774
REMARK  8 active torsions:
REMARK  status: ('A' for Active; 'I' for Inactive)
REMARK    1  A    between atoms: C_1  and  O_2
REMARK    2  A    between atoms: O_2  and  C_3
REMARK    3  A    between atoms: C_3  and  C_5
REMARK    4  A    between atoms: C_5  and  C_7
REMARK    5  A    between atoms: C_5  and  N_14
REMARK    6  A    between atoms: N_17  and  C_20
REMARK    7  A    between atoms: C_20  and  C_21
REMARK    8  A    between atoms: C_26  and  N_27
REMARK                            x       y       z     vdW  Elec       q    Type
REMARK                         _______ _______ _______ _____ _____    ______ ____
ROOT
ATOM      1  N   UNL     1      -2.881   1.399  -4.365  0.00  0.00    +0.393 N 
ATOM      2  C   UNL     1      -3.689   0.286  -3.846  0.00  0.00    -0.062 C 
ATOM      3  C   UNL     1      -2.845  -0.543  -2.875  0.00  0.00    +0.066 C 
ATOM      4  N   UNL     1      -1.651  -1.042  -3.571  0.00  0.00    -0.302 NA
ATOM      5  C   UNL     1      -0.843   0.071  -4.089  0.00  0.00    +0.066 C 
ATOM      6  C   UNL     1      -1.687   0.900  -5.060  0.00  0.00    -0.062 C 
ATOM      7  H   UNL     1      -2.548   2.005  -3.509  0.00  0.00    -0.080 HD
ENDROOT
BRANCH   1   8
ATOM      8  C   UNL     1      -3.679   2.264  -5.244  0.00  0.00    +0.075 C 
BRANCH   8   9
ATOM      9  C   UNL     1      -4.826   2.853  -4.463  0.00  0.00    -0.032 A 
ATOM     10  C   UNL     1      -4.707   3.044  -3.099  0.00  0.00    +0.004 A 
ATOM     11  C   UNL     1      -5.757   3.588  -2.383  0.00  0.00    +0.000 A 
ATOM     12  C   UNL     1      -6.930   3.933  -3.029  0.00  0.00    +0.001 A 
ATOM     13  C   UNL     1      -7.051   3.738  -4.392  0.00  0.00    +0.020 A 
ATOM     14  C   UNL     1      -5.999   3.198  -5.110  0.00  0.00    +0.043 A 
ATOM     15 CL   UNL     1      -6.151   2.952  -6.822  0.00  0.00    -0.083 Cl
ENDBRANCH   8   9
BRANCH   8  16
ATOM     16  C   UNL     1      -2.812   3.375  -5.778  0.00  0.00    +0.297 C 
ATOM     17  O   UNL     1      -1.911   3.815  -5.104  0.00  0.00    -0.252 OA
BRANCH  16  19
ATOM     18  C   UNL     1      -2.167   4.945  -7.451  0.00  0.00    +0.280 C 
ATOM     19  O   UNL     1      -3.041   3.877  -7.002  0.00  0.00    -0.469 OA
ENDBRANCH  16  19
ENDBRANCH   8  16
ENDBRANCH   1   8
BRANCH   4  20
ATOM     20  C   UNL     1      -0.853  -1.907  -2.692  0.00  0.00    +0.121 C 
BRANCH  20  21
ATOM     21  C   UNL     1       0.129  -2.696  -3.520  0.00  0.00    -0.003 A 
ATOM     22  C   UNL     1       1.473  -2.376  -3.490  0.00  0.00    +0.007 A 
ATOM     23  C   UNL     1       2.373  -3.100  -4.249  0.00  0.00    +0.000 A 
ATOM     24  C   UNL     1       1.929  -4.145  -5.038  0.00  0.00    +0.002 A 
ATOM     25  C   UNL     1       0.585  -4.468  -5.064  0.00  0.00    +0.033 A 
ATOM     26  C   UNL     1      -0.316  -3.741  -4.309  0.00  0.00    +0.131 A 
BRANCH  26  27
ATOM     27  N   UNL     1      -1.755  -4.084  -4.340  0.00  0.00    +0.057 N 
ATOM     28  O   UNL     1      -2.160  -4.945  -5.101  0.00  0.00    -0.126 OA
ATOM     29  O   UNL     1      -2.535  -3.510  -3.601  0.00  0.00    -0.126 OA
ENDBRANCH  26  27
ENDBRANCH  20  21
ENDBRANCH   4  20
TORSDOF 7
