REMARK  Name = ZINC36037278
REMARK  10 active torsions:
REMARK  status: ('A' for Active; 'I' for Inactive)
REMARK    1  A    between atoms: C_1  and  O_2
REMARK    2  A    between atoms: O_2  and  C_3
REMARK    3  A    between atoms: C_3  and  C_5
REMARK    4  A    between atoms: C_7  and  C_37
REMARK    5  A    between atoms: C_14  and  C_30
REMARK    6  A    between atoms: C_16  and  C_26
REMARK    7  A    between atoms: C_17  and  N_25
REMARK    8  A    between atoms: N_18  and  C_19
REMARK    9  A    between atoms: C_26  and  O_28
REMARK   10  A    between atoms: O_28  and  C_29
REMARK                            x       y       z     vdW  Elec       q    Type
REMARK                         _______ _______ _______ _____ _____    ______ ____
ROOT
ATOM      1  C   UNL     1      -1.195   0.270  -3.448  0.00  0.00    +0.176 C 
ATOM      2  C   UNL     1       0.194  -0.355  -3.624  0.00  0.00    +0.046 C 
ATOM      3  C   UNL     1       0.052  -1.620  -4.473  0.00  0.00    +0.061 C 
ATOM      4  C   UNL     1      -0.899  -2.578  -3.800  0.00  0.00    +0.025 C 
ATOM      5  C   UNL     1      -1.913  -2.127  -3.032  0.00  0.00    +0.025 C 
ATOM      6  C   UNL     1      -2.116  -0.748  -2.832  0.00  0.00    +0.176 C 
ATOM      7  O   UNL     1      -3.050  -0.371  -2.152  0.00  0.00    -0.291 OA
ATOM      8  C   UNL     1      -2.860  -3.087  -2.356  0.00  0.00    +0.094 C 
ATOM      9  C   UNL     1      -2.791  -4.448  -2.983  0.00  0.00    +0.084 C 
ATOM     10  C   UNL     1      -1.734  -4.811  -3.761  0.00  0.00    +0.103 C 
ATOM     11  N   UNL     1      -0.711  -3.923  -3.990  0.00  0.00    -0.261 N 
ENDROOT
BRANCH   8  12
ATOM     12  C   UNL     1      -2.495  -3.197  -0.898  0.00  0.00    -0.035 A 
ATOM     13  C   UNL     1      -1.238  -3.640  -0.532  0.00  0.00    +0.007 A 
ATOM     14  C   UNL     1      -0.902  -3.741   0.804  0.00  0.00    +0.038 A 
ATOM     15  C   UNL     1      -1.825  -3.398   1.778  0.00  0.00    +0.123 A 
ATOM     16  C   UNL     1      -3.084  -2.954   1.410  0.00  0.00    +0.038 A 
ATOM     17  C   UNL     1      -3.416  -2.849   0.072  0.00  0.00    +0.007 A 
ATOM     18  F   UNL     1      -1.498  -3.497   3.085  0.00  0.00    -0.205 F 
ENDBRANCH   8  12
BRANCH  11  19
ATOM     19  C   UNL     1       0.534  -4.396  -4.421  0.00  0.00    +0.040 A 
ATOM     20  C   UNL     1       1.052  -3.978  -5.641  0.00  0.00    +0.024 A 
ATOM     21  C   UNL     1       2.281  -4.446  -6.064  0.00  0.00    +0.002 A 
ATOM     22  C   UNL     1       2.995  -5.330  -5.275  0.00  0.00    +0.000 A 
ATOM     23  C   UNL     1       2.482  -5.747  -4.060  0.00  0.00    +0.002 A 
ATOM     24  C   UNL     1       1.257  -5.278  -3.629  0.00  0.00    +0.024 A 
ENDBRANCH  11  19
BRANCH   2  25
ATOM     25  C   UNL     1       1.106   0.625  -4.315  0.00  0.00    -0.043 A 
ATOM     26  C   UNL     1       1.925   1.452  -3.569  0.00  0.00    +0.004 A 
ATOM     27  C   UNL     1       2.762   2.351  -4.204  0.00  0.00    +0.000 A 
ATOM     28  C   UNL     1       2.780   2.423  -5.584  0.00  0.00    +0.000 A 
ATOM     29  C   UNL     1       1.962   1.596  -6.330  0.00  0.00    +0.000 A 
ATOM     30  C   UNL     1       1.128   0.694  -5.696  0.00  0.00    +0.004 A 
ENDBRANCH   2  25
BRANCH  10  31
ATOM     31  N   UNL     1      -1.692  -6.063  -4.316  0.00  0.00    -0.346 N 
ATOM     32  H   UNL     1      -2.511  -6.568  -4.438  0.00  0.00    +0.143 HD
ATOM     33  H   UNL     1      -0.842  -6.445  -4.587  0.00  0.00    +0.143 HD
ENDBRANCH  10  31
BRANCH   1  34
ATOM     34  C   UNL     1      -1.732   0.689  -4.792  0.00  0.00    +0.318 C 
ATOM     35  O   UNL     1      -1.851  -0.126  -5.676  0.00  0.00    -0.250 OA
BRANCH  34  37
ATOM     36  C   UNL     1      -2.582   2.295  -6.304  0.00  0.00    +0.280 C 
ATOM     37  O   UNL     1      -2.079   1.968  -5.006  0.00  0.00    -0.467 OA
ENDBRANCH  34  37
ENDBRANCH   1  34
BRANCH   9  38
ATOM     38  C   UNL     1      -3.833  -5.361  -2.765  0.00  0.00    +0.339 C 
ATOM     39  O   UNL     1      -3.748  -6.497  -3.198  0.00  0.00    -0.245 OA
BRANCH  38  40
ATOM     40  O   UNL     1      -4.930  -4.982  -2.074  0.00  0.00    -0.465 OA
ATOM     41  C   UNL     1      -5.951  -5.964  -1.888  0.00  0.00    +0.280 C 
ENDBRANCH  38  40
ENDBRANCH   9  38
TORSDOF 8
