REMARK  Name = ZINC00118031
REMARK  6 active torsions:
REMARK  status: ('A' for Active; 'I' for Inactive)
REMARK    1  A    between atoms: C_1  and  C_2
REMARK    2  A    between atoms: C_2  and  C_3
REMARK    3  A    between atoms: C_3  and  C_24
REMARK    4  A    between atoms: C_4  and  C_23
REMARK    5  A    between atoms: C_8  and  C_22
REMARK    6  A    between atoms: C_12  and  C_15
REMARK                            x       y       z     vdW  Elec       q    Type
REMARK                         _______ _______ _______ _____ _____    ______ ____
ROOT
ATOM      1  C   UNL     1       0.747  -0.514   1.249  0.00  0.00    +0.137 C 
ATOM      2  C   UNL     1       0.673  -2.058   1.309  0.00  0.00    +0.103 C 
ATOM      3  C   UNL     1       1.521  -2.630   2.402  0.00  0.00    -0.011 A 
ATOM      4  C   UNL     1       2.871  -2.439   2.522  0.00  0.00    +0.007 A 
ATOM      5  C   UNL     1       3.580  -2.861   3.639  0.00  0.00    +0.006 A 
ATOM      6  C   UNL     1       2.986  -3.554   4.680  0.00  0.00    -0.027 A 
ATOM      7  C   UNL     1       1.646  -3.887   4.516  0.00  0.00    +0.050 A 
ATOM      8  C   UNL     1       0.974  -3.526   3.321  0.00  0.00    +0.009 A 
ATOM      9  C   UNL     1      -0.228  -4.364   3.305  0.00  0.00    -0.018 A 
ATOM     10  C   UNL     1      -0.352  -4.889   4.526  0.00  0.00    +0.017 A 
ATOM     11  N   UNL     1       0.725  -4.518   5.300  0.00  0.00    -0.358 N 
ATOM     12  H   UNL     1       0.813  -4.682   6.251  0.00  0.00    +0.166 HD
ATOM     13  C   UNL     1      -1.493  -5.755   4.995  0.00  0.00    +0.063 C 
ATOM     14  C   UNL     1      -1.068  -4.614   2.075  0.00  0.00    +0.056 C 
ATOM     15  C   UNL     1      -1.644  -3.302   1.547  0.00  0.00    +0.117 C 
ATOM     16  N   UNL     1      -0.740  -2.189   1.771  0.00  0.00    -0.254 N 
ATOM     17  C   UNL     1      -1.030  -1.065   2.463  0.00  0.00    +0.404 C 
ATOM     18  O   UNL     1      -2.080  -0.871   3.038  0.00  0.00    -0.226 OA
ATOM     19  O   UNL     1      -0.020  -0.173   2.431  0.00  0.00    -0.441 OA
ATOM     20  C   UNL     1       3.753  -3.925   5.923  0.00  0.00    +0.046 C 
ATOM     21  C   UNL     1       0.913  -2.716  -0.049  0.00  0.00    +0.041 C 
ATOM     22  C   UNL     1       2.141   0.082   1.300  0.00  0.00    +0.058 C 
ENDROOT
BRANCH   1  24
ATOM     23  C   UNL     1      -0.019   1.526   0.010  0.00  0.00    +0.008 C 
ATOM     24  C   UNL     1       0.002  -0.004   0.002  0.00  0.00    +0.047 C 
ENDBRANCH   1  24
TORSDOF 1
