REMARK  Name = ZINC31664016
REMARK  6 active torsions:
REMARK  status: ('A' for Active; 'I' for Inactive)
REMARK    1  A    between atoms: C_1  and  C_2
REMARK    2  A    between atoms: C_6  and  C_9
REMARK    3  A    between atoms: C_9  and  O_11
REMARK    4  A    between atoms: O_11  and  C_12
REMARK    5  A    between atoms: C_15  and  C_18
REMARK    6  A    between atoms: C_18  and  C_20
REMARK                            x       y       z     vdW  Elec       q    Type
REMARK                         _______ _______ _______ _____ _____    ______ ____
ROOT
ATOM      1  C   UNL     1       2.413  -2.643  -0.100  0.00  0.00    +0.345 C 
ATOM      2  O   UNL     1       3.426  -1.973  -0.093  0.00  0.00    -0.244 OA
ENDROOT
BRANCH   1   8
ATOM      3  C   UNL     1       5.162  -6.783  -0.553  0.00  0.00    +0.045 C 
ATOM      4  C   UNL     1       3.819  -6.108  -0.439  0.00  0.00    -0.037 A 
ATOM      5  C   UNL     1       2.662  -6.867  -0.447  0.00  0.00    +0.004 A 
ATOM      6  C   UNL     1       1.425  -6.257  -0.342  0.00  0.00    +0.001 A 
ATOM      7  C   UNL     1       1.337  -4.885  -0.229  0.00  0.00    +0.016 A 
ATOM      8  C   UNL     1       2.499  -4.112  -0.220  0.00  0.00    +0.073 A 
ATOM      9  C   UNL     1       3.745  -4.734  -0.332  0.00  0.00    +0.030 A 
ATOM     10  I   UNL     1       5.497  -3.586  -0.329  0.00  0.00    -0.043 I 
ENDBRANCH   1   8
BRANCH   1  11
ATOM     11  O   UNL     1       1.209  -2.045   0.002  0.00  0.00    -0.422 OA
BRANCH  11  12
ATOM     12  C   UNL     1       1.192  -0.688  -0.011  0.00  0.00    +0.132 A 
ATOM     13  C   UNL     1       1.514  -0.002  -1.177  0.00  0.00    +0.047 A 
ATOM     14  C   UNL     1       1.498   1.374  -1.196  0.00  0.00    +0.015 A 
ATOM     15  C   UNL     1       1.157   2.083  -0.038  0.00  0.00    +0.017 A 
ATOM     16  C   UNL     1       0.834   1.388   1.134  0.00  0.00    +0.015 A 
ATOM     17  C   UNL     1       0.853   0.012   1.142  0.00  0.00    +0.047 A 
BRANCH  15  18
ATOM     18  C   UNL     1       1.138   3.552  -0.052  0.00  0.00    +0.160 C 
ATOM     19  O   UNL     1       0.945   4.166   0.976  0.00  0.00    -0.292 OA
ATOM     20  C   UNL     1       1.359   4.296  -1.344  0.00  0.00    +0.091 C 
ENDBRANCH  15  18
ENDBRANCH  11  12
ENDBRANCH   1  11
TORSDOF 4
