REMARK  Name = ZINC35685734
REMARK  7 active torsions:
REMARK  status: ('A' for Active; 'I' for Inactive)
REMARK    1  A    between atoms: C_1  and  C_2
REMARK    2  A    between atoms: C_2  and  N_3
REMARK    3  A    between atoms: C_14  and  S_16
REMARK    4  A    between atoms: S_16  and  N_19
REMARK    5  A    between atoms: N_19  and  N_20
REMARK    6  A    between atoms: C_21  and  C_23
REMARK    7  A    between atoms: C_26  and  C_29
REMARK                            x       y       z     vdW  Elec       q    Type
REMARK                         _______ _______ _______ _____ _____    ______ ____
ROOT
ATOM      1  N   UNL     1      -1.372  -0.511   0.012  0.00  0.00    -0.234 N 
ATOM      2  C   UNL     1      -1.971  -0.737   1.197  0.00  0.00    +0.254 C 
ATOM      3  O   UNL     1      -1.368  -0.519   2.231  0.00  0.00    -0.270 OA
ATOM      4  C   UNL     1      -3.350  -1.245   1.248  0.00  0.00    +0.046 A 
ATOM      5  C   UNL     1      -4.005  -1.491   2.446  0.00  0.00    +0.014 A 
ATOM      6  C   UNL     1      -5.309  -1.971   2.443  0.00  0.00    +0.001 A 
ATOM      7  C   UNL     1      -5.979  -2.214   1.278  0.00  0.00    +0.008 A 
ATOM      8  C   UNL     1      -5.351  -1.978   0.043  0.00  0.00    -0.015 A 
ATOM      9  C   UNL     1      -4.028  -1.490   0.033  0.00  0.00    +0.006 A 
ATOM     10  C   UNL     1      -3.369  -1.242  -1.193  0.00  0.00    +0.048 A 
ATOM     11  C   UNL     1      -4.043  -1.485  -2.381  0.00  0.00    +0.042 A 
ATOM     12  C   UNL     1      -5.348  -1.965  -2.357  0.00  0.00    +0.108 A 
ATOM     13  C   UNL     1      -5.999  -2.212  -1.183  0.00  0.00    +0.037 A 
ATOM     14  C   UNL     1      -1.992  -0.729  -1.163  0.00  0.00    +0.254 C 
ATOM     15  O   UNL     1      -1.407  -0.505  -2.206  0.00  0.00    -0.270 OA
ENDROOT
BRANCH  12  16
ATOM     16  S   UNL     1      -6.181  -2.265  -3.881  0.00  0.00    +0.074 S 
ATOM     17  O   UNL     1      -7.572  -2.192  -3.605  0.00  0.00    -0.152 OA
ATOM     18  O   UNL     1      -5.553  -1.444  -4.856  0.00  0.00    -0.152 OA
BRANCH  16  19
ATOM     19  N   UNL     1      -5.866  -3.833  -4.311  0.00  0.00    -0.108 NA
ATOM     20  H   UNL     1      -5.416  -4.026  -5.148  0.00  0.00    +0.172 HD
BRANCH  19  21
ATOM     21  N   UNL     1      -6.249  -4.882  -3.464  0.00  0.00    -0.228 N 
ATOM     22  C   UNL     1      -7.027  -5.878  -3.934  0.00  0.00    +0.259 C 
ATOM     23  O   UNL     1      -7.396  -5.866  -5.092  0.00  0.00    -0.269 OA
ATOM     24  H   UNL     1      -5.955  -4.891  -2.540  0.00  0.00    +0.171 HD
BRANCH  22  25
ATOM     25  C   UNL     1      -7.431  -6.984  -3.040  0.00  0.00    +0.038 A 
ATOM     26  C   UNL     1      -7.014  -6.997  -1.708  0.00  0.00    +0.013 A 
ATOM     27  C   UNL     1      -7.395  -8.033  -0.880  0.00  0.00    +0.004 A 
ATOM     28  C   UNL     1      -8.189  -9.056  -1.367  0.00  0.00    -0.050 A 
ATOM     29  C   UNL     1      -8.605  -9.049  -2.686  0.00  0.00    +0.004 A 
ATOM     30  C   UNL     1      -8.236  -8.017  -3.524  0.00  0.00    +0.013 A 
ATOM     31  C   UNL     1      -8.601 -10.184  -0.456  0.00  0.00    +0.044 C 
ENDBRANCH  22  25
ENDBRANCH  19  21
ENDBRANCH  16  19
ENDBRANCH  12  16
BRANCH   1  33
ATOM     32  C   UNL     1      -0.019   1.526   0.010  0.00  0.00    +0.025 C 
ATOM     33  C   UNL     1       0.002  -0.004   0.002  0.00  0.00    +0.113 C 
ENDBRANCH   1  33
TORSDOF 5
