REMARK  Name = ZINC39834652
REMARK  11 active torsions:
REMARK  status: ('A' for Active; 'I' for Inactive)
REMARK    1  A    between atoms: C_1  and  C_2
REMARK    2  A    between atoms: C_2  and  C_3
REMARK    3  A    between atoms: C_3  and  C_4
REMARK    4  A    between atoms: C_4  and  C_5
REMARK    5  A    between atoms: C_5  and  N_6
REMARK    6  A    between atoms: C_7  and  C_20
REMARK    7  A    between atoms: N_11  and  C_12
REMARK    8  A    between atoms: C_15  and  O_18
REMARK    9  A    between atoms: O_18  and  C_19
REMARK   10  A    between atoms: C_23  and  S_26
REMARK   11  A    between atoms: S_26  and  N_29
REMARK                            x       y       z     vdW  Elec       q    Type
REMARK                         _______ _______ _______ _____ _____    ______ ____
ROOT
ATOM      1  N   UNL     1      -2.676  -4.096  -0.087  0.00  0.00    -0.322 N 
ATOM      2  C   UNL     1      -2.677  -4.609  -1.315  0.00  0.00    +0.057 A 
ATOM      3  C   UNL     1      -2.939  -5.940  -1.483  0.00  0.00    +0.074 A 
ATOM      4  S   UNL     1      -3.192  -6.447   0.212  0.00  0.00    -0.062 S 
ATOM      5  C   UNL     1      -2.920  -4.851   0.968  0.00  0.00    +0.143 A 
ATOM      6  N   UNL     1      -2.957  -4.498   2.308  0.00  0.00    -0.295 N 
ATOM      7  H   UNL     1      -2.879  -3.566   2.567  0.00  0.00    +0.154 HD
ENDROOT
BRANCH   6   8
ATOM      8  C   UNL     1      -3.106  -5.486   3.288  0.00  0.00    +0.033 A 
ATOM      9  C   UNL     1      -2.491  -6.721   3.129  0.00  0.00    +0.027 A 
ATOM     10  C   UNL     1      -2.639  -7.695   4.096  0.00  0.00    +0.047 A 
ATOM     11  C   UNL     1      -3.400  -7.440   5.228  0.00  0.00    +0.120 A 
ATOM     12  C   UNL     1      -4.014  -6.207   5.388  0.00  0.00    +0.047 A 
ATOM     13  C   UNL     1      -3.863  -5.229   4.424  0.00  0.00    +0.027 A 
BRANCH  11  14
ATOM     14  O   UNL     1      -3.545  -8.400   6.180  0.00  0.00    -0.495 OA
ATOM     15  C   UNL     1      -4.342  -8.069   7.319  0.00  0.00    +0.277 C 
ENDBRANCH  11  14
ENDBRANCH   6   8
BRANCH   2  16
ATOM     16  C   UNL     1      -2.396  -3.747  -2.488  0.00  0.00    -0.001 A 
ATOM     17  C   UNL     1      -1.473  -2.707  -2.387  0.00  0.00    +0.012 A 
ATOM     18  C   UNL     1      -1.215  -1.908  -3.483  0.00  0.00    +0.029 A 
ATOM     19  C   UNL     1      -1.871  -2.138  -4.679  0.00  0.00    +0.106 A 
ATOM     20  C   UNL     1      -2.788  -3.168  -4.785  0.00  0.00    +0.029 A 
ATOM     21  C   UNL     1      -3.049  -3.977  -3.698  0.00  0.00    +0.012 A 
BRANCH  19  22
ATOM     22  S   UNL     1      -1.537  -1.113  -6.073  0.00  0.00    +0.061 S 
ATOM     23  O   UNL     1      -2.679  -1.188  -6.915  0.00  0.00    -0.153 OA
ATOM     24  O   UNL     1      -1.047   0.120  -5.563  0.00  0.00    -0.153 OA
BRANCH  22  25
ATOM     25  N   UNL     1      -0.287  -1.811  -6.906  0.00  0.00    -0.177 NA
ATOM     26  C   UNL     1       1.067  -1.441  -6.561  0.00  0.00    +0.109 C 
ATOM     27  C   UNL     1       1.501  -0.214  -7.402  0.00  0.00    +0.017 C 
ATOM     28  C   UNL     1       1.701  -0.603  -8.806  0.00  0.00    +0.001 C 
ATOM     29  C   UNL     1       0.444  -1.113  -9.503  0.00  0.00    +0.001 C 
ATOM     30  C   UNL     1       0.276  -2.585  -9.218  0.00  0.00    +0.017 C 
ATOM     31  C   UNL     1      -0.602  -2.789  -7.965  0.00  0.00    +0.109 C 
ENDBRANCH  22  25
ENDBRANCH  19  22
ENDBRANCH   2  16
BRANCH   1  32
ATOM     32  C   UNL     1      -2.395  -2.670   0.096  0.00  0.00    +0.124 C 
BRANCH  32  33
ATOM     33  C   UNL     1      -0.937  -2.489   0.526  0.00  0.00    +0.022 C 
BRANCH  33  34
ATOM     34  C   UNL     1      -0.599  -0.998   0.567  0.00  0.00    +0.001 C 
BRANCH  34  36
ATOM     35  C   UNL     1       1.197   0.674   1.037  0.00  0.00    +0.004 C 
ATOM     36  C   UNL     1       0.859  -0.817   0.997  0.00  0.00    -0.003 C 
ENDBRANCH  34  36
ENDBRANCH  33  34
ENDBRANCH  32  33
ENDBRANCH   1  32
TORSDOF 9
