REMARK  Name = ZINC13584621
REMARK  11 active torsions:
REMARK  status: ('A' for Active; 'I' for Inactive)
REMARK    1  A    between atoms: C_1  and  C_2
REMARK    2  A    between atoms: C_2  and  C_3
REMARK    3  A    between atoms: C_3  and  C_4
REMARK    4  A    between atoms: C_4  and  C_6
REMARK    5  A    between atoms: C_4  and  N_7
REMARK    6  A    between atoms: C_8  and  C_10
REMARK    7  A    between atoms: C_14  and  N_19
REMARK    8  A    between atoms: N_19  and  C_20
REMARK    9  A    between atoms: N_19  and  S_22
REMARK   10  A    between atoms: C_20  and  C_21
REMARK   11  A    between atoms: S_22  and  C_25
REMARK                            x       y       z     vdW  Elec       q    Type
REMARK                         _______ _______ _______ _____ _____    ______ ____
ROOT
ATOM      1  C   UNL     1       3.551  -1.949   1.464  0.00  0.00    +0.075 A 
ATOM      2  C   UNL     1       4.851  -1.948   1.863  0.00  0.00    +0.029 A 
ATOM      3  C   UNL     1       5.179  -2.288   3.188  0.00  0.00    -0.008 A 
ATOM      4  C   UNL     1       6.463  -2.340   3.788  0.00  0.00    +0.033 A 
ATOM      5  C   UNL     1       6.602  -2.702   5.106  0.00  0.00    +0.052 A 
ATOM      6  C   UNL     1       5.493  -3.028   5.889  0.00  0.00    +0.026 A 
ATOM      7  C   UNL     1       4.241  -2.987   5.337  0.00  0.00    +0.017 A 
ATOM      8  C   UNL     1       4.083  -2.626   4.016  0.00  0.00    +0.020 A 
ATOM      9  S   UNL     1       2.682  -2.450   2.940  0.00  0.00    -0.084 S 
ENDROOT
BRANCH   1  11
ATOM     10  N   UNL     1       1.669  -1.687  -0.068  0.00  0.00    -0.308 N 
ATOM     11  C   UNL     1       2.999  -1.623   0.141  0.00  0.00    +0.251 C 
ATOM     12  O   UNL     1       3.742  -1.297  -0.765  0.00  0.00    -0.270 OA
ATOM     13  H   UNL     1       1.076  -1.948   0.655  0.00  0.00    +0.149 HD
BRANCH  10  14
ATOM     14  C   UNL     1       1.118  -1.363  -1.386  0.00  0.00    +0.070 C 
ATOM     15  C   UNL     1       0.915   0.149  -1.496  0.00  0.00    +0.028 C 
BRANCH  14  16
ATOM     16  C   UNL     1      -0.226  -2.072  -1.566  0.00  0.00    +0.022 C 
BRANCH  16  18
ATOM     17  C   UNL     1      -1.349  -4.296  -1.760  0.00  0.00    +0.004 C 
ATOM     18  C   UNL     1      -0.005  -3.586  -1.581  0.00  0.00    -0.002 C 
ENDBRANCH  16  18
ENDBRANCH  14  16
ENDBRANCH  10  14
ENDBRANCH   1  11
BRANCH   5  19
ATOM     19  N   UNL     1       7.880  -2.746   5.675  0.00  0.00    -0.203 N 
BRANCH  19  20
ATOM     20  S   UNL     1       8.066  -2.547   7.309  0.00  0.00    +0.075 S 
ATOM     21  O   UNL     1       9.386  -2.062   7.511  0.00  0.00    -0.150 OA
ATOM     22  O   UNL     1       6.918  -1.844   7.766  0.00  0.00    -0.150 OA
BRANCH  20  23
ATOM     23  C   UNL     1       8.000  -4.148   8.040  0.00  0.00    +0.109 A 
ATOM     24  C   UNL     1       6.813  -4.615   8.575  0.00  0.00    +0.030 A 
ATOM     25  C   UNL     1       6.760  -5.874   9.144  0.00  0.00    +0.017 A 
ATOM     26  C   UNL     1       7.896  -6.662   9.188  0.00  0.00    +0.018 A 
ATOM     27  C   UNL     1       9.084  -6.192   8.658  0.00  0.00    +0.017 A 
ATOM     28  C   UNL     1       9.135  -4.935   8.084  0.00  0.00    +0.030 A 
ATOM     29 BR   UNL     1       7.825  -8.380   9.973  0.00  0.00    -0.050 Br
ENDBRANCH  20  23
ENDBRANCH  19  20
BRANCH  19  30
ATOM     30  C   UNL     1       9.052  -2.968   4.826  0.00  0.00    +0.128 C 
ATOM     31  C   UNL     1       9.519  -1.633   4.241  0.00  0.00    +0.026 C 
ENDBRANCH  19  30
ENDBRANCH   5  19
TORSDOF 8
