REMARK  Name = ZINC61537528
REMARK  4 active torsions:
REMARK  status: ('A' for Active; 'I' for Inactive)
REMARK    1  A    between atoms: C_1  and  C_2
REMARK    2  A    between atoms: C_5  and  C_7
REMARK    3  A    between atoms: C_7  and  N_8
REMARK    4  A    between atoms: N_8  and  C_9
REMARK                            x       y       z     vdW  Elec       q    Type
REMARK                         _______ _______ _______ _____ _____    ______ ____
ROOT
ATOM      1  N   UNL     1       1.983  -3.620  -1.407  0.00  0.00    -0.295 N 
ATOM      2  C   UNL     1       3.123  -3.014  -2.100  0.00  0.00    +0.132 C 
ATOM      3  C   UNL     1       1.191  -4.543  -2.058  0.00  0.00    +0.224 A 
ATOM      4  N   UNL     1       1.464  -4.887  -3.313  0.00  0.00    -0.178 NA
ATOM      5  C   UNL     1       0.700  -5.775  -3.936  0.00  0.00    +0.241 A 
ATOM      6  N   UNL     1      -0.336  -6.318  -3.305  0.00  0.00    -0.181 NA
ATOM      7  C   UNL     1      -0.607  -5.974  -2.057  0.00  0.00    +0.229 A 
ATOM      8  N   UNL     1       0.155  -5.093  -1.430  0.00  0.00    -0.184 NA
ATOM      9 CL   UNL     1      -1.962  -6.686  -1.237  0.00  0.00    -0.041 Cl
ATOM     10  N   UNL     1       0.984  -6.138  -5.250  0.00  0.00    -0.274 N 
ATOM     11  C   UNL     1       0.283  -7.033  -6.019  0.00  0.00    +0.115 A 
ATOM     12  C   UNL     1       0.898  -7.083  -7.215  0.00  0.00    +0.130 A 
ATOM     13  N   UNL     1       1.945  -6.244  -7.185  0.00  0.00    -0.244 NA
ATOM     14  C   UNL     1       2.005  -5.667  -6.017  0.00  0.00    +0.206 A 
ENDROOT
BRANCH   1  15
ATOM     15  C   UNL     1       1.684  -3.245  -0.023  0.00  0.00    +0.181 C 
BRANCH  15  20
ATOM     16  C   UNL     1      -0.018   1.503   0.010  0.00  0.00    +0.086 C 
ATOM     17  C   UNL     1       0.002  -0.004   0.002  0.00  0.00    +0.102 A 
ATOM     18  C   UNL     1      -1.078  -0.805   0.003  0.00  0.00    +0.045 A 
ATOM     19  C   UNL     1      -0.601  -2.136  -0.007  0.00  0.00    +0.046 A 
ATOM     20  C   UNL     1       0.742  -2.069  -0.013  0.00  0.00    +0.122 A 
ATOM     21  O   UNL     1       1.102  -0.775  -0.013  0.00  0.00    -0.463 OA
ENDBRANCH  15  20
ENDBRANCH   1  15
TORSDOF 2
