REMARK  Name = ZINC51467368
REMARK  8 active torsions:
REMARK  status: ('A' for Active; 'I' for Inactive)
REMARK    1  A    between atoms: C_1  and  C_2
REMARK    2  A    between atoms: C_2  and  C_3
REMARK    3  A    between atoms: C_2  and  C_4
REMARK    4  A    between atoms: C_2  and  C_17
REMARK    5  A    between atoms: C_4  and  N_5
REMARK    6  A    between atoms: C_6  and  C_8
REMARK    7  A    between atoms: C_8  and  N_9
REMARK    8  A    between atoms: C_10  and  C_12
REMARK                            x       y       z     vdW  Elec       q    Type
REMARK                         _______ _______ _______ _____ _____    ______ ____
ROOT
ATOM      1  N   UNL     1      -2.119  -0.061   1.218  0.00  0.00    -0.313 N 
ATOM      2  C   UNL     1      -3.403  -0.406   1.442  0.00  0.00    +0.230 C 
ATOM      3  O   UNL     1      -3.990  -1.106   0.645  0.00  0.00    -0.274 OA
ATOM      4  H   UNL     1      -1.649   0.499   1.855  0.00  0.00    +0.149 HD
ENDROOT
BRANCH   1   5
ATOM      5  C   UNL     1      -1.433  -0.534   0.013  0.00  0.00    +0.115 C 
BRANCH   5   7
ATOM      6  C   UNL     1      -0.019   1.526   0.010  0.00  0.00    +0.017 C 
ATOM      7  C   UNL     1       0.002  -0.004   0.002  0.00  0.00    +0.006 C 
ATOM      8  C   UNL     1       0.742  -0.511   1.242  0.00  0.00    +0.017 C 
BRANCH   7   9
ATOM      9  C   UNL     1       0.707  -0.490  -1.238  0.00  0.00    -0.039 A 
ATOM     10  C   UNL     1       0.036  -1.284  -2.148  0.00  0.00    +0.006 A 
ATOM     11  C   UNL     1       0.681  -1.731  -3.286  0.00  0.00    +0.022 A 
ATOM     12  C   UNL     1       2.001  -1.383  -3.514  0.00  0.00    +0.059 A 
ATOM     13  C   UNL     1       2.674  -0.587  -2.602  0.00  0.00    +0.060 A 
ATOM     14  C   UNL     1       2.024  -0.137  -1.467  0.00  0.00    +0.025 A 
ATOM     15 CL   UNL     1       4.329  -0.150  -2.886  0.00  0.00    -0.082 Cl
ATOM     16 CL   UNL     1       2.813  -1.945  -4.942  0.00  0.00    -0.082 Cl
ENDBRANCH   7   9
ENDBRANCH   5   7
ENDBRANCH   1   5
BRANCH   2  17
ATOM     17  C   UNL     1      -4.108   0.081   2.682  0.00  0.00    +0.200 C 
BRANCH  17  18
ATOM     18  N   UNL     1      -5.482  -0.426   2.692  0.00  0.00    -0.303 N 
ATOM     19  C   UNL     1      -6.307  -0.118   3.713  0.00  0.00    +0.245 C 
ATOM     20  O   UNL     1      -5.910   0.582   4.625  0.00  0.00    -0.270 OA
ATOM     21  H   UNL     1      -5.799  -0.985   1.965  0.00  0.00    +0.150 HD
BRANCH  19  22
ATOM     22  C   UNL     1      -7.688  -0.627   3.723  0.00  0.00    +0.044 A 
ATOM     23  C   UNL     1      -8.601  -0.313   4.795  0.00  0.00    +0.020 A 
ATOM     24  C   UNL     1      -9.836  -0.841   4.686  0.00  0.00    +0.046 A 
ATOM     25  S   UNL     1      -9.755  -1.745   3.155  0.00  0.00    -0.104 S 
ATOM     26  C   UNL     1      -8.171  -1.421   2.707  0.00  0.00    +0.058 A 
ENDBRANCH  19  22
ENDBRANCH  17  18
ENDBRANCH   2  17
TORSDOF 6
