REMARK  Name = ZINC25574404
REMARK  13 active torsions:
REMARK  status: ('A' for Active; 'I' for Inactive)
REMARK    1  A    between atoms: C_1  and  C_2
REMARK    2  A    between atoms: C_2  and  C_3
REMARK    3  A    between atoms: C_3  and  C_4
REMARK    4  A    between atoms: C_4  and  N_5
REMARK    5  A    between atoms: N_5  and  C_6
REMARK    6  A    between atoms: N_5  and  C_7
REMARK    7  A    between atoms: C_7  and  C_8
REMARK    8  A    between atoms: C_10  and  C_28
REMARK    9  A    between atoms: C_15  and  C_17
REMARK   10  A    between atoms: C_18  and  C_27
REMARK   11  A    between atoms: N_22  and  N_23
REMARK   12  A    between atoms: C_24  and  C_26
REMARK   13  A    between atoms: C_33  and  O_34
REMARK                            x       y       z     vdW  Elec       q    Type
REMARK                         _______ _______ _______ _____ _____    ______ ____
ROOT
ATOM      1  C   UNL     1       2.121  -4.431  -3.872  0.00  0.00    +0.112 C 
ATOM      2  C   UNL     1       1.930  -5.910  -4.138  0.00  0.00    +0.081 C 
ATOM      3  N   UNL     1       3.102  -6.456  -4.091  0.00  0.00    -0.173 NA
ATOM      4  N   UNL     1       4.114  -5.538  -3.822  0.00  0.00    -0.122 N 
ATOM      5  C   UNL     1       3.618  -4.289  -3.676  0.00  0.00    +0.249 C 
ATOM      6  O   UNL     1       4.235  -3.273  -3.439  0.00  0.00    -0.273 OA
ATOM      7  C   UNL     1       5.420  -5.854  -3.721  0.00  0.00    +0.281 C 
ATOM      8  O   UNL     1       6.239  -4.986  -3.482  0.00  0.00    -0.267 OA
ENDROOT
BRANCH   7   9
ATOM      9  C   UNL     1       5.840  -7.197  -3.893  0.00  0.00    +0.100 A 
ATOM     10  C   UNL     1       7.116  -7.742  -3.828  0.00  0.00    +0.060 A 
ATOM     11  N   UNL     1       7.207  -9.032  -4.031  0.00  0.00    -0.228 NA
ATOM     12  C   UNL     1       6.139  -9.768  -4.284  0.00  0.00    +0.175 A 
ATOM     13  S   UNL     1       4.875  -8.657  -4.246  0.00  0.00    -0.046 S 
ATOM     14  N   UNL     1       6.074 -11.125  -4.517  0.00  0.00    -0.243 N 
ATOM     15  C   UNL     1       8.329  -6.896  -3.540  0.00  0.00    +0.067 C 
ATOM     16  H   UNL     1       5.219 -11.547  -4.692  0.00  0.00    +0.172 HD
BRANCH  14  17
ATOM     17  N   UNL     1       7.245 -11.895  -4.502  0.00  0.00    -0.235 N 
ATOM     18  C   UNL     1       7.182 -13.222  -4.730  0.00  0.00    +0.226 C 
ATOM     19  O   UNL     1       6.112 -13.749  -4.949  0.00  0.00    -0.275 OA
ATOM     20  C   UNL     1       8.441 -14.050  -4.714  0.00  0.00    +0.110 C 
ATOM     21  H   UNL     1       8.101 -11.473  -4.327  0.00  0.00    +0.173 HD
ENDBRANCH  14  17
ENDBRANCH   7   9
BRANCH   2  22
ATOM     22  C   UNL     1       0.652  -6.596  -4.400  0.00  0.00    +0.040 A 
ATOM     23  C   UNL     1      -0.542  -5.871  -4.426  0.00  0.00    +0.013 A 
ATOM     24  C   UNL     1      -1.734  -6.519  -4.673  0.00  0.00    +0.001 A 
ATOM     25  C   UNL     1      -1.752  -7.886  -4.894  0.00  0.00    +0.004 A 
ATOM     26  C   UNL     1      -0.578  -8.614  -4.870  0.00  0.00    +0.046 A 
ATOM     27  C   UNL     1       0.629  -7.978  -4.630  0.00  0.00    +0.126 A 
BRANCH  27  28
ATOM     28  O   UNL     1       1.784  -8.692  -4.612  0.00  0.00    -0.506 OA
ATOM     29  H   UNL     1       2.017  -9.041  -3.741  0.00  0.00    +0.292 HD
ENDBRANCH  27  28
ENDBRANCH   2  22
BRANCH   1  30
ATOM     30  C   UNL     1       1.370  -4.010  -2.607  0.00  0.00    -0.060 C 
BRANCH  30  31
ATOM     31  N   UNL     1       1.573  -2.575  -2.372  0.00  0.00    +0.379 N 
ATOM     32  C   UNL     1       0.972  -2.199  -1.085  0.00  0.00    -0.096 C 
ATOM     33  H   UNL     1       2.562  -2.373  -2.353  0.00  0.00    -0.082 HD
BRANCH  31  34
ATOM     34  C   UNL     1       0.939  -1.807  -3.451  0.00  0.00    -0.079 C 
BRANCH  34  35
ATOM     35  C   UNL     1       1.255  -0.320  -3.275  0.00  0.00    -0.019 C 
BRANCH  35  37
ATOM     36  C   UNL     1       0.911   1.966  -4.222  0.00  0.00    +0.004 C 
ATOM     37  C   UNL     1       0.594   0.479  -4.399  0.00  0.00    -0.005 C 
ENDBRANCH  35  37
ENDBRANCH  34  35
ENDBRANCH  31  34
ENDBRANCH  30  31
ENDBRANCH   1  30
TORSDOF 9
