REMARK  Name = ZINC19933103
REMARK  5 active torsions:
REMARK  status: ('A' for Active; 'I' for Inactive)
REMARK    1  A    between atoms: C_1  and  O_2
REMARK    2  A    between atoms: O_2  and  C_3
REMARK    3  A    between atoms: C_6  and  C_9
REMARK    4  A    between atoms: C_10  and  C_24
REMARK    5  A    between atoms: C_11  and  N_23
REMARK                            x       y       z     vdW  Elec       q    Type
REMARK                         _______ _______ _______ _____ _____    ______ ____
ROOT
ATOM      1  C   UNL     1      -3.660  -0.558   0.034  0.00  0.00    +0.019 A 
ATOM      2  C   UNL     1      -3.657  -1.968   0.026  0.00  0.00    +0.100 A 
ATOM      3  C   UNL     1      -2.423  -2.645   0.009  0.00  0.00    +0.137 A 
ATOM      4  N   UNL     1      -1.277  -1.983   0.003  0.00  0.00    -0.213 NA
ATOM      5  C   UNL     1      -1.234  -0.659   0.010  0.00  0.00    +0.155 A 
ATOM      6  C   UNL     1      -2.414   0.096   0.025  0.00  0.00    +0.093 A 
ATOM      7  C   UNL     1      -2.322   1.564   0.032  0.00  0.00    +0.284 A 
ATOM      8  O   UNL     1      -3.325   2.261   0.045  0.00  0.00    -0.265 OA
ATOM      9  N   UNL     1      -1.098   2.107   0.029  0.00  0.00    -0.184 NA
ATOM     10  C   UNL     1      -0.017   1.365   0.009  0.00  0.00    +0.182 A 
ATOM     11  N   UNL     1       0.002  -0.004   0.002  0.00  0.00    -0.279 N 
ATOM     12  C   UNL     1       1.240  -0.607  -0.013  0.00  0.00    +0.102 A 
ATOM     13  C   UNL     1       2.358   0.116  -0.020  0.00  0.00    +0.067 A 
ATOM     14  S   UNL     1       1.716   1.782  -0.005  0.00  0.00    -0.058 S 
ENDROOT
BRANCH   1  18
ATOM     15  C   UNL     1      -7.298   1.636   0.084  0.00  0.00    +0.120 A 
ATOM     16  C   UNL     1      -6.957   0.836   1.167  0.00  0.00    +0.046 A 
ATOM     17  C   UNL     1      -5.778   0.123   1.154  0.00  0.00    +0.012 A 
ATOM     18  C   UNL     1      -4.926   0.205   0.051  0.00  0.00    -0.015 A 
ATOM     19  C   UNL     1      -5.270   1.014  -1.034  0.00  0.00    +0.012 A 
ATOM     20  C   UNL     1      -6.453   1.720  -1.016  0.00  0.00    +0.046 A 
BRANCH  15  22
ATOM     21  C   UNL     1      -8.750   3.140  -1.046  0.00  0.00    +0.277 C 
ATOM     22  O   UNL     1      -8.461   2.338   0.100  0.00  0.00    -0.495 OA
ENDBRANCH  15  22
ENDBRANCH   1  18
BRANCH   3  23
ATOM     23  N   UNL     1      -2.408  -4.026   0.001  0.00  0.00    -0.342 N 
ATOM     24  H   UNL     1      -1.449  -4.566  -0.011  0.00  0.00    +0.144 HD
ATOM     25  H   UNL     1      -3.354  -4.586   0.007  0.00  0.00    +0.144 HD
ENDBRANCH   3  23
BRANCH   2  26
ATOM     26  C   UNL     1      -4.888  -2.698   0.034  0.00  0.00    +0.103 C 
ATOM     27  N   UNL     1      -5.865  -3.278   0.041  0.00  0.00    -0.191 NA
ENDBRANCH   2  26
TORSDOF 4
