REMARK  Name = ZINC00914545
REMARK  8 active torsions:
REMARK  status: ('A' for Active; 'I' for Inactive)
REMARK    1  A    between atoms: C_1  and  C_2
REMARK    2  A    between atoms: C_4  and  C_36
REMARK    3  A    between atoms: C_7  and  C_14
REMARK    4  A    between atoms: C_14  and  N_15
REMARK    5  A    between atoms: N_15  and  C_16
REMARK    6  A    between atoms: N_15  and  S_26
REMARK    7  A    between atoms: C_16  and  C_17
REMARK    8  A    between atoms: S_26  and  C_29
REMARK                            x       y       z     vdW  Elec       q    Type
REMARK                         _______ _______ _______ _____ _____    ______ ____
ROOT
ATOM      1  N   UNL     1       6.170  -1.264   0.940  0.00  0.00    -0.168 NA
ENDROOT
BRANCH   1   2
ATOM      2  S   UNL     1       7.179  -0.172   0.211  0.00  0.00    +0.063 S 
ATOM      3  O   UNL     1       7.418  -0.654  -1.104  0.00  0.00    -0.153 OA
ATOM      4  O   UNL     1       6.633   1.116   0.463  0.00  0.00    -0.153 OA
BRANCH   2   5
ATOM      5  C   UNL     1       8.721  -0.240   1.061  0.00  0.00    +0.124 A 
ATOM      6  C   UNL     1       9.835  -0.762   0.431  0.00  0.00    +0.030 A 
ATOM      7  C   UNL     1      11.046  -0.812   1.096  0.00  0.00    +0.002 A 
ATOM      8  C   UNL     1      11.141  -0.348   2.395  0.00  0.00    +0.002 A 
ATOM      9  C   UNL     1      10.026   0.170   3.028  0.00  0.00    +0.022 A 
ATOM     10  C   UNL     1       8.815   0.224   2.361  0.00  0.00    +0.067 A 
ATOM     11 CL   UNL     1       7.415   0.873   3.155  0.00  0.00    -0.082 Cl
ENDBRANCH   2   5
ENDBRANCH   1   2
BRANCH   1  12
ATOM     12  C   UNL     1       6.301  -2.693   0.644  0.00  0.00    +0.150 C 
BRANCH  12  19
ATOM     13  C   UNL     1       1.369  -4.675  -5.304  0.00  0.00    +0.044 C 
ATOM     14  C   UNL     1       2.458  -4.260  -4.348  0.00  0.00    -0.048 A 
ATOM     15  C   UNL     1       3.703  -3.894  -4.842  0.00  0.00    +0.007 A 
ATOM     16  C   UNL     1       4.704  -3.515  -3.993  0.00  0.00    -0.041 A 
ATOM     17  C   UNL     1       4.473  -3.498  -2.614  0.00  0.00    +0.002 A 
ATOM     18  C   UNL     1       5.522  -3.093  -1.676  0.00  0.00    +0.020 A 
ATOM     19  C   UNL     1       5.242  -3.100  -0.349  0.00  0.00    +0.033 A 
ATOM     20  C   UNL     1       3.962  -3.481   0.105  0.00  0.00    +0.254 A 
ATOM     21  O   UNL     1       3.730  -3.475   1.302  0.00  0.00    -0.268 OA
ATOM     22  N   UNL     1       2.991  -3.849  -0.749  0.00  0.00    -0.322 N 
ATOM     23  H   UNL     1       2.094  -4.113  -0.392  0.00  0.00    +0.169 HD
ATOM     24  C   UNL     1       3.213  -3.868  -2.109  0.00  0.00    +0.050 A 
ATOM     25  C   UNL     1       2.209  -4.250  -2.993  0.00  0.00    +0.029 A 
ATOM     26  C   UNL     1       6.051  -3.119  -4.541  0.00  0.00    +0.044 C 
ENDBRANCH  12  19
ENDBRANCH   1  12
BRANCH   1  27
ATOM     27  C   UNL     1       5.146  -0.802   1.880  0.00  0.00    +0.145 C 
BRANCH  27  28
ATOM     28  C   UNL     1       4.119   0.018   1.141  0.00  0.00    -0.028 A 
ATOM     29  C   UNL     1       3.080  -0.610   0.481  0.00  0.00    +0.009 A 
ATOM     30  C   UNL     1       2.136   0.138  -0.198  0.00  0.00    +0.050 A 
ATOM     31  C   UNL     1       2.230   1.520  -0.218  0.00  0.00    +0.166 A 
ATOM     32  C   UNL     1       3.276   2.153   0.448  0.00  0.00    +0.167 A 
ATOM     33  C   UNL     1       4.219   1.397   1.126  0.00  0.00    +0.054 A 
ATOM     34  O   UNL     1       3.148   3.501   0.280  0.00  0.00    -0.453 OA
ATOM     35  C   UNL     1       1.789   3.708  -0.148  0.00  0.00    +0.466 C 
ATOM     36  O   UNL     1       1.445   2.472  -0.802  0.00  0.00    -0.453 OA
ENDBRANCH  27  28
ENDBRANCH   1  27
TORSDOF 6
