REMARK  Name = ZINC20837737
REMARK  5 active torsions:
REMARK  status: ('A' for Active; 'I' for Inactive)
REMARK    1  A    between atoms: C_10  and  N_12
REMARK    2  A    between atoms: C_13  and  C_15
REMARK    3  A    between atoms: C_15  and  S_16
REMARK    4  A    between atoms: S_16  and  C_17
REMARK    5  A    between atoms: N_22  and  N_23
REMARK                            x       y       z     vdW  Elec       q    Type
REMARK                         _______ _______ _______ _____ _____    ______ ____
ROOT
ATOM      1  S   UNL     1      -0.394   8.614  -0.655  0.00  0.00    -0.075 S 
ENDROOT
BRANCH   1   2
ATOM      2  C   UNL     1      -0.433   9.918  -1.840  0.00  0.00    +0.211 A 
ATOM      3  N   UNL     1      -0.143  11.231  -1.599  0.00  0.00    -0.186 NA
ATOM      4  C   UNL     1      -0.286  11.917  -2.772  0.00  0.00    +0.232 A 
ATOM      5  N   UNL     1      -0.658  11.066  -3.697  0.00  0.00    -0.245 N 
ATOM      6  N   UNL     1      -0.752   9.799  -3.107  0.00  0.00    -0.144 NA
ATOM      7  N   UNL     1      -0.079  13.278  -2.952  0.00  0.00    -0.205 N 
ATOM      8  H   UNL     1       0.235  13.904  -2.103  0.00  0.00    +0.177 HD
ATOM      9  H   UNL     1      -0.836  11.414  -4.725  0.00  0.00    +0.192 HD
BRANCH   7  10
ATOM     10  N   UNL     1      -0.270  13.855  -4.215  0.00  0.00    -0.189 NA
ATOM     11  C   UNL     1       0.019  15.088  -4.405  0.00  0.00    +0.037 C 
ATOM     12  C   UNL     1       0.694  15.900  -3.304  0.00  0.00    +0.052 C 
ATOM     13  C   UNL     1       1.735  16.827  -3.882  0.00  0.00    +0.006 C 
ATOM     14  C   UNL     1       1.090  18.174  -4.238  0.00  0.00    +0.000 C 
ATOM     15  C   UNL     1       0.385  18.140  -5.522  0.00  0.00    +0.000 C 
ATOM     16  C   UNL     1      -0.803  17.168  -5.520  0.00  0.00    +0.006 C 
ATOM     17  C   UNL     1      -0.315  15.761  -5.733  0.00  0.00    +0.052 C 
ENDBRANCH   7  10
ENDBRANCH   1   2
BRANCH   1  18
ATOM     18  C   UNL     1      -0.883   7.146  -1.601  0.00  0.00    +0.173 C 
BRANCH  18  20
ATOM     19  N   UNL     1      -1.226   4.732  -1.183  0.00  0.00    -0.308 N 
ATOM     20  C   UNL     1      -0.891   5.943  -0.694  0.00  0.00    +0.224 C 
ATOM     21  O   UNL     1      -0.595   6.064   0.476  0.00  0.00    -0.275 OA
ATOM     22  H   UNL     1      -1.495   4.623  -2.244  0.00  0.00    +0.149 HD
BRANCH  19  32
ATOM     23  C   UNL     1       2.762   2.056  -0.049  0.00  0.00    +0.000 A 
ATOM     24  C   UNL     1       2.515   3.416  -0.025  0.00  0.00    +0.000 A 
ATOM     25  C   UNL     1       1.219   3.879  -0.113  0.00  0.00    +0.006 A 
ATOM     26  C   UNL     1       0.158   2.990  -0.224  0.00  0.00    -0.024 A 
ATOM     27  C   UNL     1       0.404   1.636  -0.260  0.00  0.00    -0.042 A 
ATOM     28  C   UNL     1       1.710   1.171  -0.164  0.00  0.00    +0.004 A 
ATOM     29  C   UNL     1      -0.695   0.615  -0.402  0.00  0.00    +0.035 C 
ATOM     30  C   UNL     1      -2.049   1.233  -0.058  0.00  0.00    +0.007 C 
ATOM     31  C   UNL     1      -2.209   2.527  -0.864  0.00  0.00    +0.027 C 
ATOM     32  C   UNL     1      -1.233   3.563  -0.300  0.00  0.00    +0.103 C 
ENDBRANCH  19  32
ENDBRANCH  18  20
ENDBRANCH   1  18
TORSDOF 5
