REMARK  Name = ZINC02257723
REMARK  7 active torsions:
REMARK  status: ('A' for Active; 'I' for Inactive)
REMARK    1  A    between atoms: C_1  and  C_2
REMARK    2  A    between atoms: N_8  and  C_9
REMARK    3  A    between atoms: C_9  and  C_10
REMARK    4  A    between atoms: C_10  and  N_53
REMARK    5  A    between atoms: C_16  and  C_24
REMARK    6  A    between atoms: C_18  and  C_22
REMARK    7  A    between atoms: C_19  and  N_21
REMARK                            x       y       z     vdW  Elec       q    Type
REMARK                         _______ _______ _______ _____ _____    ______ ____
ROOT
ATOM      1  C   UNL     1       2.457   1.026  -0.017  0.00  0.00    +0.064 C 
ATOM      2  C   UNL     1       1.146   1.769   0.001  0.00  0.00    +0.022 A 
ATOM      3  C   UNL     1      -0.013   1.076   0.008  0.00  0.00    +0.068 A 
ATOM      4  C   UNL     1      -1.242   1.767   0.018  0.00  0.00    +0.141 A 
ATOM      5  C   UNL     1      -1.233   3.146   0.032  0.00  0.00    +0.072 A 
ATOM      6  C   UNL     1      -0.007   3.822   0.024  0.00  0.00    +0.259 A 
ATOM      7  O   UNL     1       0.017   5.043   0.031  0.00  0.00    -0.267 OA
ATOM      8  N   UNL     1       1.147   3.128   0.008  0.00  0.00    -0.314 N 
ATOM      9  C   UNL     1      -2.521   3.922   0.050  0.00  0.00    +0.105 C 
ATOM     10  C   UNL     1      -3.667   3.033  -0.344  0.00  0.00    +0.098 C 
ATOM     11  C   UNL     1      -3.546   1.684  -0.331  0.00  0.00    +0.199 C 
ATOM     12  O   UNL     1      -2.402   1.077   0.030  0.00  0.00    -0.441 OA
ENDROOT
BRANCH   9  13
ATOM     13  C   UNL     1      -2.760   4.462   1.437  0.00  0.00    -0.016 A 
ATOM     14  C   UNL     1      -2.883   3.592   2.504  0.00  0.00    +0.007 A 
ATOM     15  C   UNL     1      -3.096   4.086   3.777  0.00  0.00    +0.020 A 
ATOM     16  C   UNL     1      -3.198   5.451   3.982  0.00  0.00    +0.042 A 
ATOM     17  C   UNL     1      -3.081   6.321   2.913  0.00  0.00    +0.040 A 
ATOM     18  C   UNL     1      -2.861   5.826   1.640  0.00  0.00    +0.046 A 
ATOM     19 CL   UNL     1      -2.715   6.917   0.298  0.00  0.00    -0.083 Cl
ATOM     20 CL   UNL     1      -3.473   6.071   5.580  0.00  0.00    -0.083 Cl
ENDBRANCH   9  13
BRANCH  11  21
ATOM     21  N   UNL     1      -4.622   0.915  -0.698  0.00  0.00    -0.328 N 
ATOM     22  H   UNL     1      -5.454   1.339  -0.961  0.00  0.00    +0.145 HD
ATOM     23  H   UNL     1      -4.551  -0.052  -0.695  0.00  0.00    +0.145 HD
ENDBRANCH  11  21
BRANCH  10  24
ATOM     24  C   UNL     1      -4.911   3.623  -0.738  0.00  0.00    +0.101 C 
ATOM     25  N   UNL     1      -5.898   4.091  -1.051  0.00  0.00    -0.191 NA
ENDBRANCH  10  24
BRANCH   8  26
ATOM     26  C   UNL     1       2.422   3.849  -0.000  0.00  0.00    +0.106 C 
BRANCH  26  27
ATOM     27  C   UNL     1       2.852   4.107  -1.446  0.00  0.00    -0.057 C 
BRANCH  27  33
ATOM     28  C   UNL     1       3.976   6.181  -0.895  0.00  0.00    -0.050 C 
ATOM     29  C   UNL     1       5.341   6.875  -0.868  0.00  0.00    +0.141 C 
ATOM     30  O   UNL     1       5.886   6.896  -2.190  0.00  0.00    -0.383 OA
ATOM     31  C   UNL     1       6.051   5.596  -2.765  0.00  0.00    +0.141 C 
ATOM     32  C   UNL     1       4.693   4.889  -2.811  0.00  0.00    -0.050 C 
ATOM     33  N   UNL     1       4.149   4.818  -1.439  0.00  0.00    +0.384 N 
ATOM     34  H   UNL     1       4.809   4.302  -0.844  0.00  0.00    -0.082 HD
ENDBRANCH  27  33
ENDBRANCH  26  27
ENDBRANCH   8  26
TORSDOF 6
