REMARK  Name = ZINC07238950
REMARK  6 active torsions:
REMARK  status: ('A' for Active; 'I' for Inactive)
REMARK    1  A    between atoms: C_3  and  O_9
REMARK    2  A    between atoms: C_6  and  C_7
REMARK    3  A    between atoms: O_9  and  C_10
REMARK    4  A    between atoms: C_13  and  S_19
REMARK    5  A    between atoms: C_15  and  N_16
REMARK    6  A    between atoms: S_19  and  N_22
REMARK                            x       y       z     vdW  Elec       q    Type
REMARK                         _______ _______ _______ _____ _____    ______ ____
ROOT
ATOM      1  C   UNL     1       4.856  -1.806  -2.676  0.00  0.00    +0.159 A 
ATOM      2  C   UNL     1       4.078  -2.708  -1.963  0.00  0.00    +0.050 A 
ATOM      3  C   UNL     1       3.648  -2.390  -0.690  0.00  0.00    +0.032 A 
ATOM      4  C   UNL     1       3.983  -1.171  -0.129  0.00  0.00    +0.108 A 
ATOM      5  C   UNL     1       4.758  -0.272  -0.837  0.00  0.00    +0.065 A 
ATOM      6  C   UNL     1       5.195  -0.586  -2.110  0.00  0.00    +0.170 A 
ENDROOT
BRANCH   6   7
ATOM      7  N   UNL     1       6.024   0.378  -2.867  0.00  0.00    +0.060 N 
ATOM      8  O   UNL     1       6.322   1.449  -2.369  0.00  0.00    -0.126 OA
ATOM      9  O   UNL     1       6.410   0.100  -3.989  0.00  0.00    -0.126 OA
ENDBRANCH   6   7
BRANCH   4  10
ATOM     10  S   UNL     1       3.427  -0.767   1.493  0.00  0.00    +0.061 S 
ATOM     11  O   UNL     1       4.333   0.201   2.004  0.00  0.00    -0.153 OA
ATOM     12  O   UNL     1       3.175  -1.999   2.155  0.00  0.00    -0.153 OA
BRANCH  10  13
ATOM     13  N   UNL     1       1.964  -0.007   1.334  0.00  0.00    -0.177 NA
ATOM     14  C   UNL     1       0.715  -0.781   1.339  0.00  0.00    +0.109 C 
ATOM     15  C   UNL     1      -0.089  -0.428   0.083  0.00  0.00    +0.017 C 
ATOM     16  C   UNL     1      -0.288   1.088   0.019  0.00  0.00    +0.003 C 
ATOM     17  C   UNL     1       1.074   1.780  -0.068  0.00  0.00    +0.017 C 
ATOM     18  C   UNL     1       1.891   1.453   1.186  0.00  0.00    +0.109 C 
ENDBRANCH  10  13
ENDBRANCH   4  10
BRANCH   1  19
ATOM     19  O   UNL     1       5.285  -2.118  -3.928  0.00  0.00    -0.454 OA
BRANCH  19  22
ATOM     20  C   UNL     1       8.267  -3.523  -5.458  0.00  0.00    +0.022 A 
ATOM     21  C   UNL     1       7.031  -2.931  -5.322  0.00  0.00    +0.047 A 
ATOM     22  C   UNL     1       6.503  -2.702  -4.057  0.00  0.00    +0.129 A 
ATOM     23  C   UNL     1       7.221  -3.065  -2.924  0.00  0.00    +0.047 A 
ATOM     24  C   UNL     1       8.456  -3.663  -3.050  0.00  0.00    +0.022 A 
ATOM     25  C   UNL     1       8.990  -3.894  -4.321  0.00  0.00    +0.052 A 
BRANCH  25  26
ATOM     26  C   UNL     1      10.276  -4.511  -4.457  0.00  0.00    +0.099 C 
ATOM     27  N   UNL     1      11.295  -5.000  -4.565  0.00  0.00    -0.191 NA
ENDBRANCH  25  26
ENDBRANCH  19  22
ENDBRANCH   1  19
TORSDOF 6
