REMARK  Name = ZINC00133179
REMARK  3 active torsions:
REMARK  status: ('A' for Active; 'I' for Inactive)
REMARK    1  A    between atoms: C_4  and  S_7
REMARK    2  A    between atoms: S_7  and  C_10
REMARK    3  A    between atoms: C_13  and  N_16
REMARK                            x       y       z     vdW  Elec       q    Type
REMARK                         _______ _______ _______ _____ _____    ______ ____
ROOT
ATOM      1  S   UNL     1       2.713   0.923  -0.019  0.00  0.00    +0.025 S 
ATOM      2  O   UNL     1       3.680   1.809   0.527  0.00  0.00    -0.164 OA
ATOM      3  O   UNL     1       2.464  -0.365   0.527  0.00  0.00    -0.164 OA
ENDROOT
BRANCH   1   7
ATOM      4  C   UNL     1      -1.238   3.133   0.030  0.00  0.00    +0.000 A 
ATOM      5  C   UNL     1      -1.219   1.751   0.017  0.00  0.00    +0.002 A 
ATOM      6  C   UNL     1      -0.013   1.076   0.008  0.00  0.00    +0.027 A 
ATOM      7  C   UNL     1       1.175   1.783   0.000  0.00  0.00    +0.094 A 
ATOM      8  C   UNL     1       1.156   3.165   0.008  0.00  0.00    +0.027 A 
ATOM      9  C   UNL     1      -0.050   3.840   0.022  0.00  0.00    +0.002 A 
ENDBRANCH   1   7
BRANCH   1  10
ATOM     10  C   UNL     1       3.151   0.678  -1.708  0.00  0.00    +0.094 A 
ATOM     11  C   UNL     1       2.744  -0.466  -2.369  0.00  0.00    +0.029 A 
ATOM     12  C   UNL     1       3.084  -0.656  -3.695  0.00  0.00    +0.034 A 
ATOM     13  C   UNL     1       3.840   0.293  -4.357  0.00  0.00    +0.126 A 
ATOM     14  C   UNL     1       4.252   1.434  -3.695  0.00  0.00    +0.034 A 
ATOM     15  C   UNL     1       3.908   1.627  -2.370  0.00  0.00    +0.029 A 
BRANCH  13  16
ATOM     16  N   UNL     1       4.209   0.086  -5.776  0.00  0.00    +0.056 N 
ATOM     17  O   UNL     1       4.875   0.922  -6.360  0.00  0.00    -0.126 OA
ATOM     18  O   UNL     1       3.846  -0.919  -6.360  0.00  0.00    -0.126 OA
ENDBRANCH  13  16
ENDBRANCH   1  10
TORSDOF 3
