REMARK  Name = ZINC16434583
REMARK  16 active torsions:
REMARK  status: ('A' for Active; 'I' for Inactive)
REMARK    1  A    between atoms: C_1  and  C_2
REMARK    2  A    between atoms: C_2  and  C_3
REMARK    3  A    between atoms: C_3  and  C_4
REMARK    4  A    between atoms: C_4  and  N_5
REMARK    5  A    between atoms: N_5  and  C_6
REMARK    6  A    between atoms: C_6  and  C_7
REMARK    7  A    between atoms: N_9  and  C_10
REMARK    8  A    between atoms: C_12  and  C_19
REMARK    9  A    between atoms: N_14  and  C_15
REMARK   10  A    between atoms: C_15  and  C_16
REMARK   11  A    between atoms: C_15  and  C_17
REMARK   12  A    between atoms: C_15  and  C_18
REMARK   13  A    between atoms: C_19  and  C_20
REMARK   14  A    between atoms: C_19  and  C_21
REMARK   15  A    between atoms: C_19  and  C_22
REMARK   16  A    between atoms: N_25  and  C_26
REMARK                            x       y       z     vdW  Elec       q    Type
REMARK                         _______ _______ _______ _____ _____    ______ ____
ROOT
ATOM      1  C   UNL     1       4.129   2.912   0.676  0.00  0.00    +0.205 C 
ENDROOT
BRANCH   1   2
ATOM      2  N   UNL     1       3.762   1.550   0.279  0.00  0.00    -0.277 N 
ATOM      3  C   UNL     1       4.287   1.010  -0.839  0.00  0.00    +0.307 C 
ATOM      4  O   UNL     1       5.063   1.653  -1.518  0.00  0.00    -0.252 OA
ATOM      5  N   UNL     1       3.950  -0.243  -1.204  0.00  0.00    -0.267 N 
ATOM      6  H   UNL     1       3.389  -0.783  -0.625  0.00  0.00    +0.156 HD
BRANCH   5   7
ATOM      7  C   UNL     1       4.409  -0.766  -2.420  0.00  0.00    +0.072 A 
ATOM      8  C   UNL     1       3.675  -0.571  -3.583  0.00  0.00    +0.064 A 
ATOM      9  C   UNL     1       4.133  -1.085  -4.782  0.00  0.00    +0.022 A 
ATOM     10  C   UNL     1       5.316  -1.800  -4.822  0.00  0.00    +0.003 A 
ATOM     11  C   UNL     1       6.047  -1.999  -3.666  0.00  0.00    +0.022 A 
ATOM     12  C   UNL     1       5.597  -1.485  -2.464  0.00  0.00    +0.064 A 
ATOM     13 CL   UNL     1       6.515  -1.737  -1.012  0.00  0.00    -0.082 Cl
ATOM     14 CL   UNL     1       2.186   0.320  -3.532  0.00  0.00    -0.082 Cl
ENDBRANCH   5   7
BRANCH   2  15
ATOM     15  C   UNL     1       2.826   0.775   1.097  0.00  0.00    +0.110 C 
BRANCH  15  16
ATOM     16  C   UNL     1       1.397   1.026   0.613  0.00  0.00    +0.019 C 
BRANCH  16  18
ATOM     17  C   UNL     1      -1.010   0.468   0.984  0.00  0.00    +0.004 C 
ATOM     18  C   UNL     1       0.419   0.217   1.468  0.00  0.00    -0.002 C 
ENDBRANCH  16  18
ENDBRANCH  15  16
ENDBRANCH   2  15
ENDBRANCH   1   2
BRANCH   1  19
ATOM     19  C   UNL     1       3.167   3.892   0.054  0.00  0.00    +0.236 C 
ATOM     20  O   UNL     1       2.265   3.492  -0.651  0.00  0.00    -0.274 OA
ATOM     21  N   UNL     1       3.313   5.213   0.278  0.00  0.00    -0.269 N 
ATOM     22  H   UNL     1       4.035   5.532   0.842  0.00  0.00    +0.156 HD
BRANCH  21  23
ATOM     23  C   UNL     1       2.427   6.120  -0.302  0.00  0.00    +0.124 A 
ATOM     24  C   UNL     1       1.375   5.813  -1.109  0.00  0.00    +0.069 A 
ATOM     25  C   UNL     1       0.749   7.009  -1.471  0.00  0.00    +0.070 A 
ATOM     26  N   UNL     1       1.394   7.998  -0.906  0.00  0.00    -0.174 NA
ATOM     27  N   UNL     1       2.453   7.465  -0.159  0.00  0.00    -0.245 N 
BRANCH  27  28
ATOM     28  C   UNL     1       3.418   8.229   0.634  0.00  0.00    +0.057 C 
ATOM     29  C   UNL     1       4.830   7.974   0.103  0.00  0.00    +0.036 C 
ATOM     30  C   UNL     1       3.097   9.721   0.530  0.00  0.00    +0.036 C 
ATOM     31  C   UNL     1       3.337   7.791   2.098  0.00  0.00    +0.036 C 
ENDBRANCH  27  28
BRANCH  25  32
ATOM     32  C   UNL     1      -0.462   7.138  -2.359  0.00  0.00    +0.006 C 
ATOM     33  C   UNL     1      -1.710   6.714  -1.584  0.00  0.00    +0.017 C 
ATOM     34  C   UNL     1      -0.610   8.593  -2.810  0.00  0.00    +0.017 C 
ATOM     35  C   UNL     1      -0.293   6.239  -3.585  0.00  0.00    +0.017 C 
ENDBRANCH  25  32
ENDBRANCH  21  23
ENDBRANCH   1  19
TORSDOF 9
