REMARK  Name = ZINC39732876
REMARK  6 active torsions:
REMARK  status: ('A' for Active; 'I' for Inactive)
REMARK    1  A    between atoms: C_7  and  C_10
REMARK    2  A    between atoms: C_13  and  S_19
REMARK    3  A    between atoms: N_15  and  C_16
REMARK    4  A    between atoms: S_19  and  C_20
REMARK    5  A    between atoms: C_20  and  C_21
REMARK    6  A    between atoms: N_23  and  N_24
REMARK                            x       y       z     vdW  Elec       q    Type
REMARK                         _______ _______ _______ _____ _____    ______ ____
ROOT
ATOM      1  C   UNL     1       0.684  -3.157   0.170  0.00  0.00    +0.147 C 
ATOM      2  N   UNL     1      -0.617  -3.038   0.212  0.00  0.00    -0.169 NA
ATOM      3  N   UNL     1      -1.248  -4.259  -0.053  0.00  0.00    -0.237 N 
ATOM      4  C   UNL     1      -0.177  -5.242  -0.285  0.00  0.00    +0.237 C 
ATOM      5  N   UNL     1       1.065  -4.467  -0.133  0.00  0.00    -0.282 N 
ATOM      6  H   UNL     1      -2.204  -4.424  -0.079  0.00  0.00    +0.171 HD
ENDROOT
BRANCH   1  13
ATOM      7  C   UNL     1       0.051   1.150   1.446  0.00  0.00    +0.001 A 
ATOM      8  C   UNL     1       1.236   1.881   1.554  0.00  0.00    +0.002 A 
ATOM      9  C   UNL     1       2.445   1.325   1.295  0.00  0.00    +0.026 A 
ATOM     10  C   UNL     1       2.527  -0.036   0.902  0.00  0.00    +0.043 A 
ATOM     11  N   UNL     1       3.561  -0.796   0.599  0.00  0.00    -0.380 N 
ATOM     12  C   UNL     1       3.089  -2.141   0.257  0.00  0.00    +0.152 C 
ATOM     13  C   UNL     1       1.583  -2.103   0.394  0.00  0.00    +0.022 C 
ATOM     14  C   UNL     1       1.274  -0.801   0.789  0.00  0.00    +0.006 A 
ATOM     15  C   UNL     1       0.052  -0.156   1.075  0.00  0.00    +0.010 A 
ATOM     16  H   UNL     1       4.488  -0.510   0.603  0.00  0.00    +0.160 HD
ENDBRANCH   1  13
BRANCH   5  17
ATOM     17  C   UNL     1       2.434  -4.971  -0.270  0.00  0.00    +0.078 C 
ATOM     18  C   UNL     1       2.610  -6.431  -0.694  0.00  0.00    +0.024 C 
ATOM     19  C   UNL     1       2.909  -6.011   0.747  0.00  0.00    +0.024 C 
ENDBRANCH   5  17
BRANCH   4  20
ATOM     20  S   UNL     1      -0.295  -5.925  -1.961  0.00  0.00    -0.109 S 
BRANCH  20  21
ATOM     21  C   UNL     1      -0.165  -4.471  -3.038  0.00  0.00    +0.169 C 
BRANCH  21  22
ATOM     22  C   UNL     1      -0.250  -4.903  -4.479  0.00  0.00    +0.240 C 
ATOM     23  O   UNL     1      -0.384  -6.077  -4.753  0.00  0.00    -0.273 OA
ATOM     24  N   UNL     1      -0.175  -3.986  -5.463  0.00  0.00    -0.223 N 
ATOM     25  H   UNL     1      -0.068  -3.047  -5.244  0.00  0.00    +0.174 HD
BRANCH  24  26
ATOM     26  N   UNL     1      -0.254  -4.388  -6.803  0.00  0.00    -0.137 N 
ATOM     27  C   UNL     1       0.803  -4.452  -7.639  0.00  0.00    +0.263 C 
ATOM     28  O   UNL     1       1.958  -4.183  -7.384  0.00  0.00    -0.271 OA
ATOM     29  C   UNL     1       0.245  -4.930  -8.960  0.00  0.00    +0.114 C 
ATOM     30  C   UNL     1       0.876  -6.261  -9.353  0.00  0.00    +0.035 C 
ATOM     31  C   UNL     1       0.276  -6.742 -10.677  0.00  0.00    +0.003 C 
ATOM     32  C   UNL     1       0.534  -5.696 -11.762  0.00  0.00    +0.000 C 
ATOM     33  C   UNL     1      -0.124  -4.373 -11.365  0.00  0.00    +0.003 C 
ATOM     34  C   UNL     1       0.475  -3.883 -10.044  0.00  0.00    +0.035 C 
ATOM     35  N   UNL     1      -1.190  -5.098  -8.701  0.00  0.00    -0.284 N 
ATOM     36  C   UNL     1      -1.386  -4.761  -7.411  0.00  0.00    +0.326 C 
ATOM     37  O   UNL     1      -2.470  -4.791  -6.863  0.00  0.00    -0.251 OA
ATOM     38  H   UNL     1      -1.864  -5.395  -9.332  0.00  0.00    +0.151 HD
ENDBRANCH  24  26
ENDBRANCH  21  22
ENDBRANCH  20  21
ENDBRANCH   4  20
TORSDOF 6
