REMARK  Name = ZINC06443099
REMARK  10 active torsions:
REMARK  status: ('A' for Active; 'I' for Inactive)
REMARK    1  A    between atoms: C_1  and  C_2
REMARK    2  A    between atoms: C_6  and  N_9
REMARK    3  A    between atoms: C_7  and  C_8
REMARK    4  A    between atoms: C_14  and  C_16
REMARK    5  A    between atoms: C_14  and  C_30
REMARK    6  A    between atoms: C_14  and  N_75
REMARK    7  A    between atoms: C_20  and  C_29
REMARK    8  A    between atoms: C_22  and  C_28
REMARK    9  A    between atoms: N_34  and  C_35
REMARK   10  A    between atoms: C_35  and  C_36
REMARK                            x       y       z     vdW  Elec       q    Type
REMARK                         _______ _______ _______ _____ _____    ______ ____
ROOT
ATOM      1  C   UNL     1       1.667   6.426  -1.702  0.00  0.00    +0.039 C 
ENDROOT
BRANCH   1   2
ATOM      2  C   UNL     1       2.540   7.627  -1.442  0.00  0.00    +0.011 A 
ATOM      3  C   UNL     1       2.633   8.134  -0.188  0.00  0.00    +0.017 A 
ATOM      4  C   UNL     1       3.490   9.301   0.032  0.00  0.00    -0.001 A 
ATOM      5  C   UNL     1       3.627   9.869   1.303  0.00  0.00    +0.013 A 
ATOM      6  C   UNL     1       4.434  10.957   1.476  0.00  0.00    -0.050 A 
ATOM      7  C   UNL     1       5.120  11.505   0.400  0.00  0.00    +0.008 A 
ATOM      8  C   UNL     1       5.001  10.962  -0.861  0.00  0.00    -0.026 A 
ATOM      9  C   UNL     1       4.184   9.854  -1.061  0.00  0.00    +0.052 A 
ATOM     10  N   UNL     1       4.046   9.290  -2.311  0.00  0.00    -0.322 N 
ATOM     11  H   UNL     1       4.525   9.672  -3.063  0.00  0.00    +0.169 HD
ATOM     12  C   UNL     1       3.261   8.215  -2.502  0.00  0.00    +0.251 A 
ATOM     13  O   UNL     1       3.167   7.740  -3.621  0.00  0.00    -0.268 OA
ATOM     14  C   UNL     1       5.751  11.567  -2.019  0.00  0.00    +0.046 C 
ATOM     15  C   UNL     1       4.581  11.569   2.845  0.00  0.00    +0.044 C 
ENDBRANCH   1   2
BRANCH   1  21
ATOM     16  N   UNL     1      -1.892   7.120  -3.870  0.00  0.00    -0.333 N 
ATOM     17  C   UNL     1      -1.096   5.934  -4.214  0.00  0.00    +0.086 C 
ATOM     18  C   UNL     1      -0.165   5.592  -3.049  0.00  0.00    -0.058 C 
ATOM     19  C   UNL     1      -0.090   7.929  -2.423  0.00  0.00    -0.058 C 
ATOM     20  C   UNL     1      -1.022   8.271  -3.589  0.00  0.00    +0.086 C 
ATOM     21  N   UNL     1       0.719   6.748  -2.791  0.00  0.00    +0.391 N 
ATOM     22  H   UNL     1       1.250   6.960  -3.644  0.00  0.00    -0.080 HD
BRANCH  16  28
ATOM     23  C   UNL     1      -6.547   7.742  -5.318  0.00  0.00    +0.044 C 
ATOM     24  C   UNL     1      -5.070   7.729  -5.613  0.00  0.00    -0.046 A 
ATOM     25  C   UNL     1      -4.618   8.015  -6.888  0.00  0.00    +0.004 A 
ATOM     26  C   UNL     1      -3.263   8.005  -7.164  0.00  0.00    +0.002 A 
ATOM     27  C   UNL     1      -2.356   7.708  -6.165  0.00  0.00    +0.023 A 
ATOM     28  C   UNL     1      -2.806   7.421  -4.883  0.00  0.00    +0.033 A 
ATOM     29  C   UNL     1      -4.169   7.427  -4.611  0.00  0.00    -0.027 A 
ATOM     30  C   UNL     1      -4.663   7.109  -3.223  0.00  0.00    +0.046 C 
ENDBRANCH  16  28
ENDBRANCH   1  21
BRANCH   1  31
ATOM     31  C   UNL     1       2.525   5.264  -2.130  0.00  0.00    +0.143 A 
ATOM     32  N   UNL     1       3.095   5.100  -3.299  0.00  0.00    -0.115 NA
ATOM     33  N   UNL     1       3.742   3.986  -3.273  0.00  0.00    -0.023 NA
ATOM     34  N   UNL     1       3.606   3.439  -2.116  0.00  0.00    -0.044 NA
ATOM     35  N   UNL     1       2.858   4.194  -1.384  0.00  0.00    -0.226 N 
BRANCH  35  36
ATOM     36  C   UNL     1       2.451   3.937  -0.001  0.00  0.00    +0.182 C 
BRANCH  36  37
ATOM     37  C   UNL     1       1.156   3.165   0.008  0.00  0.00    -0.026 A 
ATOM     38  C   UNL     1       1.175   1.783   0.000  0.00  0.00    +0.005 A 
ATOM     39  C   UNL     1      -0.013   1.076   0.008  0.00  0.00    +0.000 A 
ATOM     40  C   UNL     1      -1.219   1.751   0.017  0.00  0.00    +0.000 A 
ATOM     41  C   UNL     1      -1.238   3.133   0.030  0.00  0.00    +0.000 A 
ATOM     42  C   UNL     1      -0.050   3.840   0.023  0.00  0.00    +0.005 A 
ENDBRANCH  36  37
ENDBRANCH  35  36
ENDBRANCH   1  31
TORSDOF 6
