REMARK  Name = ZINC02651689
REMARK  10 active torsions:
REMARK  status: ('A' for Active; 'I' for Inactive)
REMARK    1  A    between atoms: C_1  and  C_2
REMARK    2  A    between atoms: C_9  and  N_13
REMARK    3  A    between atoms: C_10  and  C_11
REMARK    4  A    between atoms: C_14  and  C_16
REMARK    5  A    between atoms: C_16  and  O_17
REMARK    6  A    between atoms: O_17  and  C_18
REMARK    7  A    between atoms: C_18  and  C_20
REMARK    8  A    between atoms: C_23  and  C_26
REMARK    9  A    between atoms: C_26  and  S_27
REMARK   10  A    between atoms: S_27  and  C_28
REMARK                            x       y       z     vdW  Elec       q    Type
REMARK                         _______ _______ _______ _____ _____    ______ ____
ROOT
ATOM      1  O   UNL     1       8.184   1.288  -4.617  0.00  0.00    -0.452 OA
ENDROOT
BRANCH   1   2
ATOM      2  C   UNL     1       9.258   1.219  -5.426  0.00  0.00    +0.340 C 
ATOM      3  O   UNL     1       9.116   0.944  -6.601  0.00  0.00    -0.245 OA
BRANCH   2   4
ATOM      4  C   UNL     1      10.608   1.476  -4.886  0.00  0.00    +0.059 A 
ATOM      5  C   UNL     1      10.774   1.798  -3.537  0.00  0.00    +0.015 A 
ATOM      6  C   UNL     1      12.039   2.032  -3.037  0.00  0.00    +0.005 A 
ATOM      7  C   UNL     1      13.140   1.960  -3.872  0.00  0.00    -0.037 A 
ATOM      8  C   UNL     1      12.982   1.647  -5.210  0.00  0.00    +0.005 A 
ATOM      9  C   UNL     1      11.724   1.405  -5.722  0.00  0.00    +0.015 A 
BRANCH   7  10
ATOM     10  C   UNL     1      14.517   2.223  -3.320  0.00  0.00    +0.109 C 
BRANCH  10  11
ATOM     11  S   UNL     1      14.900   3.990  -3.467  0.00  0.00    -0.121 S 
BRANCH  11  12
ATOM     12  C   UNL     1      16.520   4.133  -2.789  0.00  0.00    +0.008 A 
ATOM     13  C   UNL     1      17.172   3.008  -2.300  0.00  0.00    +0.016 A 
ATOM     14  C   UNL     1      18.444   3.122  -1.774  0.00  0.00    +0.021 A 
ATOM     15  C   UNL     1      19.064   4.358  -1.723  0.00  0.00    +0.041 A 
ATOM     16  C   UNL     1      18.415   5.482  -2.204  0.00  0.00    +0.021 A 
ATOM     17  C   UNL     1      17.146   5.373  -2.736  0.00  0.00    +0.016 A 
ATOM     18 CL   UNL     1      20.660   4.499  -1.056  0.00  0.00    -0.084 Cl
ENDBRANCH  11  12
ENDBRANCH  10  11
ENDBRANCH   7  10
ENDBRANCH   2   4
ENDBRANCH   1   2
BRANCH   1  19
ATOM     19  C   UNL     1       6.888   1.024  -5.216  0.00  0.00    +0.328 C 
BRANCH  19  21
ATOM     20  N   UNL     1       4.523   0.942  -4.495  0.00  0.00    -0.276 N 
ATOM     21  C   UNL     1       5.814   1.146  -4.166  0.00  0.00    +0.255 C 
ATOM     22  O   UNL     1       6.111   1.429  -3.025  0.00  0.00    -0.272 OA
ATOM     23  H   UNL     1       4.285   0.715  -5.408  0.00  0.00    +0.155 HD
BRANCH  20  31
ATOM     24  C   UNL     1      -0.734   1.582   1.263  0.00  0.00    +0.008 C 
ATOM     25  C   UNL     1      -0.013   1.086   0.008  0.00  0.00    -0.009 C 
ATOM     26  C   UNL     1      -0.738   1.596  -1.240  0.00  0.00    +0.008 C 
ATOM     27  C   UNL     1      -0.178   0.908  -2.486  0.00  0.00    +0.037 C 
ATOM     28  C   UNL     1       1.338   1.060  -2.491  0.00  0.00    -0.018 A 
ATOM     29  C   UNL     1       2.009   1.379  -1.361  0.00  0.00    -0.004 A 
ATOM     30  S   UNL     1       3.710   1.445  -1.849  0.00  0.00    -0.077 S 
ATOM     31  C   UNL     1       3.534   1.055  -3.528  0.00  0.00    +0.090 A 
ATOM     32  C   UNL     1       2.165   0.883  -3.671  0.00  0.00    +0.084 A 
ATOM     33  C   UNL     1       1.427   1.620  -0.003  0.00  0.00    +0.046 C 
BRANCH  32  34
ATOM     34  C   UNL     1       1.588   0.544  -4.937  0.00  0.00    +0.102 C 
ATOM     35  N   UNL     1       1.131   0.274  -5.942  0.00  0.00    -0.191 NA
ENDBRANCH  32  34
ENDBRANCH  20  31
ENDBRANCH  19  21
ENDBRANCH   1  19
TORSDOF 9
