REMARK  Name = ZINC17749244
REMARK  8 active torsions:
REMARK  status: ('A' for Active; 'I' for Inactive)
REMARK    1  A    between atoms: C_1  and  C_2
REMARK    2  A    between atoms: C_3  and  C_15
REMARK    3  A    between atoms: N_5  and  C_7
REMARK    4  A    between atoms: C_15  and  C_17
REMARK    5  A    between atoms: C_15  and  C_24
REMARK    6  A    between atoms: C_21  and  O_23
REMARK    7  A    between atoms: C_26  and  C_38
REMARK    8  A    between atoms: N_28  and  C_31
REMARK                            x       y       z     vdW  Elec       q    Type
REMARK                         _______ _______ _______ _____ _____    ______ ____
ROOT
ATOM      1  C   UNL     1      -0.489   4.072  -0.737  0.00  0.00    +0.074 C 
ENDROOT
BRANCH   1   4
ATOM      2  C   UNL     1      -0.149   1.379   0.789  0.00  0.00    +0.065 C 
ATOM      3  C   UNL     1      -0.830   1.558  -0.543  0.00  0.00    +0.039 A 
ATOM      4  C   UNL     1      -0.976   2.724  -1.203  0.00  0.00    +0.047 A 
ATOM      5  C   UNL     1      -1.667   2.463  -2.409  0.00  0.00    +0.276 A 
ATOM      6  N   UNL     1      -1.925   1.140  -2.454  0.00  0.00    -0.219 N 
ATOM      7  N   UNL     1      -1.399   0.565  -1.289  0.00  0.00    -0.294 N 
ATOM      8  O   UNL     1      -1.974   3.284  -3.255  0.00  0.00    -0.266 OA
ATOM      9  H   UNL     1      -1.433  -0.376  -1.053  0.00  0.00    +0.187 HD
BRANCH   6  10
ATOM     10  C   UNL     1      -2.594   0.463  -3.480  0.00  0.00    +0.067 A 
ATOM     11  C   UNL     1      -3.057   1.161  -4.587  0.00  0.00    +0.030 A 
ATOM     12  C   UNL     1      -3.717   0.491  -5.599  0.00  0.00    +0.040 A 
ATOM     13  C   UNL     1      -3.917  -0.876  -5.509  0.00  0.00    +0.124 A 
ATOM     14  C   UNL     1      -3.457  -1.575  -4.405  0.00  0.00    +0.040 A 
ATOM     15  C   UNL     1      -2.791  -0.909  -3.394  0.00  0.00    +0.030 A 
ATOM     16  F   UNL     1      -4.563  -1.530  -6.499  0.00  0.00    -0.205 F 
ENDBRANCH   6  10
ENDBRANCH   1   4
BRANCH   1  17
ATOM     17  C   UNL     1       0.359   4.716  -1.836  0.00  0.00    +0.135 C 
ATOM     18  C   UNL     1       1.584   3.874  -2.126  0.00  0.00    +0.047 C 
ATOM     19  N   UNL     1       2.605   4.591  -1.861  0.00  0.00    -0.181 NA
ATOM     20  N   UNL     1       2.277   5.865  -1.408  0.00  0.00    -0.160 N 
ATOM     21  C   UNL     1       0.935   6.036  -1.361  0.00  0.00    +0.249 C 
ATOM     22  O   UNL     1       0.326   7.026  -1.014  0.00  0.00    -0.273 OA
ATOM     23  C   UNL     1       1.594   2.455  -2.633  0.00  0.00    +0.063 C 
BRANCH  20  24
ATOM     24  C   UNL     1       3.212   6.844  -1.049  0.00  0.00    +0.060 A 
ATOM     25  C   UNL     1       2.782   8.086  -0.602  0.00  0.00    +0.028 A 
ATOM     26  C   UNL     1       3.706   9.050  -0.249  0.00  0.00    +0.040 A 
ATOM     27  C   UNL     1       5.061   8.778  -0.341  0.00  0.00    +0.124 A 
ATOM     28  C   UNL     1       5.492   7.540  -0.787  0.00  0.00    +0.040 A 
ATOM     29  C   UNL     1       4.571   6.571  -1.135  0.00  0.00    +0.028 A 
ATOM     30  F   UNL     1       5.963   9.722   0.004  0.00  0.00    -0.205 F 
ENDBRANCH  20  24
ENDBRANCH   1  17
BRANCH   1  31
ATOM     31  C   UNL     1      -1.671   4.956  -0.432  0.00  0.00    -0.035 A 
ATOM     32  C   UNL     1      -2.472   5.417  -1.460  0.00  0.00    +0.004 A 
ATOM     33  C   UNL     1      -3.557   6.228  -1.183  0.00  0.00    +0.004 A 
ATOM     34  C   UNL     1      -3.843   6.579   0.122  0.00  0.00    +0.045 A 
ATOM     35  C   UNL     1      -3.042   6.117   1.155  0.00  0.00    +0.117 A 
ATOM     36  C   UNL     1      -1.957   5.299   0.875  0.00  0.00    +0.049 A 
BRANCH  35  37
ATOM     37  O   UNL     1      -3.321   6.462   2.440  0.00  0.00    -0.507 OA
ATOM     38  H   UNL     1      -3.916   5.847   2.891  0.00  0.00    +0.292 HD
ENDBRANCH  35  37
ENDBRANCH   1  31
TORSDOF 6
