REMARK  Name = ZINC64890798
REMARK  12 active torsions:
REMARK  status: ('A' for Active; 'I' for Inactive)
REMARK    1  A    between atoms: C_1  and  C_2
REMARK    2  A    between atoms: C_2  and  C_3
REMARK    3  A    between atoms: C_3  and  N_4
REMARK    4  A    between atoms: C_8  and  C_17
REMARK    5  A    between atoms: C_19  and  C_23
REMARK    6  A    between atoms: C_23  and  C_25
REMARK    7  A    between atoms: C_23  and  N_28
REMARK    8  A    between atoms: C_25  and  C_26
REMARK    9  A    between atoms: C_25  and  C_27
REMARK   10  A    between atoms: N_28  and  S_29
REMARK   11  A    between atoms: S_29  and  C_32
REMARK   12  A    between atoms: C_35  and  C_38
REMARK                            x       y       z     vdW  Elec       q    Type
REMARK                         _______ _______ _______ _____ _____    ______ ____
ROOT
ATOM      1  C   UNL     1      -1.316  -4.908  -5.024  0.00  0.00    +0.134 C 
ATOM      2  N   UNL     1      -1.919  -4.528  -6.109  0.00  0.00    -0.341 N 
ATOM      3  C   UNL     1      -1.534  -5.429  -7.202  0.00  0.00    +0.262 C 
ATOM      4  O   UNL     1      -0.631  -6.379  -6.614  0.00  0.00    -0.246 OA
ATOM      5  N   UNL     1      -0.524  -6.006  -5.250  0.00  0.00    -0.247 N 
ATOM      6  H   UNL     1       0.020  -6.455  -4.584  0.00  0.00    +0.196 HD
ATOM      7  H   UNL     1      -2.525  -3.774  -6.185  0.00  0.00    +0.164 HD
ENDROOT
BRANCH   1  12
ATOM      8  N   UNL     1      -1.871  -2.328  -0.031  0.00  0.00    -0.302 N 
ATOM      9  C   UNL     1      -1.732  -2.973  -1.254  0.00  0.00    +0.068 A 
ATOM     10  C   UNL     1      -1.859  -2.243  -2.434  0.00  0.00    +0.028 A 
ATOM     11  C   UNL     1      -1.725  -2.868  -3.653  0.00  0.00    +0.013 A 
ATOM     12  C   UNL     1      -1.460  -4.238  -3.713  0.00  0.00    +0.019 A 
ATOM     13  C   UNL     1      -1.331  -4.974  -2.537  0.00  0.00    +0.039 A 
ATOM     14  C   UNL     1      -1.466  -4.344  -1.308  0.00  0.00    +0.067 A 
ATOM     15  N   UNL     1      -1.336  -5.087  -0.137  0.00  0.00    -0.316 N 
ATOM     16  H   UNL     1      -1.151  -6.038  -0.184  0.00  0.00    +0.169 HD
ATOM     17  C   UNL     1      -1.466  -4.485   1.063  0.00  0.00    +0.314 A 
ATOM     18  O   UNL     1      -1.353  -5.128   2.087  0.00  0.00    -0.262 OA
ATOM     19  C   UNL     1      -1.744  -3.021   1.118  0.00  0.00    +0.316 A 
ATOM     20  O   UNL     1      -1.860  -2.459   2.189  0.00  0.00    -0.262 OA
BRANCH   8  21
ATOM     21  C   UNL     1      -2.149  -0.890   0.009  0.00  0.00    +0.125 C 
BRANCH  21  23
ATOM     22  C   UNL     1      -1.120   1.386   0.074  0.00  0.00    +0.005 C 
ATOM     23  C   UNL     1      -0.829  -0.116   0.032  0.00  0.00    +0.018 C 
ENDBRANCH  21  23
ENDBRANCH   8  21
ENDBRANCH   1  12
BRANCH   3  24
ATOM     24  C   UNL     1      -0.831  -4.645  -8.312  0.00  0.00    +0.131 C 
BRANCH  24  25
ATOM     25  C   UNL     1      -0.549  -5.575  -9.493  0.00  0.00    +0.006 C 
ATOM     26  C   UNL     1      -1.873  -6.061 -10.087  0.00  0.00    +0.009 C 
ATOM     27  C   UNL     1       0.242  -4.817 -10.562  0.00  0.00    +0.009 C 
ENDBRANCH  24  25
BRANCH  24  28
ATOM     28  N   UNL     1       0.432  -4.104  -7.803  0.00  0.00    -0.182 NA
ATOM     29  H   UNL     1       1.009  -4.656  -7.253  0.00  0.00    +0.148 HD
BRANCH  28  30
ATOM     30  S   UNL     1       0.874  -2.551  -8.169  0.00  0.00    +0.059 S 
ATOM     31  O   UNL     1       2.120  -2.321  -7.526  0.00  0.00    -0.153 OA
ATOM     32  O   UNL     1       0.701  -2.399  -9.572  0.00  0.00    -0.153 OA
BRANCH  30  33
ATOM     33  C   UNL     1      -0.295  -1.481  -7.399  0.00  0.00    +0.105 A 
ATOM     34  C   UNL     1      -1.438  -1.103  -8.078  0.00  0.00    +0.029 A 
ATOM     35  C   UNL     1      -2.355  -0.263  -7.474  0.00  0.00    +0.005 A 
ATOM     36  C   UNL     1      -2.129   0.198  -6.190  0.00  0.00    -0.050 A 
ATOM     37  C   UNL     1      -0.986  -0.181  -5.511  0.00  0.00    +0.005 A 
ATOM     38  C   UNL     1      -0.071  -1.024  -6.114  0.00  0.00    +0.029 A 
ATOM     39  C   UNL     1      -3.128   1.114  -5.532  0.00  0.00    +0.044 C 
ENDBRANCH  30  33
ENDBRANCH  28  30
ENDBRANCH  24  28
ENDBRANCH   3  24
TORSDOF 8
