REMARK  Name = ZINC01211135
REMARK  6 active torsions:
REMARK  status: ('A' for Active; 'I' for Inactive)
REMARK    1  A    between atoms: C_3  and  C_8
REMARK    2  A    between atoms: C_8  and  O_10
REMARK    3  A    between atoms: O_10  and  N_11
REMARK    4  A    between atoms: C_12  and  C_13
REMARK    5  A    between atoms: C_12  and  C_22
REMARK    6  A    between atoms: C_16  and  N_19
REMARK                            x       y       z     vdW  Elec       q    Type
REMARK                         _______ _______ _______ _____ _____    ______ ____
ROOT
ATOM      1  N   UNL     1       1.403   2.146  -0.576  0.00  0.00    -0.073 NA
ATOM      2  C   UNL     1       1.117   3.205   0.125  0.00  0.00    +0.118 C 
ENDROOT
BRANCH   2   3
ATOM      3  C   UNL     1      -0.290   3.652   0.250  0.00  0.00    +0.004 A 
ATOM      4  C   UNL     1      -0.734   4.243   1.433  0.00  0.00    +0.012 A 
ATOM      5  C   UNL     1      -2.044   4.662   1.543  0.00  0.00    +0.033 A 
ATOM      6  C   UNL     1      -2.920   4.487   0.486  0.00  0.00    +0.126 A 
ATOM      7  C   UNL     1      -2.486   3.898  -0.688  0.00  0.00    +0.033 A 
ATOM      8  C   UNL     1      -1.177   3.480  -0.812  0.00  0.00    +0.012 A 
BRANCH   6   9
ATOM      9  N   UNL     1      -4.325   4.934   0.611  0.00  0.00    +0.056 N 
ATOM     10  O   UNL     1      -5.098   4.782  -0.318  0.00  0.00    -0.126 OA
ATOM     11  O   UNL     1      -4.709   5.454   1.644  0.00  0.00    -0.126 OA
ENDBRANCH   6   9
ENDBRANCH   2   3
BRANCH   2  12
ATOM     12  C   UNL     1       2.198   3.964   0.796  0.00  0.00    +0.007 A 
ATOM     13  C   UNL     1       1.942   5.201   1.396  0.00  0.00    +0.030 A 
ATOM     14  C   UNL     1       2.978   5.872   2.014  0.00  0.00    +0.111 A 
ATOM     15  N   UNL     1       4.196   5.366   2.035  0.00  0.00    -0.263 NA
ATOM     16  C   UNL     1       4.481   4.205   1.478  0.00  0.00    +0.111 A 
ATOM     17  C   UNL     1       3.504   3.466   0.842  0.00  0.00    +0.030 A 
ENDBRANCH   2  12
BRANCH   1  18
ATOM     18  O   UNL     1       0.507   1.459  -1.035  0.00  0.00    -0.311 OA
BRANCH  18  19
ATOM     19  C   UNL     1       0.868   0.324  -1.662  0.00  0.00    +0.366 C 
ATOM     20  O   UNL     1       2.044   0.073  -1.837  0.00  0.00    -0.243 OA
BRANCH  19  23
ATOM     21  C   UNL     1      -2.479  -1.167  -2.486  0.00  0.00    +0.002 A 
ATOM     22  C   UNL     1      -1.518  -0.285  -2.036  0.00  0.00    +0.015 A 
ATOM     23  C   UNL     1      -0.166  -0.618  -2.138  0.00  0.00    +0.062 A 
ATOM     24  C   UNL     1       0.204  -1.847  -2.687  0.00  0.00    +0.030 A 
ATOM     25  C   UNL     1      -0.767  -2.722  -3.130  0.00  0.00    +0.019 A 
ATOM     26  C   UNL     1      -2.106  -2.383  -3.030  0.00  0.00    +0.015 A 
ATOM     27 BR   UNL     1      -0.269  -4.388  -3.873  0.00  0.00    -0.050 Br
ENDBRANCH  19  23
ENDBRANCH  18  19
ENDBRANCH   1  18
TORSDOF 6
