REMARK  Name = ZINC22204097
REMARK  13 active torsions:
REMARK  status: ('A' for Active; 'I' for Inactive)
REMARK    1  A    between atoms: C_1  and  C_2
REMARK    2  A    between atoms: C_2  and  C_3
REMARK    3  A    between atoms: C_7  and  C_34
REMARK    4  A    between atoms: C_8  and  N_9
REMARK    5  A    between atoms: C_10  and  C_12
REMARK    6  A    between atoms: C_12  and  S_13
REMARK    7  A    between atoms: S_13  and  C_14
REMARK    8  A    between atoms: N_27  and  C_28
REMARK    9  A    between atoms: C_28  and  C_29
REMARK   10  A    between atoms: C_29  and  C_30
REMARK   11  A    between atoms: C_30  and  N_31
REMARK   12  A    between atoms: N_31  and  C_32
REMARK   13  A    between atoms: N_31  and  C_33
REMARK                            x       y       z     vdW  Elec       q    Type
REMARK                         _______ _______ _______ _____ _____    ______ ____
ROOT
ATOM      1  C   UNL     1      -1.523   3.879   1.292  0.00  0.00    +0.173 A 
ATOM      2  N   UNL     1      -1.487   3.720   2.600  0.00  0.00    -0.216 NA
ATOM      3  C   UNL     1      -2.313   2.874   3.204  0.00  0.00    +0.117 A 
ATOM      4  C   UNL     1      -3.260   2.118   2.494  0.00  0.00    +0.076 A 
ATOM      5  C   UNL     1      -4.101   1.228   3.297  0.00  0.00    -0.023 A 
ATOM      6  C   UNL     1      -3.886   1.220   4.628  0.00  0.00    -0.004 A 
ATOM      7  S   UNL     1      -2.572   2.380   4.889  0.00  0.00    -0.073 S 
ATOM      8  C   UNL     1      -4.607   0.405   5.659  0.00  0.00    +0.043 C 
ATOM      9  C   UNL     1      -5.888  -0.156   5.024  0.00  0.00    +0.005 C 
ATOM     10  C   UNL     1      -5.535  -0.768   3.665  0.00  0.00    +0.005 C 
ATOM     11  C   UNL     1      -5.176   0.341   2.675  0.00  0.00    +0.037 C 
ATOM     12  C   UNL     1      -3.280   2.315   1.076  0.00  0.00    +0.263 A 
ATOM     13  O   UNL     1      -4.069   1.702   0.378  0.00  0.00    -0.267 OA
ATOM     14  N   UNL     1      -2.416   3.188   0.526  0.00  0.00    -0.287 N 
ENDROOT
BRANCH   1  15
ATOM     15  S   UNL     1      -0.407   5.005   0.523  0.00  0.00    -0.078 S 
BRANCH  15  16
ATOM     16  C   UNL     1       0.492   5.599   1.977  0.00  0.00    +0.173 C 
BRANCH  16  18
ATOM     17  N   UNL     1       2.326   7.184   2.471  0.00  0.00    -0.284 N 
ATOM     18  C   UNL     1       1.531   6.603   1.550  0.00  0.00    +0.228 C 
ATOM     19  O   UNL     1       1.651   6.890   0.378  0.00  0.00    -0.275 OA
ATOM     20  H   UNL     1       2.178   6.969   3.539  0.00  0.00    +0.155 HD
BRANCH  17  26
ATOM     21  C   UNL     1       3.436   9.323   2.634  0.00  0.00    -0.026 A 
ATOM     22  C   UNL     1       4.438  10.184   2.233  0.00  0.00    +0.005 A 
ATOM     23  C   UNL     1       5.347   9.789   1.269  0.00  0.00    +0.001 A 
ATOM     24  C   UNL     1       5.255   8.531   0.702  0.00  0.00    +0.005 A 
ATOM     25  C   UNL     1       4.259   7.663   1.103  0.00  0.00    -0.029 A 
ATOM     26  C   UNL     1       3.341   8.059   2.067  0.00  0.00    +0.040 A 
ATOM     27  C   UNL     1       4.163   6.289   0.490  0.00  0.00    +0.045 C 
BRANCH  21  29
ATOM     28  C   UNL     1       2.912   9.265   5.057  0.00  0.00    +0.009 C 
ATOM     29  C   UNL     1       2.445   9.754   3.685  0.00  0.00    +0.033 C 
ENDBRANCH  21  29
ENDBRANCH  17  26
ENDBRANCH  16  18
ENDBRANCH  15  16
ENDBRANCH   1  15
BRANCH  14  30
ATOM     30  C   UNL     1      -2.430   3.394  -0.925  0.00  0.00    +0.125 C 
BRANCH  30  31
ATOM     31  C   UNL     1      -3.402   4.525  -1.269  0.00  0.00    +0.003 C 
BRANCH  31  32
ATOM     32  C   UNL     1      -3.416   4.740  -2.784  0.00  0.00    -0.078 C 
BRANCH  32  33
ATOM     33  N   UNL     1      -4.349   5.826  -3.115  0.00  0.00    +0.376 N 
ATOM     34  C   UNL     1      -3.873   7.110  -2.583  0.00  0.00    -0.097 C 
ATOM     35  C   UNL     1      -4.570   5.906  -4.565  0.00  0.00    -0.097 C 
ATOM     36  H   UNL     1      -5.314   5.600  -2.638  0.00  0.00    -0.083 HD
ENDBRANCH  32  33
ENDBRANCH  31  32
ENDBRANCH  30  31
ENDBRANCH  14  30
TORSDOF 9
