REMARK  Name = ZINC17158790
REMARK  6 active torsions:
REMARK  status: ('A' for Active; 'I' for Inactive)
REMARK    1  A    between atoms: C_3  and  S_23
REMARK    2  A    between atoms: C_6  and  C_7
REMARK    3  A    between atoms: N_9  and  N_10
REMARK    4  A    between atoms: C_11  and  C_13
REMARK    5  A    between atoms: S_23  and  N_26
REMARK    6  A    between atoms: N_26  and  C_27
REMARK                            x       y       z     vdW  Elec       q    Type
REMARK                         _______ _______ _______ _____ _____    ______ ____
ROOT
ATOM      1  C   UNL     1       5.849  -2.970   0.920  0.00  0.00    +0.015 A 
ATOM      2  C   UNL     1       4.595  -3.277   0.434  0.00  0.00    +0.029 A 
ATOM      3  C   UNL     1       3.942  -2.397  -0.411  0.00  0.00    +0.109 A 
ATOM      4  C   UNL     1       4.545  -1.207  -0.779  0.00  0.00    +0.029 A 
ATOM      5  C   UNL     1       5.797  -0.886  -0.297  0.00  0.00    +0.015 A 
ATOM      6  C   UNL     1       6.460  -1.769   0.556  0.00  0.00    +0.038 A 
ENDROOT
BRANCH   6   7
ATOM      7  C   UNL     1       7.804  -1.434   1.073  0.00  0.00    +0.260 C 
ATOM      8  O   UNL     1       8.379  -2.205   1.816  0.00  0.00    -0.269 OA
ATOM      9  N   UNL     1       8.391  -0.273   0.720  0.00  0.00    -0.230 N 
ATOM     10  H   UNL     1       7.871   0.424   0.048  0.00  0.00    +0.173 HD
BRANCH   9  11
ATOM     11  N   UNL     1       9.665   0.044   1.210  0.00  0.00    -0.234 N 
ATOM     12  C   UNL     1      10.252   1.205   0.858  0.00  0.00    +0.235 C 
ATOM     13  O   UNL     1       9.678   1.974   0.116  0.00  0.00    -0.274 OA
ATOM     14  H   UNL     1      10.185  -0.653   1.883  0.00  0.00    +0.173 HD
BRANCH  12  15
ATOM     15  C   UNL     1      11.622   1.547   1.385  0.00  0.00    +0.049 C 
ATOM     16  C   UNL     1      11.581   1.603   2.913  0.00  0.00    +0.019 C 
ATOM     17  C   UNL     1      12.972   1.950   3.448  0.00  0.00    -0.009 C 
ATOM     18  C   UNL     1      13.405   3.311   2.899  0.00  0.00    +0.007 C 
ATOM     19  C   UNL     1      13.445   3.255   1.371  0.00  0.00    -0.009 C 
ATOM     20  C   UNL     1      12.055   2.908   0.836  0.00  0.00    +0.019 C 
ATOM     21  C   UNL     1      14.444   2.185   0.926  0.00  0.00    +0.007 C 
ATOM     22  C   UNL     1      14.012   0.824   1.475  0.00  0.00    -0.009 C 
ATOM     23  C   UNL     1      13.971   0.880   3.003  0.00  0.00    +0.007 C 
ATOM     24  C   UNL     1      12.621   0.477   0.940  0.00  0.00    +0.019 C 
ENDBRANCH  12  15
ENDBRANCH   9  11
ENDBRANCH   6   7
BRANCH   3  25
ATOM     25  S   UNL     1       2.340  -2.796  -1.026  0.00  0.00    +0.072 S 
ATOM     26  O   UNL     1       2.180  -4.199  -0.863  0.00  0.00    -0.150 OA
ATOM     27  O   UNL     1       2.219  -2.157  -2.290  0.00  0.00    -0.150 OA
BRANCH  25  28
ATOM     28  N   UNL     1       1.237  -2.075  -0.024  0.00  0.00    -0.216 N 
ATOM     29  H   UNL     1       0.547  -1.316  -0.421  0.00  0.00    +0.174 HD
BRANCH  28  30
ATOM     30  C   UNL     1       1.183  -2.430   1.327  0.00  0.00    +0.048 A 
ATOM     31  C   UNL     1       1.110  -1.445   2.303  0.00  0.00    +0.026 A 
ATOM     32  C   UNL     1       1.057  -1.799   3.637  0.00  0.00    +0.022 A 
ATOM     33  C   UNL     1       1.076  -3.134   4.001  0.00  0.00    +0.041 A 
ATOM     34  C   UNL     1       1.148  -4.117   3.030  0.00  0.00    +0.022 A 
ATOM     35  C   UNL     1       1.202  -3.769   1.695  0.00  0.00    +0.026 A 
ATOM     36 CL   UNL     1       1.010  -3.575   5.679  0.00  0.00    -0.084 Cl
ENDBRANCH  28  30
ENDBRANCH  25  28
ENDBRANCH   3  25
TORSDOF 6
