REMARK  Name = ZINC15902371
REMARK  10 active torsions:
REMARK  status: ('A' for Active; 'I' for Inactive)
REMARK    1  A    between atoms: C_1  and  C_2
REMARK    2  A    between atoms: C_2  and  N_3
REMARK    3  A    between atoms: N_3  and  C_4
REMARK    4  A    between atoms: N_3  and  S_6
REMARK    5  A    between atoms: C_4  and  C_5
REMARK    6  A    between atoms: S_6  and  C_9
REMARK    7  A    between atoms: C_11  and  C_16
REMARK    8  A    between atoms: N_18  and  N_19
REMARK    9  A    between atoms: C_20  and  C_22
REMARK   10  A    between atoms: C_22  and  C_23
REMARK                            x       y       z     vdW  Elec       q    Type
REMARK                         _______ _______ _______ _____ _____    ______ ____
ROOT
ATOM      1  C   UNL     1      -8.187   0.557   3.324  0.00  0.00    +0.260 C 
ATOM      2  O   UNL     1      -8.810  -0.022   2.455  0.00  0.00    -0.269 OA
ATOM      3  N   UNL     1      -6.848   0.677   3.226  0.00  0.00    -0.230 N 
ATOM      4  H   UNL     1      -6.351   1.139   3.918  0.00  0.00    +0.173 HD
ENDROOT
BRANCH   1   7
ATOM      5  C   UNL     1     -10.941   1.544   5.677  0.00  0.00    +0.124 A 
ATOM      6  C   UNL     1     -10.284   1.008   4.590  0.00  0.00    +0.043 A 
ATOM      7  C   UNL     1      -8.897   1.130   4.486  0.00  0.00    +0.040 A 
ATOM      8  C   UNL     1      -8.183   1.791   5.488  0.00  0.00    +0.014 A 
ATOM      9  C   UNL     1      -8.852   2.329   6.567  0.00  0.00    +0.023 A 
ATOM     10  C   UNL     1     -10.228   2.204   6.665  0.00  0.00    +0.067 A 
ATOM     11 CL   UNL     1     -11.062   2.877   8.030  0.00  0.00    -0.082 Cl
BRANCH   5  12
ATOM     12  S   UNL     1     -12.691   1.391   5.810  0.00  0.00    +0.062 S 
ATOM     13  O   UNL     1     -12.938   0.299   6.684  0.00  0.00    -0.153 OA
ATOM     14  O   UNL     1     -13.195   2.696   6.060  0.00  0.00    -0.153 OA
BRANCH  12  15
ATOM     15  N   UNL     1     -13.258   0.943   4.320  0.00  0.00    -0.177 NA
BRANCH  15  17
ATOM     16  C   UNL     1     -14.681  -1.043   4.208  0.00  0.00    +0.022 C 
ATOM     17  C   UNL     1     -13.287  -0.473   3.943  0.00  0.00    +0.106 C 
ENDBRANCH  15  17
BRANCH  15  18
ATOM     18  C   UNL     1     -13.731   1.961   3.379  0.00  0.00    +0.106 C 
ATOM     19  C   UNL     1     -12.595   2.343   2.428  0.00  0.00    +0.022 C 
ENDBRANCH  15  18
ENDBRANCH  12  15
ENDBRANCH   5  12
ENDBRANCH   1   7
BRANCH   3  20
ATOM     20  N   UNL     1      -6.175   0.134   2.124  0.00  0.00    -0.234 N 
ATOM     21  C   UNL     1      -4.836   0.254   2.026  0.00  0.00    +0.230 C 
ATOM     22  O   UNL     1      -4.214   0.832   2.892  0.00  0.00    -0.274 OA
ATOM     23  H   UNL     1      -6.672  -0.329   1.431  0.00  0.00    +0.173 HD
BRANCH  21  24
ATOM     24  C   UNL     1      -4.112  -0.331   0.841  0.00  0.00    +0.104 C 
BRANCH  24  25
ATOM     25  C   UNL     1      -2.612  -0.057   0.974  0.00  0.00    -0.020 C 
ATOM     26  C   UNL     1      -1.877  -0.650  -0.230  0.00  0.00    +0.011 C 
ATOM     27  C   UNL     1      -0.377  -0.377  -0.097  0.00  0.00    -0.010 C 
ATOM     28  C   UNL     1       0.146  -1.021   1.189  0.00  0.00    +0.007 C 
ATOM     29  C   UNL     1      -0.589  -0.428   2.392  0.00  0.00    -0.010 C 
ATOM     30  C   UNL     1      -2.089  -0.701   2.259  0.00  0.00    +0.011 C 
ATOM     31  C   UNL     1      -0.348   1.082   2.444  0.00  0.00    +0.007 C 
ATOM     32  C   UNL     1      -0.872   1.726   1.158  0.00  0.00    -0.010 C 
ATOM     33  C   UNL     1      -0.137   1.133  -0.045  0.00  0.00    +0.007 C 
ATOM     34  C   UNL     1      -2.371   1.453   1.025  0.00  0.00    +0.011 C 
ENDBRANCH  24  25
ENDBRANCH  21  24
ENDBRANCH   3  20
TORSDOF 8
