REMARK  Name = ZINC12489375
REMARK  11 active torsions:
REMARK  status: ('A' for Active; 'I' for Inactive)
REMARK    1  A    between atoms: C_1  and  C_2
REMARK    2  A    between atoms: C_6  and  C_38
REMARK    3  A    between atoms: C_7  and  N_8
REMARK    4  A    between atoms: N_8  and  C_9
REMARK    5  A    between atoms: C_9  and  C_11
REMARK    6  A    between atoms: C_9  and  C_17
REMARK    7  A    between atoms: N_19  and  C_20
REMARK    8  A    between atoms: C_20  and  C_21
REMARK    9  A    between atoms: C_27  and  C_29
REMARK   10  A    between atoms: C_29  and  N_30
REMARK   11  A    between atoms: C_31  and  C_33
REMARK                            x       y       z     vdW  Elec       q    Type
REMARK                         _______ _______ _______ _____ _____    ______ ____
ROOT
ATOM      1  N   UNL     1      -0.607  -0.608  -0.880  0.00  0.00    -0.254 N 
ATOM      2  C   UNL     1       0.344  -0.957  -1.768  0.00  0.00    +0.238 C 
ATOM      3  O   UNL     1       1.511  -0.728  -1.529  0.00  0.00    -0.274 OA
ENDROOT
BRANCH   1  10
ATOM      4  C   UNL     1      -1.603  -3.218  -0.337  0.00  0.00    +0.045 C 
ATOM      5  C   UNL     1      -2.480  -2.133  -0.906  0.00  0.00    -0.029 A 
ATOM      6  C   UNL     1      -3.810  -2.389  -1.175  0.00  0.00    +0.005 A 
ATOM      7  C   UNL     1      -4.614  -1.396  -1.703  0.00  0.00    +0.001 A 
ATOM      8  C   UNL     1      -4.091  -0.141  -1.958  0.00  0.00    +0.005 A 
ATOM      9  C   UNL     1      -2.764   0.123  -1.686  0.00  0.00    -0.029 A 
ATOM     10  C   UNL     1      -1.953  -0.873  -1.156  0.00  0.00    +0.043 A 
ATOM     11  C   UNL     1      -2.194   1.490  -1.964  0.00  0.00    +0.045 C 
ENDBRANCH   1  10
BRANCH   1  12
ATOM     12  C   UNL     1      -0.232   0.048   0.375  0.00  0.00    +0.197 C 
BRANCH  12  13
ATOM     13  C   UNL     1      -1.477   0.432   1.133  0.00  0.00    -0.018 A 
ATOM     14  C   UNL     1      -2.396  -0.537   1.488  0.00  0.00    +0.006 A 
ATOM     15  C   UNL     1      -3.536  -0.185   2.188  0.00  0.00    +0.000 A 
ATOM     16  C   UNL     1      -3.761   1.137   2.522  0.00  0.00    +0.000 A 
ATOM     17  C   UNL     1      -2.844   2.107   2.162  0.00  0.00    +0.000 A 
ATOM     18  C   UNL     1      -1.702   1.754   1.467  0.00  0.00    +0.006 A 
ENDBRANCH  12  13
BRANCH  12  19
ATOM     19  C   UNL     1       0.592  -0.899   1.210  0.00  0.00    +0.239 C 
ATOM     20  O   UNL     1       0.515  -2.095   1.024  0.00  0.00    -0.273 OA
ATOM     21  N   UNL     1       1.414  -0.416   2.163  0.00  0.00    -0.311 N 
ATOM     22  H   UNL     1       1.475   0.541   2.311  0.00  0.00    +0.149 HD
BRANCH  21  23
ATOM     23  C   UNL     1       2.215  -1.336   2.974  0.00  0.00    +0.135 C 
BRANCH  23  24
ATOM     24  C   UNL     1       3.054  -0.536   3.973  0.00  0.00    +0.135 C 
ATOM     25  C   UNL     1       3.901  -1.495   4.832  0.00  0.00    +0.035 C 
ATOM     26  C   UNL     1       5.360  -1.048   4.573  0.00  0.00    +0.031 C 
ATOM     27  C   UNL     1       5.170   0.402   4.060  0.00  0.00    +0.160 C 
ATOM     28  O   UNL     1       3.965   0.323   3.268  0.00  0.00    -0.375 OA
ENDBRANCH  23  24
ENDBRANCH  21  23
ENDBRANCH  12  19
ENDBRANCH   1  12
BRANCH   2  29
ATOM     29  C   UNL     1      -0.042  -1.632  -3.059  0.00  0.00    +0.201 C 
BRANCH  29  30
ATOM     30  N   UNL     1       1.163  -1.906  -3.846  0.00  0.00    -0.302 N 
ATOM     31  C   UNL     1       1.062  -2.509  -5.047  0.00  0.00    +0.251 C 
ATOM     32  O   UNL     1      -0.032  -2.826  -5.478  0.00  0.00    -0.270 OA
ATOM     33  H   UNL     1       2.035  -1.653  -3.503  0.00  0.00    +0.150 HD
BRANCH  31  34
ATOM     34  C   UNL     1       2.267  -2.783  -5.834  0.00  0.00    +0.074 A 
ATOM     35  C   UNL     1       2.381  -3.386  -7.077  0.00  0.00    +0.021 A 
ATOM     36  C   UNL     1       3.645  -3.521  -7.594  0.00  0.00    +0.008 A 
ATOM     37  C   UNL     1       4.706  -3.065  -6.877  0.00  0.00    +0.046 A 
ATOM     38  S   UNL     1       3.970  -2.421  -5.446  0.00  0.00    -0.092 S 
ENDBRANCH  31  34
ENDBRANCH  29  30
ENDBRANCH   2  29
TORSDOF 9
