REMARK  Name = ZINC08450432
REMARK  10 active torsions:
REMARK  status: ('A' for Active; 'I' for Inactive)
REMARK    1  A    between atoms: C_1  and  C_2
REMARK    2  A    between atoms: C_4  and  C_23
REMARK    3  A    between atoms: C_5  and  C_22
REMARK    4  A    between atoms: N_6  and  C_7
REMARK    5  A    between atoms: C_10  and  N_16
REMARK    6  A    between atoms: C_11  and  N_13
REMARK    7  A    between atoms: C_24  and  C_25
REMARK    8  A    between atoms: C_24  and  C_27
REMARK    9  A    between atoms: N_29  and  C_30
REMARK   10  A    between atoms: C_30  and  C_31
REMARK                            x       y       z     vdW  Elec       q    Type
REMARK                         _______ _______ _______ _____ _____    ______ ____
ROOT
ATOM      1  C   UNL     1      -0.936   3.210   2.320  0.00  0.00    +0.064 C 
ATOM      2  C   UNL     1      -1.705   2.879   1.066  0.00  0.00    +0.022 A 
ATOM      3  C   UNL     1      -2.867   3.441   0.695  0.00  0.00    +0.031 A 
ATOM      4  C   UNL     1      -3.241   2.816  -0.582  0.00  0.00    -0.003 A 
ATOM      5  C   UNL     1      -2.233   1.909  -0.870  0.00  0.00    +0.028 A 
ATOM      6  N   UNL     1      -1.329   1.958   0.128  0.00  0.00    -0.317 N 
ATOM      7  C   UNL     1      -2.163   1.022  -2.086  0.00  0.00    +0.064 C 
ENDROOT
BRANCH   6   8
ATOM      8  C   UNL     1      -0.165   1.179   0.192  0.00  0.00    +0.049 A 
ATOM      9  C   UNL     1      -0.259  -0.200   0.321  0.00  0.00    +0.028 A 
ATOM     10  C   UNL     1       0.887  -0.968   0.378  0.00  0.00    +0.027 A 
ATOM     11  C   UNL     1       2.134  -0.360   0.306  0.00  0.00    +0.060 A 
ATOM     12  C   UNL     1       2.228   1.019   0.176  0.00  0.00    +0.149 A 
ATOM     13  C   UNL     1       1.081   1.787   0.119  0.00  0.00    +0.060 A 
BRANCH  11  14
ATOM     14  N   UNL     1       3.295  -1.137   0.364  0.00  0.00    -0.328 N 
ATOM     15  C   UNL     1       3.384  -2.038  -0.792  0.00  0.00    +0.105 C 
ATOM     16  C   UNL     1       4.731  -2.764  -0.772  0.00  0.00    +0.019 C 
ATOM     17  C   UNL     1       4.855  -3.562   0.529  0.00  0.00    +0.003 C 
ATOM     18  C   UNL     1       4.710  -2.608   1.719  0.00  0.00    +0.019 C 
ATOM     19  C   UNL     1       3.364  -1.886   1.626  0.00  0.00    +0.105 C 
ENDBRANCH  11  14
BRANCH  12  20
ATOM     20  N   UNL     1       3.557   1.667   0.100  0.00  0.00    +0.058 N 
ATOM     21  O   UNL     1       3.639   2.877  -0.014  0.00  0.00    -0.126 OA
ATOM     22  O   UNL     1       4.568   0.990   0.151  0.00  0.00    -0.126 OA
ENDBRANCH  12  20
ENDBRANCH   6   8
BRANCH   4  23
ATOM     23  C   UNL     1      -4.394   3.088  -1.361  0.00  0.00    +0.033 C 
ATOM     24  C   UNL     1      -5.118   4.244  -1.143  0.00  0.00    +0.114 C 
BRANCH  24  25
ATOM     25  C   UNL     1      -6.393   4.456  -1.842  0.00  0.00    +0.255 C 
ATOM     26  O   UNL     1      -6.810   3.613  -2.614  0.00  0.00    -0.269 OA
ATOM     27  N   UNL     1      -7.099   5.584  -1.629  0.00  0.00    -0.307 N 
ATOM     28  H   UNL     1      -6.766   6.256  -1.014  0.00  0.00    +0.149 HD
BRANCH  27  29
ATOM     29  C   UNL     1      -8.370   5.795  -2.327  0.00  0.00    +0.139 C 
BRANCH  29  30
ATOM     30  C   UNL     1      -8.954   7.122  -1.916  0.00  0.00    -0.030 A 
ATOM     31  C   UNL     1      -9.808   7.196  -0.832  0.00  0.00    +0.005 A 
ATOM     32  C   UNL     1     -10.340   8.414  -0.452  0.00  0.00    +0.000 A 
ATOM     33  C   UNL     1     -10.025   9.557  -1.163  0.00  0.00    +0.000 A 
ATOM     34  C   UNL     1      -9.175   9.483  -2.250  0.00  0.00    +0.000 A 
ATOM     35  C   UNL     1      -8.639   8.265  -2.627  0.00  0.00    +0.005 A 
ENDBRANCH  29  30
ENDBRANCH  27  29
ENDBRANCH  24  25
BRANCH  24  36
ATOM     36  C   UNL     1      -4.626   5.236  -0.234  0.00  0.00    +0.104 C 
ATOM     37  N   UNL     1      -4.236   6.023   0.486  0.00  0.00    -0.191 NA
ENDBRANCH  24  36
ENDBRANCH   4  23
TORSDOF 8
