REMARK  Name = ZINC49442845
REMARK  3 active torsions:
REMARK  status: ('A' for Active; 'I' for Inactive)
REMARK    1  A    between atoms: C_2  and  C_9
REMARK    2  A    between atoms: C_5  and  N_6
REMARK    3  A    between atoms: C_9  and  N_10
REMARK                            x       y       z     vdW  Elec       q    Type
REMARK                         _______ _______ _______ _____ _____    ______ ____
ROOT
ATOM      1  N   UNL     1       1.221   4.027   1.396  0.00  0.00    +0.384 N 
ATOM      2  C   UNL     1       0.053   3.527   2.062  0.00  0.00    -0.075 C 
ATOM      3  C   UNL     1      -0.392   4.284   3.280  0.00  0.00    -0.027 C 
ATOM      4  C   UNL     1      -1.431   5.336   2.898  0.00  0.00    +0.005 C 
ATOM      5  C   UNL     1      -0.729   6.559   2.320  0.00  0.00    -0.012 C 
ATOM      6  C   UNL     1       0.153   7.181   3.405  0.00  0.00    +0.007 C 
ATOM      7  C   UNL     1       1.261   6.183   3.744  0.00  0.00    -0.012 C 
ATOM      8  C   UNL     1       0.696   4.839   4.152  0.00  0.00    +0.005 C 
ATOM      9  C   UNL     1       2.165   6.028   2.518  0.00  0.00    -0.012 C 
ATOM     10  C   UNL     1       1.357   5.456   1.374  0.00  0.00    -0.068 C 
ATOM     11  C   UNL     1       0.099   6.221   1.092  0.00  0.00    -0.012 C 
ATOM     12  H   UNL     1       2.033   3.640   1.853  0.00  0.00    -0.081 HD
ENDROOT
BRANCH   1  13
ATOM     13  C   UNL     1       1.202   3.545   0.009  0.00  0.00    -0.042 C 
BRANCH  13  15
ATOM     14  C   UNL     1      -0.016   1.351   0.009  0.00  0.00    +0.042 A 
ATOM     15  C   UNL     1       1.183   2.038   0.002  0.00  0.00    -0.055 A 
ATOM     16  C   UNL     1       2.343   1.336  -0.013  0.00  0.00    +0.049 A 
ATOM     17  S   UNL     1       1.754  -0.349  -0.017  0.00  0.00    -0.073 S 
ATOM     18  C   UNL     1       0.002  -0.004   0.002  0.00  0.00    +0.164 A 
BRANCH  18  19
ATOM     19  N   UNL     1      -1.135  -0.952   0.008  0.00  0.00    +0.063 N 
ATOM     20  O   UNL     1      -2.270  -0.535   0.021  0.00  0.00    -0.126 OA
ATOM     21  O   UNL     1      -0.929  -2.143  -0.001  0.00  0.00    -0.126 OA
ENDBRANCH  18  19
ENDBRANCH  13  15
ENDBRANCH   1  13
TORSDOF 3
