REMARK  Name = ZINC38815056
REMARK  5 active torsions:
REMARK  status: ('A' for Active; 'I' for Inactive)
REMARK    1  A    between atoms: C_1  and  C_2
REMARK    2  A    between atoms: C_5  and  C_7
REMARK    3  A    between atoms: C_10  and  C_12
REMARK    4  A    between atoms: N_14  and  N_15
REMARK    5  A    between atoms: C_16  and  C_17
REMARK                            x       y       z     vdW  Elec       q    Type
REMARK                         _______ _______ _______ _____ _____    ______ ____
ROOT
ATOM      1  C   UNL     1       1.627  -3.169  -0.024  0.00  0.00    +0.112 C 
ATOM      2  N   UNL     1       1.312  -4.450  -0.035  0.00  0.00    -0.150 NA
ATOM      3  N   UNL     1       2.318  -5.234  -0.042  0.00  0.00    -0.148 NA
ATOM      4  C   UNL     1       3.479  -4.625  -0.037  0.00  0.00    +0.132 C 
ATOM      5  C   UNL     1       3.147  -3.142  -0.031  0.00  0.00    +0.123 C 
ENDROOT
BRANCH   1  10
ATOM      6  C   UNL     1      -0.018   1.503   0.010  0.00  0.00    +0.086 C 
ATOM      7  C   UNL     1       0.002  -0.004   0.002  0.00  0.00    +0.103 A 
ATOM      8  C   UNL     1      -1.090  -0.804   0.003  0.00  0.00    +0.045 A 
ATOM      9  C   UNL     1      -0.635  -2.128  -0.007  0.00  0.00    +0.051 A 
ATOM     10  C   UNL     1       0.749  -2.069  -0.013  0.00  0.00    +0.151 A 
ATOM     11  O   UNL     1       1.104  -0.766  -0.013  0.00  0.00    -0.459 OA
ENDBRANCH   1  10
BRANCH   4  12
ATOM     12  C   UNL     1       4.805  -5.239  -0.043  0.00  0.00    +0.280 C 
ATOM     13  O   UNL     1       5.801  -4.537  -0.037  0.00  0.00    -0.267 OA
ATOM     14  N   UNL     1       4.926  -6.581  -0.055  0.00  0.00    -0.202 N 
ATOM     15  H   UNL     1       4.133  -7.139  -0.060  0.00  0.00    +0.178 HD
BRANCH  14  16
ATOM     16  N   UNL     1       6.197  -7.170  -0.060  0.00  0.00    -0.184 NA
ATOM     17  C   UNL     1       6.314  -8.466  -0.072  0.00  0.00    +0.176 C 
BRANCH  17  18
ATOM     18  C   UNL     1       7.644  -9.082  -0.078  0.00  0.00    +0.147 A 
ATOM     19  C   UNL     1       7.908 -10.421  -0.095  0.00  0.00    +0.051 A 
ATOM     20  C   UNL     1       9.308 -10.558  -0.095  0.00  0.00    +0.042 A 
ATOM     21  C   UNL     1       9.828  -9.313  -0.077  0.00  0.00    +0.196 A 
ATOM     22  O   UNL     1       8.821  -8.425  -0.072  0.00  0.00    -0.462 OA
ENDBRANCH  17  18
ENDBRANCH  14  16
ENDBRANCH   4  12
TORSDOF 4
