REMARK  Name = ZINC06385767
REMARK  9 active torsions:
REMARK  status: ('A' for Active; 'I' for Inactive)
REMARK    1  A    between atoms: C_1  and  C_2
REMARK    2  A    between atoms: C_2  and  O_3
REMARK    3  A    between atoms: O_3  and  C_4
REMARK    4  A    between atoms: C_4  and  C_6
REMARK    5  A    between atoms: C_7  and  N_31
REMARK    6  A    between atoms: C_11  and  C_13
REMARK    7  A    between atoms: C_16  and  C_18
REMARK    8  A    between atoms: C_27  and  C_29
REMARK    9  A    between atoms: C_27  and  C_30
REMARK                            x       y       z     vdW  Elec       q    Type
REMARK                         _______ _______ _______ _____ _____    ______ ____
ROOT
ATOM      1  C   UNL     1      -1.265  -4.790   0.254  0.00  0.00    +0.108 C 
ATOM      2  C   UNL     1      -2.220  -4.068   0.897  0.00  0.00    +0.195 C 
ATOM      3  O   UNL     1      -2.421  -2.772   0.617  0.00  0.00    -0.446 OA
ATOM      4  C   UNL     1      -1.443  -2.050   0.038  0.00  0.00    +0.115 C 
ATOM      5  C   UNL     1      -0.449  -2.641  -0.649  0.00  0.00    +0.048 C 
ATOM      6  C   UNL     1      -0.400  -4.144  -0.792  0.00  0.00    +0.133 C 
ATOM      7  C   UNL     1       0.576  -1.885  -1.250  0.00  0.00    +0.164 C 
ATOM      8  O   UNL     1       1.446  -2.453  -1.880  0.00  0.00    -0.292 OA
ATOM      9  C   UNL     1       0.619  -0.386  -1.123  0.00  0.00    +0.086 C 
ATOM     10  C   UNL     1      -0.074   0.019   0.182  0.00  0.00    -0.021 C 
ATOM     11  C   UNL     1      -1.495  -0.547   0.178  0.00  0.00    +0.081 C 
ATOM     12  C   UNL     1      -0.129   1.545   0.283  0.00  0.00    +0.012 C 
ATOM     13  C   UNL     1       0.701  -0.547   1.374  0.00  0.00    +0.012 C 
ENDROOT
BRANCH   6  14
ATOM     14  C   UNL     1       1.021  -4.616  -0.624  0.00  0.00    +0.118 A 
ATOM     15  C   UNL     1       1.740  -5.286  -1.545  0.00  0.00    +0.046 A 
ATOM     16  C   UNL     1       3.009  -5.530  -0.982  0.00  0.00    +0.050 A 
ATOM     17  C   UNL     1       2.993  -4.989   0.266  0.00  0.00    +0.135 A 
ATOM     18  O   UNL     1       1.783  -4.434   0.467  0.00  0.00    -0.459 OA
BRANCH  17  19
ATOM     19  C   UNL     1       4.112  -5.004   1.231  0.00  0.00    +0.017 A 
ATOM     20  C   UNL     1       5.320  -5.617   0.895  0.00  0.00    +0.011 A 
ATOM     21  C   UNL     1       6.362  -5.623   1.799  0.00  0.00    +0.001 A 
ATOM     22  C   UNL     1       6.208  -5.032   3.041  0.00  0.00    +0.000 A 
ATOM     23  C   UNL     1       5.012  -4.428   3.382  0.00  0.00    +0.001 A 
ATOM     24  C   UNL     1       3.963  -4.410   2.486  0.00  0.00    +0.011 A 
ENDBRANCH  17  19
ENDBRANCH   6  14
BRANCH   2  25
ATOM     25  N   UNL     1      -2.991  -4.676   1.850  0.00  0.00    -0.329 N 
ATOM     26  H   UNL     1      -2.601  -5.341   2.439  0.00  0.00    +0.145 HD
ATOM     27  H   UNL     1      -3.929  -4.442   1.937  0.00  0.00    +0.145 HD
ENDBRANCH   2  25
BRANCH   1  28
ATOM     28  C   UNL     1      -1.085  -6.146   0.569  0.00  0.00    +0.341 C 
ATOM     29  O   UNL     1      -1.710  -6.646   1.486  0.00  0.00    -0.245 OA
BRANCH  28  30
ATOM     30  O   UNL     1      -0.218  -6.895  -0.146  0.00  0.00    -0.462 OA
BRANCH  30  32
ATOM     31  C   UNL     1       0.933  -8.950  -0.686  0.00  0.00    +0.048 C 
ATOM     32  C   UNL     1      -0.085  -8.268   0.229  0.00  0.00    +0.229 C 
ENDBRANCH  30  32
ENDBRANCH  28  30
ENDBRANCH   1  28
TORSDOF 6
