REMARK  Name = ZINC16739630
REMARK  6 active torsions:
REMARK  status: ('A' for Active; 'I' for Inactive)
REMARK    1  A    between atoms: C_2  and  C_3
REMARK    2  A    between atoms: C_3  and  N_4
REMARK    3  A    between atoms: C_8  and  C_9
REMARK    4  A    between atoms: N_18  and  C_19
REMARK    5  A    between atoms: C_22  and  S_25
REMARK    6  A    between atoms: S_25  and  N_28
REMARK                            x       y       z     vdW  Elec       q    Type
REMARK                         _______ _______ _______ _____ _____    ______ ____
ROOT
ATOM      1  N   UNL     1      -6.028  -1.453   6.425  0.00  0.00    -0.242 N 
ATOM      2  C   UNL     1      -6.280  -2.728   6.182  0.00  0.00    +0.259 C 
ATOM      3  O   UNL     1      -6.311  -3.553   7.077  0.00  0.00    -0.269 OA
ATOM      4  C   UNL     1      -6.516  -3.108   4.774  0.00  0.00    +0.078 C 
ATOM      5  C   UNL     1      -6.787  -4.327   4.245  0.00  0.00    +0.028 C 
ATOM      6  S   UNL     1      -6.347  -1.528   3.955  0.00  0.00    -0.049 S 
ATOM      7  C   UNL     1      -6.003  -0.534   5.398  0.00  0.00    +0.169 C 
ATOM      8  N   UNL     1      -5.775   0.758   5.464  0.00  0.00    -0.225 NA
ENDROOT
BRANCH   5   9
ATOM      9  C   UNL     1      -7.154  -4.448   2.828  0.00  0.00    -0.024 A 
ATOM     10  C   UNL     1      -7.406  -3.301   2.066  0.00  0.00    +0.009 A 
ATOM     11  C   UNL     1      -7.745  -3.422   0.736  0.00  0.00    +0.020 A 
ATOM     12  C   UNL     1      -7.847  -4.675   0.155  0.00  0.00    +0.041 A 
ATOM     13  C   UNL     1      -7.604  -5.816   0.903  0.00  0.00    +0.020 A 
ATOM     14  C   UNL     1      -7.259  -5.710   2.233  0.00  0.00    +0.009 A 
ATOM     15 CL   UNL     1      -8.282  -4.818  -1.520  0.00  0.00    -0.084 Cl
ENDBRANCH   5   9
BRANCH   8  16
ATOM     16  C   UNL     1      -5.785   1.514   4.323  0.00  0.00    +0.067 A 
ATOM     17  C   UNL     1      -6.452   2.741   4.301  0.00  0.00    +0.030 A 
ATOM     18  C   UNL     1      -6.458   3.497   3.147  0.00  0.00    +0.031 A 
ATOM     19  C   UNL     1      -5.807   3.042   2.014  0.00  0.00    +0.109 A 
ATOM     20  C   UNL     1      -5.150   1.825   2.027  0.00  0.00    +0.031 A 
ATOM     21  C   UNL     1      -5.130   1.061   3.176  0.00  0.00    +0.030 A 
BRANCH  19  22
ATOM     22  S   UNL     1      -5.822   4.015   0.545  0.00  0.00    +0.074 S 
ATOM     23  O   UNL     1      -6.967   4.852   0.623  0.00  0.00    -0.150 OA
ATOM     24  O   UNL     1      -5.605   3.119  -0.537  0.00  0.00    -0.150 OA
BRANCH  22  25
ATOM     25  N   UNL     1      -4.502   5.013   0.605  0.00  0.00    -0.194 N 
ATOM     26  C   UNL     1      -3.224   4.475   0.572  0.00  0.00    +0.177 A 
ATOM     27  N   UNL     1      -2.859   3.210   0.489  0.00  0.00    -0.232 NA
ATOM     28  C   UNL     1      -1.585   2.867   0.473  0.00  0.00    +0.120 A 
ATOM     29  C   UNL     1      -0.651   3.846   0.533  0.00  0.00    +0.068 A 
ATOM     30  S   UNL     1      -1.694   5.295   0.622  0.00  0.00    -0.059 S 
ATOM     31  H   UNL     1      -4.622   5.973   0.664  0.00  0.00    +0.176 HD
ENDBRANCH  22  25
ENDBRANCH  19  22
ENDBRANCH   8  16
BRANCH   1  32
ATOM     32  C   UNL     1      -5.778  -1.012   7.799  0.00  0.00    +0.142 C 
BRANCH  32  34
ATOM     33  C   UNL     1      -7.442  -1.180   9.578  0.00  0.00    +0.005 C 
ATOM     34  C   UNL     1      -7.082  -0.625   8.447  0.00  0.00    -0.015 C 
ENDBRANCH  32  34
ENDBRANCH   1  32
TORSDOF 6
