REMARK  Name = ZINC47998850
REMARK  8 active torsions:
REMARK  status: ('A' for Active; 'I' for Inactive)
REMARK    1  A    between atoms: C_1  and  C_2
REMARK    2  A    between atoms: C_2  and  N_3
REMARK    3  A    between atoms: N_6  and  C_9
REMARK    4  A    between atoms: C_9  and  C_11
REMARK    5  A    between atoms: C_9  and  C_12
REMARK    6  A    between atoms: C_12  and  N_13
REMARK    7  A    between atoms: C_14  and  C_16
REMARK    8  A    between atoms: C_16  and  N_18
REMARK                            x       y       z     vdW  Elec       q    Type
REMARK                         _______ _______ _______ _____ _____    ______ ____
ROOT
ATOM      1  N   UNL     1      -4.026  -4.400  -0.329  0.00  0.00    -0.306 N 
ATOM      2  C   UNL     1      -3.947  -5.646  -0.836  0.00  0.00    +0.301 C 
ATOM      3  O   UNL     1      -4.516  -6.564  -0.281  0.00  0.00    -0.265 OA
ATOM      4  H   UNL     1      -3.571  -3.667  -0.772  0.00  0.00    +0.149 HD
ENDROOT
BRANCH   2   5
ATOM      5  C   UNL     1      -3.159  -5.898  -2.078  0.00  0.00    +0.324 C 
ATOM      6  O   UNL     1      -2.588  -4.977  -2.634  0.00  0.00    -0.263 OA
BRANCH   5   7
ATOM      7  N   UNL     1      -3.081  -7.129  -2.578  0.00  0.00    -0.148 NA
ATOM      8  C   UNL     1      -2.378  -7.354  -3.687  0.00  0.00    +0.164 A 
ATOM      9  N   UNL     1      -2.197  -8.533  -4.333  0.00  0.00    -0.335 N 
ATOM     10  C   UNL     1      -1.430  -8.579  -5.480  0.00  0.00    +0.055 A 
ATOM     11  C   UNL     1      -1.117  -9.677  -6.293  0.00  0.00    +0.027 A 
ATOM     12  C   UNL     1      -0.327  -9.520  -7.408  0.00  0.00    +0.002 A 
ATOM     13  C   UNL     1       0.181  -8.280  -7.758  0.00  0.00    +0.001 A 
ATOM     14  C   UNL     1      -0.113  -7.179  -6.973  0.00  0.00    +0.017 A 
ATOM     15  C   UNL     1      -0.903  -7.335  -5.858  0.00  0.00    +0.039 A 
ATOM     16  S   UNL     1      -1.520  -6.239  -4.607  0.00  0.00    -0.052 S 
ATOM     17  H   UNL     1      -2.606  -9.343  -3.989  0.00  0.00    +0.168 HD
ENDBRANCH   5   7
ENDBRANCH   2   5
BRANCH   1  18
ATOM     18  C   UNL     1      -4.799  -4.153   0.891  0.00  0.00    +0.123 C 
BRANCH  18  19
ATOM     19  C   UNL     1      -4.828  -2.651   1.181  0.00  0.00    +0.070 C 
ATOM     20  C   UNL     1      -5.545  -2.402   2.509  0.00  0.00    +0.026 C 
BRANCH  19  24
ATOM     21  N   UNL     1      -1.314  -0.704   2.498  0.00  0.00    +0.381 N 
ATOM     22  C   UNL     1      -1.319  -2.172   2.466  0.00  0.00    -0.063 C 
ATOM     23  C   UNL     1      -2.764  -2.677   2.448  0.00  0.00    +0.066 C 
ATOM     24  N   UNL     1      -3.452  -2.142   1.265  0.00  0.00    -0.302 NA
ATOM     25  C   UNL     1      -3.433  -0.673   1.270  0.00  0.00    +0.066 C 
ATOM     26  C   UNL     1      -1.984  -0.184   1.298  0.00  0.00    -0.063 C 
ATOM     27  H   UNL     1      -1.803  -0.384   3.320  0.00  0.00    -0.082 HD
BRANCH  21  29
ATOM     28  C   UNL     1       0.732  -0.656   3.843  0.00  0.00    -0.017 C 
ATOM     29  C   UNL     1       0.072  -0.220   2.533  0.00  0.00    -0.082 C 
ENDBRANCH  21  29
ENDBRANCH  19  24
ENDBRANCH  18  19
ENDBRANCH   1  18
TORSDOF 6
