REMARK  Name = ZINC16885617
REMARK  16 active torsions:
REMARK  status: ('A' for Active; 'I' for Inactive)
REMARK    1  A    between atoms: C_1  and  C_2
REMARK    2  A    between atoms: C_2  and  C_3
REMARK    3  A    between atoms: C_3  and  C_4
REMARK    4  A    between atoms: C_4  and  O_5
REMARK    5  A    between atoms: O_5  and  C_6
REMARK    6  A    between atoms: C_6  and  C_8
REMARK    7  A    between atoms: C_11  and  N_14
REMARK    8  A    between atoms: C_17  and  C_40
REMARK    9  A    between atoms: C_18  and  C_31
REMARK   10  A    between atoms: N_21  and  C_22
REMARK   11  A    between atoms: C_22  and  C_23
REMARK   12  A    between atoms: C_25  and  C_30
REMARK   13  A    between atoms: C_28  and  C_29
REMARK   14  A    between atoms: C_31  and  C_32
REMARK   15  A    between atoms: C_34  and  C_39
REMARK   16  A    between atoms: C_37  and  C_38
REMARK                            x       y       z     vdW  Elec       q    Type
REMARK                         _______ _______ _______ _____ _____    ______ ____
ROOT
ATOM      1  N   UNL     1      -1.955  -0.856   1.451  0.00  0.00    -0.285 N 
ATOM      2  C   UNL     1      -1.783   0.453   1.823  0.00  0.00    +0.203 A 
ATOM      3  N   UNL     1      -2.374   0.899   2.913  0.00  0.00    -0.220 NA
ATOM      4  C   UNL     1      -2.233   2.161   3.311  0.00  0.00    +0.050 A 
ATOM      5  C   UNL     1      -1.464   3.025   2.587  0.00  0.00    +0.042 A 
ATOM      6  C   UNL     1      -0.825   2.556   1.425  0.00  0.00    +0.259 A 
ATOM      7  O   UNL     1      -0.126   3.300   0.756  0.00  0.00    -0.267 OA
ATOM      8  N   UNL     1      -1.004   1.268   1.061  0.00  0.00    -0.276 N 
ATOM      9  C   UNL     1      -2.924   2.637   4.563  0.00  0.00    +0.066 C 
ATOM     10  H   UNL     1      -1.577  -1.176   0.617  0.00  0.00    +0.155 HD
ENDROOT
BRANCH   1  14
ATOM     11  C   UNL     1      -4.101  -3.452   3.898  0.00  0.00    +0.059 A 
ATOM     12  C   UNL     1      -3.312  -2.447   4.465  0.00  0.00    +0.017 A 
ATOM     13  C   UNL     1      -2.604  -1.590   3.653  0.00  0.00    +0.024 A 
ATOM     14  C   UNL     1      -2.673  -1.724   2.269  0.00  0.00    +0.034 A 
ATOM     15  C   UNL     1      -3.462  -2.721   1.702  0.00  0.00    +0.024 A 
ATOM     16  C   UNL     1      -4.168  -3.584   2.508  0.00  0.00    +0.017 A 
BRANCH  11  17
ATOM     17  C   UNL     1      -4.861  -4.372   4.765  0.00  0.00    +0.339 C 
ATOM     18  O   UNL     1      -4.801  -4.257   5.973  0.00  0.00    -0.245 OA
BRANCH  17  19
ATOM     19  O   UNL     1      -5.621  -5.340   4.217  0.00  0.00    -0.461 OA
BRANCH  19  20
ATOM     20  C   UNL     1      -6.341  -6.209   5.131  0.00  0.00    +0.232 C 
BRANCH  20  21
ATOM     21  C   UNL     1      -7.143  -7.238   4.331  0.00  0.00    +0.041 C 
BRANCH  21  23
ATOM     22  C   UNL     1      -8.704  -9.183   4.494  0.00  0.00    +0.004 C 
ATOM     23  C   UNL     1      -7.902  -8.154   5.294  0.00  0.00    -0.000 C 
ENDBRANCH  21  23
ENDBRANCH  20  21
ENDBRANCH  19  20
ENDBRANCH  17  19
ENDBRANCH  11  17
ENDBRANCH   1  14
BRANCH   8  24
ATOM     24  C   UNL     1      -0.358   0.749  -0.146  0.00  0.00    +0.163 C 
BRANCH  24  25
ATOM     25  C   UNL     1      -1.303   0.869  -1.314  0.00  0.00    -0.024 A 
ATOM     26  C   UNL     1      -2.596   1.315  -1.113  0.00  0.00    +0.009 A 
ATOM     27  C   UNL     1      -3.462   1.430  -2.184  0.00  0.00    -0.050 A 
ATOM     28  C   UNL     1      -3.038   1.090  -3.455  0.00  0.00    +0.003 A 
ATOM     29  C   UNL     1      -1.746   0.639  -3.655  0.00  0.00    +0.004 A 
ATOM     30  C   UNL     1      -0.879   0.529  -2.584  0.00  0.00    -0.046 A 
ATOM     31  C   UNL     1       0.529   0.038  -2.803  0.00  0.00    +0.044 C 
ATOM     32  C   UNL     1      -4.870   1.921  -1.966  0.00  0.00    +0.044 C 
ENDBRANCH  24  25
ENDBRANCH   8  24
BRANCH   5  33
ATOM     33  C   UNL     1      -1.298   4.457   3.027  0.00  0.00    +0.077 C 
BRANCH  33  34
ATOM     34  C   UNL     1      -0.054   4.582   3.868  0.00  0.00    -0.040 A 
ATOM     35  C   UNL     1       0.780   3.493   4.035  0.00  0.00    +0.007 A 
ATOM     36  C   UNL     1       1.921   3.608   4.806  0.00  0.00    -0.050 A 
ATOM     37  C   UNL     1       2.229   4.813   5.410  0.00  0.00    +0.003 A 
ATOM     38  C   UNL     1       1.395   5.902   5.244  0.00  0.00    +0.004 A 
ATOM     39  C   UNL     1       0.256   5.789   4.468  0.00  0.00    -0.047 A 
ATOM     40  C   UNL     1      -0.650   6.978   4.280  0.00  0.00    +0.044 C 
ATOM     41  C   UNL     1       2.831   2.420   4.988  0.00  0.00    +0.044 C 
ENDBRANCH  33  34
ENDBRANCH   5  33
TORSDOF 10
