REMARK  Name = ZINC04258906
REMARK  4 active torsions:
REMARK  status: ('A' for Active; 'I' for Inactive)
REMARK    1  A    between atoms: C_4  and  C_7
REMARK    2  A    between atoms: C_10  and  C_13
REMARK    3  A    between atoms: C_26  and  N_31
REMARK    4  A    between atoms: N_34  and  C_35
REMARK                            x       y       z     vdW  Elec       q    Type
REMARK                         _______ _______ _______ _____ _____    ______ ____
ROOT
ATOM      1  C   UNL     1     -10.204   2.061  -4.726  0.00  0.00    +0.247 C 
ATOM      2  O   UNL     1     -10.272   1.754  -3.552  0.00  0.00    -0.270 OA
ATOM      3  N   UNL     1     -10.141   1.101  -5.671  0.00  0.00    -0.297 N 
ATOM      4  C   UNL     1      -9.946   1.451  -7.083  0.00  0.00    +0.113 C 
ATOM      5  C   UNL     1      -8.806   0.633  -7.675  0.00  0.00    +0.027 C 
ATOM      6  C   UNL     1      -8.987  -0.855  -7.376  0.00  0.00    +0.018 C 
ATOM      7  C   UNL     1      -9.023  -1.044  -5.857  0.00  0.00    +0.054 C 
ATOM      8  C   UNL     1     -10.265  -0.320  -5.309  0.00  0.00    +0.117 C 
ATOM      9  C   UNL     1      -7.804  -0.403  -5.236  0.00  0.00    +0.027 A 
ATOM     10  C   UNL     1      -7.370  -0.903  -4.049  0.00  0.00    +0.024 A 
ATOM     11  C   UNL     1      -6.325  -0.283  -3.355  0.00  0.00    +0.030 A 
ATOM     12  C   UNL     1      -5.767   0.852  -3.876  0.00  0.00    +0.100 A 
ATOM     13  C   UNL     1      -6.237   1.340  -5.111  0.00  0.00    +0.273 A 
ATOM     14  O   UNL     1      -5.787   2.381  -5.562  0.00  0.00    -0.266 OA
ATOM     15  N   UNL     1      -7.186   0.662  -5.802  0.00  0.00    -0.310 N 
ATOM     16  C   UNL     1      -7.452   1.101  -7.172  0.00  0.00    +0.130 C 
ENDROOT
BRANCH   1  20
ATOM     17  C   UNL     1     -10.166   6.158  -5.853  0.00  0.00    -0.018 A 
ATOM     18  C   UNL     1     -10.777   5.214  -6.679  0.00  0.00    +0.009 A 
ATOM     19  C   UNL     1     -10.790   3.886  -6.315  0.00  0.00    +0.013 A 
ATOM     20  C   UNL     1     -10.191   3.485  -5.118  0.00  0.00    +0.037 A 
ATOM     21  C   UNL     1      -9.585   4.432  -4.289  0.00  0.00    +0.013 A 
ATOM     22  C   UNL     1      -9.569   5.758  -4.658  0.00  0.00    +0.009 A 
BRANCH  17  26
ATOM     23  C   UNL     1     -10.127  10.257  -6.981  0.00  0.00    +0.000 A 
ATOM     24  C   UNL     1      -9.534   9.863  -5.795  0.00  0.00    +0.001 A 
ATOM     25  C   UNL     1      -9.544   8.534  -5.424  0.00  0.00    +0.008 A 
ATOM     26  C   UNL     1     -10.153   7.588  -6.246  0.00  0.00    -0.018 A 
ATOM     27  C   UNL     1     -10.744   7.990  -7.443  0.00  0.00    +0.008 A 
ATOM     28  C   UNL     1     -10.732   9.322  -7.802  0.00  0.00    +0.001 A 
ENDBRANCH  17  26
ENDBRANCH   1  20
BRANCH  12  29
ATOM     29  N   UNL     1      -4.739   1.517  -3.193  0.00  0.00    -0.265 N 
ATOM     30  C   UNL     1      -3.561   1.748  -3.808  0.00  0.00    +0.304 C 
ATOM     31  O   UNL     1      -3.364   1.314  -4.926  0.00  0.00    -0.252 OA
ATOM     32  N   UNL     1      -2.603   2.460  -3.183  0.00  0.00    -0.296 N 
ATOM     33  H   UNL     1      -4.874   1.812  -2.279  0.00  0.00    +0.157 HD
ATOM     34  H   UNL     1      -2.760   2.806  -2.290  0.00  0.00    +0.151 HD
BRANCH  32  35
ATOM     35  C   UNL     1      -1.323   2.710  -3.851  0.00  0.00    +0.074 C 
ATOM     36  C   UNL     1      -0.689   3.979  -3.278  0.00  0.00    +0.022 C 
ATOM     37  C   UNL     1       0.648   4.241  -3.975  0.00  0.00    +0.002 C 
ATOM     38  C   UNL     1       1.584   3.053  -3.745  0.00  0.00    +0.000 C 
ATOM     39  C   UNL     1       0.950   1.785  -4.318  0.00  0.00    +0.002 C 
ATOM     40  C   UNL     1      -0.386   1.523  -3.620  0.00  0.00    +0.022 C 
ENDBRANCH  32  35
ENDBRANCH  12  29
TORSDOF 4
