REMARK  Name = ZINC25686422
REMARK  10 active torsions:
REMARK  status: ('A' for Active; 'I' for Inactive)
REMARK    1  A    between atoms: C_1  and  C_2
REMARK    2  A    between atoms: C_2  and  C_4
REMARK    3  A    between atoms: C_2  and  N_24
REMARK    4  A    between atoms: C_4  and  C_5
REMARK    5  A    between atoms: C_5  and  O_7
REMARK    6  A    between atoms: O_7  and  C_8
REMARK    7  A    between atoms: C_8  and  C_9
REMARK    8  A    between atoms: C_11  and  O_12
REMARK    9  A    between atoms: C_21  and  C_23
REMARK   10  A    between atoms: C_25  and  C_27
REMARK                            x       y       z     vdW  Elec       q    Type
REMARK                         _______ _______ _______ _____ _____    ______ ____
ROOT
ATOM      1  C   UNL     1       0.478  -7.013   0.429  0.00  0.00    +0.268 C 
ENDROOT
BRANCH   1   2
ATOM      2  C   UNL     1      -0.848  -6.301   0.341  0.00  0.00    +0.007 A 
ATOM      3  C   UNL     1      -2.014  -6.998   0.339  0.00  0.00    +0.095 A 
ATOM      4  C   UNL     1      -3.242  -6.309   0.254  0.00  0.00    +0.285 A 
ATOM      5  O   UNL     1      -3.295  -4.970   0.176  0.00  0.00    -0.425 OA
ATOM      6  C   UNL     1      -2.173  -4.219   0.173  0.00  0.00    +0.141 A 
ATOM      7  C   UNL     1      -0.913  -4.841   0.254  0.00  0.00    +0.024 A 
ATOM      8  C   UNL     1       0.252  -4.067   0.252  0.00  0.00    +0.014 A 
ATOM      9  C   UNL     1       0.164  -2.708   0.166  0.00  0.00    +0.024 A 
ATOM     10  C   UNL     1      -1.081  -2.085   0.091  0.00  0.00    +0.037 A 
ATOM     11  C   UNL     1      -2.247  -2.837   0.092  0.00  0.00    +0.070 A 
ATOM     12  N   UNL     1      -1.156  -0.694   0.009  0.00  0.00    -0.286 N 
ATOM     13  C   UNL     1      -2.168  -0.037   0.609  0.00  0.00    +0.214 C 
ATOM     14  O   UNL     1      -3.058  -0.658   1.150  0.00  0.00    -0.276 OA
ATOM     15  C   UNL     1      -2.193   1.470   0.609  0.00  0.00    +0.109 C 
ATOM     16  H   UNL     1      -0.388  -0.134  -0.545  0.00  0.00    +0.155 HD
BRANCH   4  17
ATOM     17  O   UNL     1      -4.280  -6.946   0.253  0.00  0.00    -0.480 OA
ATOM     18  H   UNL     1      -5.246  -6.423   0.188  0.00  0.00    +0.295 HD
ENDBRANCH   4  17
ENDBRANCH   1   2
BRANCH   1  19
ATOM     19  O   UNL     1       0.255  -8.445   0.503  0.00  0.00    -0.460 OA
BRANCH  19  20
ATOM     20  C   UNL     1       1.342  -9.228   0.587  0.00  0.00    +0.309 C 
ATOM     21  O   UNL     1       2.444  -8.732   0.599  0.00  0.00    -0.251 OA
BRANCH  20  22
ATOM     22  C   UNL     1       1.188 -10.725   0.668  0.00  0.00    +0.142 C 
BRANCH  22  24
ATOM     23  C   UNL     1       2.412 -12.883   0.961  0.00  0.00    +0.028 C 
ATOM     24  C   UNL     1       2.570 -11.376   0.755  0.00  0.00    +0.081 C 
BRANCH  24  25
ATOM     25  N   UNL     1       3.306 -11.128  -0.488  0.00  0.00    -0.308 N 
ATOM     26  C   UNL     1       4.654 -11.138  -0.486  0.00  0.00    +0.244 C 
ATOM     27  O   UNL     1       5.259 -11.354   0.546  0.00  0.00    -0.270 OA
ATOM     28  H   UNL     1       2.759 -10.933  -1.421  0.00  0.00    +0.149 HD
BRANCH  26  29
ATOM     29  C   UNL     1       5.396 -10.888  -1.740  0.00  0.00    +0.037 A 
ATOM     30  C   UNL     1       4.705 -10.646  -2.928  0.00  0.00    +0.013 A 
ATOM     31  C   UNL     1       5.403 -10.408  -4.093  0.00  0.00    +0.001 A 
ATOM     32  C   UNL     1       6.787 -10.419  -4.088  0.00  0.00    +0.000 A 
ATOM     33  C   UNL     1       7.479 -10.664  -2.916  0.00  0.00    +0.001 A 
ATOM     34  C   UNL     1       6.792 -10.898  -1.742  0.00  0.00    +0.013 A 
ENDBRANCH  26  29
ENDBRANCH  24  25
ENDBRANCH  22  24
ENDBRANCH  20  22
ENDBRANCH  19  20
ENDBRANCH   1  19
TORSDOF 8
