REMARK  Name = ZINC04410213
REMARK  3 active torsions:
REMARK  status: ('A' for Active; 'I' for Inactive)
REMARK    1  A    between atoms: C_4  and  N_7
REMARK    2  A    between atoms: N_8  and  C_9
REMARK    3  A    between atoms: C_12  and  N_15
REMARK                            x       y       z     vdW  Elec       q    Type
REMARK                         _______ _______ _______ _____ _____    ______ ____
ROOT
ATOM      1  C   UNL     1      -3.456   3.698   0.038  0.00  0.00    +0.086 A 
ATOM      2  C   UNL     1      -2.193   4.300   0.035  0.00  0.00    +0.031 A 
ATOM      3  C   UNL     1      -1.060   3.518   0.026  0.00  0.00    +0.026 A 
ATOM      4  C   UNL     1      -1.170   2.131   0.019  0.00  0.00    +0.045 A 
ATOM      5  C   UNL     1      -2.423   1.529   0.017  0.00  0.00    +0.026 A 
ATOM      6  C   UNL     1      -3.562   2.304   0.031  0.00  0.00    +0.031 A 
ENDROOT
BRANCH   4   7
ATOM      7  N   UNL     1      -0.016   1.341   0.009  0.00  0.00    -0.203 N 
ATOM      8  C   UNL     1       1.245   1.809  -0.000  0.00  0.00    +0.250 C 
ATOM      9  O   UNL     1       1.568   2.980   0.004  0.00  0.00    -0.270 OA
ATOM     10  C   UNL     1       2.172   0.656  -0.015  0.00  0.00    +0.073 C 
ATOM     11  C   UNL     1       1.412  -0.452  -0.014  0.00  0.00    +0.073 C 
ATOM     12  C   UNL     1       0.002  -0.004   0.002  0.00  0.00    +0.250 C 
ATOM     13  O   UNL     1      -0.973  -0.727   0.007  0.00  0.00    -0.270 OA
ENDBRANCH   4   7
BRANCH   1  15
ATOM     14  N   UNL     1      -5.745   3.913   0.049  0.00  0.00    -0.149 NA
ATOM     15  N   UNL     1      -4.582   4.470   0.047  0.00  0.00    -0.149 NA
BRANCH  14  19
ATOM     16  C   UNL     1      -9.158   6.252   0.079  0.00  0.00    +0.000 A 
ATOM     17  C   UNL     1      -9.268   4.872   0.071  0.00  0.00    +0.002 A 
ATOM     18  C   UNL     1      -8.135   4.086   0.061  0.00  0.00    +0.029 A 
ATOM     19  C   UNL     1      -6.873   4.686   0.059  0.00  0.00    +0.086 A 
ATOM     20  C   UNL     1      -6.769   6.079   0.071  0.00  0.00    +0.029 A 
ATOM     21  C   UNL     1      -7.911   6.853   0.077  0.00  0.00    +0.002 A 
ENDBRANCH  14  19
ENDBRANCH   1  15
TORSDOF 3
