REMARK  Name = ZINC19883688
REMARK  7 active torsions:
REMARK  status: ('A' for Active; 'I' for Inactive)
REMARK    1  A    between atoms: C_1  and  C_2
REMARK    2  A    between atoms: C_5  and  S_9
REMARK    3  A    between atoms: C_7  and  C_8
REMARK    4  A    between atoms: S_9  and  C_12
REMARK    5  A    between atoms: N_25  and  C_28
REMARK    6  A    between atoms: C_26  and  N_27
REMARK    7  A    between atoms: C_28  and  C_29
REMARK                            x       y       z     vdW  Elec       q    Type
REMARK                         _______ _______ _______ _____ _____    ______ ____
ROOT
ATOM      1  C   UNL     1       1.740  -5.045  -0.192  0.00  0.00    +0.132 A 
ATOM      2  C   UNL     1       2.322  -5.816   0.777  0.00  0.00    +0.047 A 
ATOM      3  C   UNL     1       3.667  -6.171   0.619  0.00  0.00    +0.084 A 
ATOM      4  C   UNL     1       4.379  -5.728  -0.524  0.00  0.00    +0.150 A 
ATOM      5  N   UNL     1       5.665  -6.075  -0.662  0.00  0.00    -0.211 NA
ATOM      6  C   UNL     1       6.294  -6.819   0.237  0.00  0.00    +0.143 A 
ATOM      7  C   UNL     1       7.652  -7.140   0.016  0.00  0.00    +0.047 A 
ATOM      8  C   UNL     1       8.319  -7.902   0.924  0.00  0.00    +0.005 A 
ATOM      9  C   UNL     1       7.652  -8.361   2.070  0.00  0.00    +0.018 A 
ATOM     10  C   UNL     1       6.354  -8.048   2.269  0.00  0.00    +0.096 A 
ATOM     11  N   UNL     1       5.672  -7.283   1.366  0.00  0.00    -0.268 N 
ATOM     12  C   UNL     1       4.372  -6.991   1.602  0.00  0.00    +0.268 A 
ATOM     13  O   UNL     1       3.807  -7.398   2.602  0.00  0.00    -0.267 OA
ATOM     14  N   UNL     1       3.760  -4.978  -1.438  0.00  0.00    -0.305 N 
ATOM     15  C   UNL     1       2.489  -4.642  -1.301  0.00  0.00    +0.124 A 
ENDROOT
BRANCH   1  16
ATOM     16  S   UNL     1       0.050  -4.569  -0.045  0.00  0.00    +0.028 S 
ATOM     17  O   UNL     1      -0.427  -5.129   1.171  0.00  0.00    -0.164 OA
ATOM     18  O   UNL     1      -0.559  -4.842  -1.300  0.00  0.00    -0.164 OA
BRANCH  16  23
ATOM     19  C   UNL     1      -0.064   1.423   0.657  0.00  0.00    +0.044 C 
ATOM     20  C   UNL     1      -0.036  -0.074   0.481  0.00  0.00    -0.047 A 
ATOM     21  C   UNL     1      -0.231  -0.627  -0.771  0.00  0.00    +0.005 A 
ATOM     22  C   UNL     1      -0.205  -2.000  -0.932  0.00  0.00    +0.027 A 
ATOM     23  C   UNL     1       0.017  -2.819   0.159  0.00  0.00    +0.094 A 
ATOM     24  C   UNL     1       0.213  -2.266   1.411  0.00  0.00    +0.031 A 
ATOM     25  C   UNL     1       0.191  -0.893   1.571  0.00  0.00    -0.046 A 
ATOM     26  C   UNL     1       0.410  -0.290   2.935  0.00  0.00    +0.044 C 
ENDBRANCH  16  23
ENDBRANCH   1  16
BRANCH  15  27
ATOM     27  N   UNL     1       1.887  -3.866  -2.277  0.00  0.00    -0.343 N 
ATOM     28  H   UNL     1       0.984  -3.537  -2.146  0.00  0.00    +0.144 HD
ATOM     29  H   UNL     1       2.368  -3.653  -3.092  0.00  0.00    +0.144 HD
ENDBRANCH  15  27
BRANCH  14  30
ATOM     30  C   UNL     1       4.502  -4.524  -2.617  0.00  0.00    +0.199 C 
BRANCH  30  31
ATOM     31  C   UNL     1       4.364  -5.542  -3.720  0.00  0.00    +0.125 A 
ATOM     32  C   UNL     1       3.404  -5.557  -4.661  0.00  0.00    +0.046 A 
ATOM     33  C   UNL     1       3.655  -6.677  -5.486  0.00  0.00    +0.041 A 
ATOM     34  C   UNL     1       4.755  -7.280  -4.998  0.00  0.00    +0.195 A 
ATOM     35  O   UNL     1       5.183  -6.585  -3.932  0.00  0.00    -0.466 OA
ENDBRANCH  30  31
ENDBRANCH  14  30
TORSDOF 5
