REMARK  Name = ZINC39836466
REMARK  11 active torsions:
REMARK  status: ('A' for Active; 'I' for Inactive)
REMARK    1  A    between atoms: C_1  and  C_2
REMARK    2  A    between atoms: C_7  and  O_8
REMARK    3  A    between atoms: O_8  and  C_9
REMARK    4  A    between atoms: C_9  and  C_10
REMARK    5  A    between atoms: N_12  and  C_13
REMARK    6  A    between atoms: C_14  and  C_27
REMARK    7  A    between atoms: C_19  and  C_23
REMARK    8  A    between atoms: C_23  and  C_24
REMARK    9  A    between atoms: C_23  and  C_25
REMARK   10  A    between atoms: C_23  and  C_26
REMARK   11  A    between atoms: N_29  and  C_30
REMARK                            x       y       z     vdW  Elec       q    Type
REMARK                         _______ _______ _______ _____ _____    ______ ____
ROOT
ATOM      1  C   UNL     1       0.066   0.404   7.122  0.00  0.00    +0.084 A 
ATOM      2  C   UNL     1       0.089   0.047   8.461  0.00  0.00    +0.069 A 
ATOM      3  C   UNL     1       0.083   1.124   9.436  0.00  0.00    -0.023 A 
ATOM      4  C   UNL     1       0.055   2.360   8.893  0.00  0.00    -0.004 A 
ATOM      5  S   UNL     1       0.044   2.083   7.146  0.00  0.00    -0.077 S 
ATOM      6  C   UNL     1       0.044   3.665   9.627  0.00  0.00    +0.046 C 
ATOM      7  C   UNL     1       0.449   3.402  11.085  0.00  0.00    -0.000 C 
ATOM      8  C   UNL     1      -0.360   2.216  11.618  0.00  0.00    +0.009 C 
ATOM      9  C   UNL     1       0.105   0.923  10.944  0.00  0.00    +0.037 C 
ENDROOT
BRANCH   1  12
ATOM     10  C   UNL     1       0.047   0.090   4.775  0.00  0.00    +0.255 C 
ATOM     11  O   UNL     1       0.030   1.294   4.625  0.00  0.00    -0.272 OA
ATOM     12  N   UNL     1       0.066  -0.433   6.017  0.00  0.00    -0.277 N 
ATOM     13  H   UNL     1       0.080  -1.396   6.137  0.00  0.00    +0.155 HD
BRANCH  10  14
ATOM     14  C   UNL     1       0.048  -0.820   3.574  0.00  0.00    +0.324 C 
BRANCH  14  15
ATOM     15  O   UNL     1       0.025  -0.033   2.381  0.00  0.00    -0.483 OA
BRANCH  15  22
ATOM     16  C   UNL     1      -0.018   1.503   0.010  0.00  0.00    +0.047 C 
ATOM     17  C   UNL     1       0.002  -0.004   0.002  0.00  0.00    -0.009 A 
ATOM     18  C   UNL     1       0.006  -0.689  -1.198  0.00  0.00    +0.007 A 
ATOM     19  C   UNL     1       0.024  -2.071  -1.206  0.00  0.00    +0.000 A 
ATOM     20  C   UNL     1       0.039  -2.772  -0.014  0.00  0.00    +0.004 A 
ATOM     21  C   UNL     1       0.036  -2.092   1.188  0.00  0.00    +0.046 A 
ATOM     22  C   UNL     1       0.023  -0.705   1.199  0.00  0.00    +0.124 A 
ENDBRANCH  15  22
ENDBRANCH  14  15
ENDBRANCH  10  14
ENDBRANCH   1  12
BRANCH   7  23
ATOM     23  C   UNL     1       0.159   4.644  11.930  0.00  0.00    -0.035 C 
ATOM     24  C   UNL     1      -1.335   4.966  11.867  0.00  0.00    +0.011 C 
ATOM     25  C   UNL     1       0.564   4.379  13.381  0.00  0.00    +0.011 C 
ATOM     26  C   UNL     1       0.960   5.829  11.386  0.00  0.00    +0.011 C 
ENDBRANCH   7  23
BRANCH   2  27
ATOM     27  C   UNL     1       0.118  -1.359   8.877  0.00  0.00    +0.247 C 
ATOM     28  O   UNL     1       1.184  -1.925   9.036  0.00  0.00    -0.270 OA
ATOM     29  N   UNL     1      -1.036  -2.025   9.082  0.00  0.00    -0.307 N 
ATOM     30  H   UNL     1      -1.885  -1.574   8.955  0.00  0.00    +0.149 HD
BRANCH  29  31
ATOM     31  C   UNL     1      -1.006  -3.430   9.497  0.00  0.00    +0.096 C 
ATOM     32  C   UNL     1      -0.872  -3.507  11.027  0.00  0.00    +0.046 C 
ATOM     33  C   UNL     1      -1.158  -4.972  11.465  0.00  0.00    +0.168 C 
ATOM     34  S   UNL     1      -2.576  -5.383  10.363  0.00  0.00    -0.029 S 
ATOM     35  O   UNL     1      -3.789  -5.092  11.044  0.00  0.00    -0.174 OA
ATOM     36  O   UNL     1      -2.375  -6.678   9.814  0.00  0.00    -0.174 OA
ATOM     37  C   UNL     1      -2.314  -4.125   9.048  0.00  0.00    +0.188 C 
ENDBRANCH  29  31
ENDBRANCH   2  27
TORSDOF 7
