REMARK  Name = ZINC61889105
REMARK  4 active torsions:
REMARK  status: ('A' for Active; 'I' for Inactive)
REMARK    1  A    between atoms: C_3  and  C_11
REMARK    2  A    between atoms: C_4  and  N_8
REMARK    3  A    between atoms: N_13  and  C_14
REMARK    4  A    between atoms: C_19  and  C_21
REMARK                            x       y       z     vdW  Elec       q    Type
REMARK                         _______ _______ _______ _____ _____    ______ ____
ROOT
ATOM      1  C   UNL     1       3.564   2.199   0.573  0.00  0.00    +0.247 C 
ATOM      2  O   UNL     1       4.636   1.631   0.658  0.00  0.00    -0.270 OA
ATOM      3  N   UNL     1       3.492   3.533   0.750  0.00  0.00    -0.307 N 
ATOM      4  H   UNL     1       2.637   3.986   0.682  0.00  0.00    +0.149 HD
ENDROOT
BRANCH   1   7
ATOM      5  C   UNL     1      -0.005   1.361  -0.238  0.00  0.00    +0.021 A 
ATOM      6  C   UNL     1       1.134   2.088   0.040  0.00  0.00    +0.017 A 
ATOM      7  C   UNL     1       2.340   1.426   0.275  0.00  0.00    +0.067 A 
ATOM      8  C   UNL     1       2.386   0.031   0.228  0.00  0.00    +0.140 A 
ATOM      9  C   UNL     1       1.241  -0.684  -0.050  0.00  0.00    +0.053 A 
ATOM     10  C   UNL     1       0.046  -0.022  -0.283  0.00  0.00    +0.043 A 
ATOM     11 CL   UNL     1      -1.391  -0.930  -0.633  0.00  0.00    -0.083 Cl
BRANCH   8  12
ATOM     12  N   UNL     1       3.661  -0.678   0.476  0.00  0.00    +0.057 N 
ATOM     13  O   UNL     1       4.052  -1.512  -0.307  0.00  0.00    -0.126 OA
ATOM     14  O   UNL     1       4.313  -0.422   1.462  0.00  0.00    -0.126 OA
ENDBRANCH   8  12
ENDBRANCH   1   7
BRANCH   3  15
ATOM     15  C   UNL     1       4.706   4.299   1.045  0.00  0.00    +0.090 C 
ATOM     16  C   UNL     1       4.965   4.314   2.566  0.00  0.00    +0.023 C 
ATOM     17  C   UNL     1       5.516   5.734   2.844  0.00  0.00    +0.003 C 
ATOM     18  C   UNL     1       4.674   6.620   1.892  0.00  0.00    +0.020 C 
ATOM     19  C   UNL     1       4.521   5.765   0.615  0.00  0.00    +0.112 C 
BRANCH  19  20
ATOM     20  C   UNL     1       5.552   6.136  -0.367  0.00  0.00    +0.068 C 
ATOM     21  N   UNL     1       6.348   6.423  -1.126  0.00  0.00    -0.196 NA
ENDBRANCH  19  20
ENDBRANCH   3  15
TORSDOF 4
