REMARK  Name = ZINC06405755
REMARK  7 active torsions:
REMARK  status: ('A' for Active; 'I' for Inactive)
REMARK    1  A    between atoms: C_1  and  C_2
REMARK    2  A    between atoms: C_5  and  C_34
REMARK    3  A    between atoms: C_9  and  C_14
REMARK    4  A    between atoms: C_14  and  C_16
REMARK    5  A    between atoms: C_14  and  N_60
REMARK    6  A    between atoms: N_20  and  C_21
REMARK    7  A    between atoms: C_21  and  C_22
REMARK                            x       y       z     vdW  Elec       q    Type
REMARK                         _______ _______ _______ _____ _____    ______ ____
ROOT
ATOM      1  C   UNL     1      -2.498  -0.657   1.744  0.00  0.00    +0.039 C 
ENDROOT
BRANCH   1  10
ATOM      2  C   UNL     1      -4.370  -3.147  -2.428  0.00  0.00    +0.044 C 
ATOM      3  C   UNL     1      -4.462  -4.097  -1.262  0.00  0.00    -0.041 A 
ATOM      4  C   UNL     1      -4.970  -5.353  -1.438  0.00  0.00    +0.004 A 
ATOM      5  C   UNL     1      -5.057  -6.236  -0.370  0.00  0.00    +0.005 A 
ATOM      6  C   UNL     1      -4.633  -5.862   0.887  0.00  0.00    -0.026 A 
ATOM      7  C   UNL     1      -4.113  -4.589   1.091  0.00  0.00    +0.052 A 
ATOM      8  C   UNL     1      -4.026  -3.697   0.005  0.00  0.00    +0.002 A 
ATOM      9  C   UNL     1      -3.476  -2.358   0.229  0.00  0.00    +0.018 A 
ATOM     10  C   UNL     1      -3.069  -2.026   1.479  0.00  0.00    +0.011 A 
ATOM     11  C   UNL     1      -3.172  -2.961   2.532  0.00  0.00    +0.251 A 
ATOM     12  O   UNL     1      -2.796  -2.643   3.647  0.00  0.00    -0.268 OA
ATOM     13  N   UNL     1      -3.682  -4.190   2.338  0.00  0.00    -0.322 N 
ATOM     14  H   UNL     1      -3.742  -4.806   3.084  0.00  0.00    +0.169 HD
ATOM     15  C   UNL     1      -4.734  -6.831   2.037  0.00  0.00    +0.046 C 
ENDBRANCH   1  10
BRANCH   1  21
ATOM     16  C   UNL     1      -4.684   0.037   2.518  0.00  0.00    -0.077 C 
ATOM     17  C   UNL     1      -5.451   0.578   3.727  0.00  0.00    -0.019 C 
ATOM     18  C   UNL     1      -4.934   1.977   4.070  0.00  0.00    -0.004 C 
ATOM     19  C   UNL     1      -3.429   1.904   4.343  0.00  0.00    -0.019 C 
ATOM     20  C   UNL     1      -2.720   1.325   3.116  0.00  0.00    -0.077 C 
ATOM     21  N   UNL     1      -3.246  -0.032   2.854  0.00  0.00    +0.389 N 
ATOM     22  H   UNL     1      -3.128  -0.603   3.699  0.00  0.00    -0.080 HD
ENDBRANCH   1  21
BRANCH   1  23
ATOM     23  C   UNL     1      -1.050  -0.785   2.143  0.00  0.00    +0.143 A 
ATOM     24  N   UNL     1      -0.590  -1.196   3.299  0.00  0.00    -0.115 NA
ATOM     25  N   UNL     1       0.697  -1.165   3.250  0.00  0.00    -0.023 NA
ATOM     26  N   UNL     1       1.070  -0.750   2.090  0.00  0.00    -0.044 NA
ATOM     27  N   UNL     1       0.022  -0.500   1.381  0.00  0.00    -0.226 N 
BRANCH  27  28
ATOM     28  C   UNL     1       0.002  -0.004   0.002  0.00  0.00    +0.182 C 
BRANCH  28  29
ATOM     29  C   UNL     1      -0.018   1.503   0.010  0.00  0.00    -0.026 A 
ATOM     30  C   UNL     1      -1.225   2.177   0.020  0.00  0.00    +0.008 A 
ATOM     31  C   UNL     1      -1.245   3.559   0.032  0.00  0.00    +0.038 A 
ATOM     32  C   UNL     1      -0.056   4.268   0.025  0.00  0.00    +0.123 A 
ATOM     33  C   UNL     1       1.152   3.591   0.010  0.00  0.00    +0.038 A 
ATOM     34  C   UNL     1       1.170   2.210   0.003  0.00  0.00    +0.008 A 
ATOM     35  F   UNL     1      -0.074   5.619   0.032  0.00  0.00    -0.205 F 
ENDBRANCH  28  29
ENDBRANCH  27  28
ENDBRANCH   1  23
TORSDOF 5
