REMARK  Name = ZINC46669806
REMARK  6 active torsions:
REMARK  status: ('A' for Active; 'I' for Inactive)
REMARK    1  A    between atoms: C_1  and  C_2
REMARK    2  A    between atoms: C_12  and  C_16
REMARK    3  A    between atoms: N_18  and  C_19
REMARK    4  A    between atoms: C_21  and  S_26
REMARK    5  A    between atoms: C_24  and  O_25
REMARK    6  A    between atoms: S_26  and  N_29
REMARK                            x       y       z     vdW  Elec       q    Type
REMARK                         _______ _______ _______ _____ _____    ______ ____
ROOT
ATOM      1  C   UNL     1       1.888  -6.684   1.477  0.00  0.00    +0.250 C 
ATOM      2  O   UNL     1       1.680  -6.776   0.283  0.00  0.00    -0.270 OA
ATOM      3  N   UNL     1       2.208  -7.782   2.192  0.00  0.00    -0.278 N 
ATOM      4  H   UNL     1       2.437  -7.700   3.130  0.00  0.00    +0.155 HD
ENDROOT
BRANCH   1  15
ATOM      5  C   UNL     1       0.047   1.538  -0.006  0.00  0.00    +0.008 C 
ATOM      6  C   UNL     1       0.057   0.008  -0.011  0.00  0.00    -0.009 C 
ATOM      7  C   UNL     1       0.768  -0.495  -1.270  0.00  0.00    +0.009 C 
ATOM      8  C   UNL     1       0.561  -2.008  -1.403  0.00  0.00    +0.054 C 
ATOM      9  C   UNL     1       0.916  -2.660  -0.087  0.00  0.00    +0.020 A 
ATOM     10  C   UNL     1       1.021  -1.987   1.079  0.00  0.00    -0.019 A 
ATOM     11  C   UNL     1       1.375  -2.955   2.097  0.00  0.00    +0.004 A 
ATOM     12  C   UNL     1       1.613  -2.844   3.470  0.00  0.00    +0.010 A 
ATOM     13  C   UNL     1       1.937  -4.005   4.151  0.00  0.00    +0.001 A 
ATOM     14  C   UNL     1       2.025  -5.229   3.517  0.00  0.00    +0.015 A 
ATOM     15  C   UNL     1       1.792  -5.373   2.145  0.00  0.00    +0.061 A 
ATOM     16  C   UNL     1       1.461  -4.205   1.432  0.00  0.00    +0.059 A 
ATOM     17  N   UNL     1       1.178  -3.989   0.120  0.00  0.00    -0.357 N 
ATOM     18  H   UNL     1       1.163  -4.674  -0.567  0.00  0.00    +0.166 HD
ATOM     19  C   UNL     1       0.798  -0.504   1.230  0.00  0.00    +0.040 C 
ENDBRANCH   1  15
BRANCH   3  20
ATOM     20  C   UNL     1       2.208  -9.041   1.578  0.00  0.00    +0.077 A 
ATOM     21  C   UNL     1       2.594  -9.168   0.252  0.00  0.00    +0.055 A 
ATOM     22  C   UNL     1       2.594 -10.412  -0.351  0.00  0.00    +0.107 A 
ATOM     23  C   UNL     1       2.209 -11.531   0.364  0.00  0.00    +0.032 A 
ATOM     24  C   UNL     1       1.823 -11.412   1.686  0.00  0.00    +0.049 A 
ATOM     25  C   UNL     1       1.825 -10.170   2.300  0.00  0.00    +0.138 A 
BRANCH  22  26
ATOM     26  S   UNL     1       3.085 -10.572  -2.036  0.00  0.00    +0.061 S 
ATOM     27  O   UNL     1       2.477 -11.759  -2.525  0.00  0.00    -0.153 OA
ATOM     28  O   UNL     1       2.877  -9.303  -2.642  0.00  0.00    -0.153 OA
BRANCH  26  29
ATOM     29  N   UNL     1       4.720 -10.838  -2.046  0.00  0.00    -0.177 NA
ATOM     30  C   UNL     1       5.757  -9.798  -2.101  0.00  0.00    +0.109 C 
ATOM     31  C   UNL     1       7.124 -10.514  -2.116  0.00  0.00    +0.018 C 
ATOM     32  C   UNL     1       6.768 -11.931  -2.640  0.00  0.00    +0.018 C 
ATOM     33  C   UNL     1       5.375 -12.158  -1.996  0.00  0.00    +0.109 C 
ENDBRANCH  26  29
ENDBRANCH  22  26
BRANCH  25  34
ATOM     34  O   UNL     1       1.451 -10.052   3.602  0.00  0.00    -0.505 OA
ATOM     35  H   UNL     1       0.505  -9.895   3.726  0.00  0.00    +0.292 HD
ENDBRANCH  25  34
ENDBRANCH   3  20
TORSDOF 5
