REMARK  Name = ZINC03871510
REMARK  8 active torsions:
REMARK  status: ('A' for Active; 'I' for Inactive)
REMARK    1  A    between atoms: C_1  and  C_2
REMARK    2  A    between atoms: C_2  and  O_4
REMARK    3  A    between atoms: O_4  and  C_5
REMARK    4  A    between atoms: C_5  and  C_6
REMARK    5  A    between atoms: C_6  and  C_8
REMARK    6  A    between atoms: C_14  and  C_33
REMARK    7  A    between atoms: C_16  and  O_32
REMARK    8  A    between atoms: C_29  and  C_30
REMARK                            x       y       z     vdW  Elec       q    Type
REMARK                         _______ _______ _______ _____ _____    ______ ____
ROOT
ATOM      1  C   UNL     1      -2.517  -4.217  -0.047  0.00  0.00    +0.165 C 
ATOM      2  C   UNL     1      -2.635  -4.722  -1.546  0.00  0.00    +0.162 C 
ATOM      3  C   UNL     1      -4.035  -4.350  -1.948  0.00  0.00    +0.039 C 
ATOM      4  C   UNL     1      -4.795  -4.194  -0.619  0.00  0.00    +0.007 C 
ATOM      5  C   UNL     1      -3.834  -4.728   0.479  0.00  0.00    +0.012 C 
ATOM      6  C   UNL     1      -4.297  -4.233   1.830  0.00  0.00    +0.044 C 
ATOM      7  C   UNL     1      -5.791  -3.855   1.785  0.00  0.00    +0.154 C 
ATOM      8  C   UNL     1      -6.571  -4.879   0.972  0.00  0.00    +0.153 C 
ATOM      9  C   UNL     1      -6.170  -4.752  -0.506  0.00  0.00    +0.034 C 
ATOM     10  C   UNL     1      -6.530  -5.983  -1.303  0.00  0.00    +0.011 C 
ATOM     11  C   UNL     1      -7.870  -6.535  -0.778  0.00  0.00    +0.032 C 
ATOM     12  C   UNL     1      -8.649  -5.374  -0.193  0.00  0.00    -0.053 C 
ATOM     13  C   UNL     1      -9.780  -4.961  -0.745  0.00  0.00    +0.051 C 
ATOM     14  C   UNL     1     -10.482  -3.816  -0.125  0.00  0.00    +0.179 C 
ATOM     15  O   UNL     1     -11.686  -3.684  -0.208  0.00  0.00    -0.288 OA
ATOM     16  C   UNL     1      -9.641  -2.842   0.603  0.00  0.00    +0.047 C 
ATOM     17  C   UNL     1      -8.505  -3.278   1.150  0.00  0.00    -0.009 C 
ATOM     18  C   UNL     1      -8.088  -4.706   1.046  0.00  0.00    +0.044 C 
ATOM     19  C   UNL     1      -8.614  -5.467   2.268  0.00  0.00    +0.023 C 
ATOM     20  F   UNL     1      -6.285  -6.167   1.442  0.00  0.00    -0.238 F 
ATOM     21  C   UNL     1      -3.763  -6.259   0.499  0.00  0.00    +0.015 C 
ATOM     22  O   UNL     1      -1.428  -4.169  -2.026  0.00  0.00    -0.342 OA
ATOM     23  C   UNL     1      -0.515  -4.638  -0.995  0.00  0.00    +0.172 C 
ATOM     24  O   UNL     1      -1.252  -4.777   0.246  0.00  0.00    -0.331 OA
ATOM     25  C   UNL     1       0.657  -3.666  -0.830  0.00  0.00    +0.065 C 
ATOM     26  C   UNL     1       1.840  -4.587  -0.429  0.00  0.00    +0.005 C 
ATOM     27  C   UNL     1       1.613  -5.846  -1.302  0.00  0.00    +0.005 C 
ATOM     28  C   UNL     1       0.080  -5.990  -1.401  0.00  0.00    +0.065 C 
ENDROOT
BRANCH   1  29
ATOM     29  C   UNL     1      -2.442  -2.712   0.011  0.00  0.00    +0.205 C 
ATOM     30  O   UNL     1      -2.861  -2.050  -0.908  0.00  0.00    -0.291 OA
BRANCH  29  31
ATOM     31  C   UNL     1      -1.843  -2.033   1.216  0.00  0.00    +0.309 C 
BRANCH  31  32
ATOM     32  O   UNL     1      -1.767  -0.625   0.982  0.00  0.00    -0.457 OA
BRANCH  32  34
ATOM     33  C   UNL     1      -1.142   1.622   1.790  0.00  0.00    +0.136 C 
ATOM     34  C   UNL     1      -1.253   0.129   1.965  0.00  0.00    +0.304 C 
ATOM     35  O   UNL     1      -0.880  -0.388   2.991  0.00  0.00    -0.251 OA
ENDBRANCH  32  34
ENDBRANCH  31  32
ENDBRANCH  29  31
ENDBRANCH   1  29
BRANCH   7  36
ATOM     36  O   UNL     1      -6.291  -3.794   3.124  0.00  0.00    -0.389 OA
ATOM     37  H   UNL     1      -5.843  -3.144   3.682  0.00  0.00    +0.210 HD
ENDBRANCH   7  36
TORSDOF 5
