REMARK  Name = ZINC39934135
REMARK  14 active torsions:
REMARK  status: ('A' for Active; 'I' for Inactive)
REMARK    1  A    between atoms: C_1  and  C_2
REMARK    2  A    between atoms: C_2  and  C_40
REMARK    3  A    between atoms: C_6  and  C_21
REMARK    4  A    between atoms: C_17  and  C_19
REMARK    5  A    between atoms: C_17  and  C_20
REMARK    6  A    between atoms: C_21  and  N_22
REMARK    7  A    between atoms: N_22  and  C_23
REMARK    8  A    between atoms: C_23  and  C_24
REMARK    9  A    between atoms: C_27  and  C_30
REMARK   10  A    between atoms: C_33  and  O_35
REMARK   11  A    between atoms: O_35  and  C_36
REMARK   12  A    between atoms: C_36  and  C_37
REMARK   13  A    between atoms: C_36  and  C_38
REMARK   14  A    between atoms: C_36  and  C_39
REMARK                            x       y       z     vdW  Elec       q    Type
REMARK                         _______ _______ _______ _____ _____    ______ ____
ROOT
ATOM      1  N   UNL     1      -5.122  -2.095   1.338  0.00  0.00    -0.261 N 
ATOM      2  C   UNL     1      -5.429  -3.108   0.504  0.00  0.00    +0.404 C 
ATOM      3  O   UNL     1      -6.357  -3.849   0.764  0.00  0.00    -0.226 OA
ENDROOT
BRANCH   1   4
ATOM      4  C   UNL     1      -4.003  -1.202   1.024  0.00  0.00    +0.145 C 
BRANCH   4   9
ATOM      5  C   UNL     1      -0.019   1.526   0.010  0.00  0.00    +0.074 C 
ATOM      6  C   UNL     1       0.002  -0.004   0.002  0.00  0.00    +0.166 C 
ATOM      7  O   UNL     1      -1.349  -0.507   0.028  0.00  0.00    -0.341 OA
ATOM      8  C   UNL     1      -1.589  -0.776   1.421  0.00  0.00    +0.183 C 
ATOM      9  C   UNL     1      -2.718  -1.760   1.640  0.00  0.00    +0.170 C 
ATOM     10  O   UNL     1      -2.406  -3.009   1.026  0.00  0.00    -0.341 OA
ATOM     11  C   UNL     1      -1.244  -3.639   1.515  0.00  0.00    +0.285 C 
ATOM     12  C   UNL     1       0.008  -2.757   1.386  0.00  0.00    +0.209 C 
ATOM     13  C   UNL     1      -0.235  -1.332   1.889  0.00  0.00    +0.187 C 
ATOM     14  O   UNL     1       0.696  -0.484   1.164  0.00  0.00    -0.341 OA
ATOM     15  O   UNL     1       0.907  -3.381   2.342  0.00  0.00    -0.338 OA
ATOM     16  C   UNL     1       0.087  -4.064   3.301  0.00  0.00    +0.168 C 
ATOM     17  O   UNL     1      -1.290  -3.889   2.930  0.00  0.00    -0.318 OA
ATOM     18  C   UNL     1       0.445  -5.552   3.317  0.00  0.00    +0.074 C 
ATOM     19  C   UNL     1       0.316  -3.469   4.692  0.00  0.00    +0.074 C 
ATOM     20  C   UNL     1       0.709  -0.502  -1.261  0.00  0.00    +0.074 C 
ENDBRANCH   4   9
ENDBRANCH   1   4
BRANCH   1  21
ATOM     21  C   UNL     1      -5.906  -1.887   2.558  0.00  0.00    +0.146 C 
BRANCH  21  22
ATOM     22  C   UNL     1      -7.057  -0.960   2.263  0.00  0.00    -0.030 A 
ATOM     23  C   UNL     1      -6.894   0.407   2.403  0.00  0.00    +0.006 A 
ATOM     24  C   UNL     1      -7.944   1.261   2.135  0.00  0.00    +0.015 A 
ATOM     25  C   UNL     1      -9.173   0.743   1.720  0.00  0.00    +0.063 A 
ATOM     26  C   UNL     1      -9.330  -0.638   1.581  0.00  0.00    +0.015 A 
ATOM     27  C   UNL     1      -8.271  -1.480   1.847  0.00  0.00    +0.006 A 
BRANCH  25  28
ATOM     28  C   UNL     1     -10.301   1.650   1.432  0.00  0.00    +0.387 C 
ATOM     29  O   UNL     1     -10.160   2.858   1.556  0.00  0.00    -0.241 OA
ATOM     30  O   UNL     1     -11.376   1.193   1.070  0.00  0.00    -0.241 OA
ENDBRANCH  25  28
ENDBRANCH  21  22
ENDBRANCH   1  21
BRANCH   2  31
ATOM     31  O   UNL     1      -4.709  -3.300  -0.617  0.00  0.00    -0.445 OA
BRANCH  31  32
ATOM     32  C   UNL     1      -5.091  -4.393  -1.454  0.00  0.00    +0.107 C 
ATOM     33  C   UNL     1      -6.534  -4.197  -1.922  0.00  0.00    +0.055 C 
ATOM     34  C   UNL     1      -4.164  -4.452  -2.671  0.00  0.00    +0.055 C 
ATOM     35  C   UNL     1      -4.983  -5.701  -0.667  0.00  0.00    +0.055 C 
ENDBRANCH  31  32
ENDBRANCH   2  31
TORSDOF 7
