REMARK  Name = ZINC12605095
REMARK  10 active torsions:
REMARK  status: ('A' for Active; 'I' for Inactive)
REMARK    1  A    between atoms: C_1  and  N_55
REMARK    2  A    between atoms: C_2  and  N_55
REMARK    3  A    between atoms: C_3  and  C_5
REMARK    4  A    between atoms: C_3  and  C_27
REMARK    5  A    between atoms: C_3  and  N_55
REMARK    6  A    between atoms: C_5  and  N_6
REMARK    7  A    between atoms: C_7  and  C_9
REMARK    8  A    between atoms: C_12  and  N_15
REMARK    9  A    between atoms: N_15  and  S_16
REMARK   10  A    between atoms: S_16  and  C_19
REMARK                            x       y       z     vdW  Elec       q    Type
REMARK                         _______ _______ _______ _____ _____    ______ ____
ROOT
ATOM      1  C   UNL     1      -0.855  -1.625   2.596  0.00  0.00    +0.037 A 
ATOM      2  C   UNL     1      -0.410  -2.716   1.844  0.00  0.00    +0.015 A 
ATOM      3  C   UNL     1      -0.624  -3.997   2.299  0.00  0.00    +0.025 A 
ATOM      4  C   UNL     1      -1.294  -4.207   3.501  0.00  0.00    +0.048 A 
ATOM      5  C   UNL     1      -1.744  -3.123   4.250  0.00  0.00    +0.025 A 
ATOM      6  C   UNL     1      -1.528  -1.840   3.803  0.00  0.00    +0.015 A 
ENDROOT
BRANCH   1   8
ATOM      7  N   UNL     1       0.026  -0.045   0.951  0.00  0.00    -0.313 N 
ATOM      8  C   UNL     1      -0.622  -0.250   2.115  0.00  0.00    +0.244 C 
ATOM      9  O   UNL     1      -1.014   0.697   2.768  0.00  0.00    -0.270 OA
ATOM     10  H   UNL     1       0.340  -0.801   0.430  0.00  0.00    +0.149 HD
BRANCH   7  11
ATOM     11  C   UNL     1       0.258   1.320   0.473  0.00  0.00    +0.094 C 
BRANCH  11  12
ATOM     12  C   UNL     1       0.899   1.272  -0.916  0.00  0.00    -0.021 C 
BRANCH  12  13
ATOM     13  C   UNL     1       1.068   2.675  -1.440  0.00  0.00    -0.059 A 
ATOM     14  C   UNL     1      -0.019   3.354  -1.958  0.00  0.00    +0.002 A 
ATOM     15  C   UNL     1       0.135   4.643  -2.435  0.00  0.00    +0.000 A 
ATOM     16  C   UNL     1       1.377   5.248  -2.402  0.00  0.00    +0.000 A 
ATOM     17  C   UNL     1       2.465   4.567  -1.889  0.00  0.00    +0.000 A 
ATOM     18  C   UNL     1       2.310   3.280  -1.408  0.00  0.00    +0.002 A 
ENDBRANCH  12  13
BRANCH  12  21
ATOM     19  C   UNL     1      -1.381   0.689  -1.484  0.00  0.00    -0.096 C 
ATOM     20  C   UNL     1       0.291   0.879  -3.226  0.00  0.00    -0.096 C 
ATOM     21  N   UNL     1       0.043   0.481  -1.824  0.00  0.00    +0.382 N 
ATOM     22  H   UNL     1       0.270  -0.514  -1.715  0.00  0.00    -0.082 HD
ENDBRANCH  12  21
ENDBRANCH  11  12
ENDBRANCH   7  11
ENDBRANCH   1   8
BRANCH   4  23
ATOM     23  N   UNL     1      -1.514  -5.503   3.955  0.00  0.00    -0.216 N 
ATOM     24  H   UNL     1      -1.338  -5.728   4.883  0.00  0.00    +0.174 HD
BRANCH  23  25
ATOM     25  S   UNL     1      -2.074  -6.662   2.914  0.00  0.00    +0.074 S 
ATOM     26  O   UNL     1      -1.199  -6.659   1.794  0.00  0.00    -0.150 OA
ATOM     27  O   UNL     1      -2.312  -7.827   3.692  0.00  0.00    -0.150 OA
BRANCH  25  28
ATOM     28  C   UNL     1      -3.644  -6.119   2.327  0.00  0.00    +0.128 A 
ATOM     29  C   UNL     1      -3.820  -5.834   0.986  0.00  0.00    +0.050 A 
ATOM     30  C   UNL     1      -5.053  -5.408   0.525  0.00  0.00    +0.043 A 
ATOM     31  C   UNL     1      -6.110  -5.267   1.407  0.00  0.00    +0.021 A 
ATOM     32  C   UNL     1      -5.934  -5.551   2.747  0.00  0.00    +0.023 A 
ATOM     33  C   UNL     1      -4.703  -5.983   3.207  0.00  0.00    +0.068 A 
ATOM     34 CL   UNL     1      -4.484  -6.348   4.890  0.00  0.00    -0.082 Cl
ATOM     35 CL   UNL     1      -5.274  -5.051  -1.159  0.00  0.00    -0.083 Cl
ENDBRANCH  25  28
ENDBRANCH  23  25
ENDBRANCH   4  23
TORSDOF 8
