REMARK  Name = ZINC44449743
REMARK  3 active torsions:
REMARK  status: ('A' for Active; 'I' for Inactive)
REMARK    1  A    between atoms: C_3  and  C_10
REMARK    2  A    between atoms: C_5  and  N_7
REMARK    3  A    between atoms: N_12  and  C_13
REMARK                            x       y       z     vdW  Elec       q    Type
REMARK                         _______ _______ _______ _____ _____    ______ ____
ROOT
ATOM      1  C   UNL     1       3.657   2.160  -0.022  0.00  0.00    +0.251 C 
ATOM      2  O   UNL     1       4.716   1.564  -0.035  0.00  0.00    -0.270 OA
ATOM      3  N   UNL     1       3.642   3.507  -0.015  0.00  0.00    -0.250 N 
ATOM      4  H   UNL     1       2.797   3.983  -0.004  0.00  0.00    +0.158 HD
ENDROOT
BRANCH   3   5
ATOM      5  C   UNL     1       4.835   4.214  -0.023  0.00  0.00    +0.228 A 
ATOM      6  C   UNL     1       4.964   5.581  -0.012  0.00  0.00    +0.048 A 
ATOM      7  C   UNL     1       6.319   5.882  -0.025  0.00  0.00    +0.099 A 
ATOM      8  N   UNL     1       6.992   4.746  -0.043  0.00  0.00    -0.080 NA
ATOM      9  O   UNL     1       6.064   3.683  -0.037  0.00  0.00    -0.339 OA
ATOM     10  C   UNL     1       6.694   7.363  -0.016  0.00  0.00    +0.128 C 
ATOM     11  S   UNL     1       5.099   8.158  -0.473  0.00  0.00    -0.150 S 
ATOM     12  C   UNL     1       3.999   6.765   0.011  0.00  0.00    +0.111 C 
ENDBRANCH   3   5
BRANCH   1  15
ATOM     13  C   UNL     1      -0.017   1.379   0.010  0.00  0.00    +0.003 A 
ATOM     14  C   UNL     1       1.167   2.088   0.002  0.00  0.00    +0.013 A 
ATOM     15  C   UNL     1       2.385   1.407  -0.013  0.00  0.00    +0.039 A 
ATOM     16  C   UNL     1       2.397   0.011  -0.021  0.00  0.00    +0.045 A 
ATOM     17  C   UNL     1       1.206  -0.686  -0.013  0.00  0.00    +0.127 A 
ATOM     18  C   UNL     1       0.002  -0.004   0.002  0.00  0.00    +0.033 A 
BRANCH  17  19
ATOM     19  N   UNL     1       1.217  -2.166  -0.021  0.00  0.00    +0.056 N 
ATOM     20  O   UNL     1       2.268  -2.763  -0.035  0.00  0.00    -0.126 OA
ATOM     21  O   UNL     1       0.174  -2.778  -0.015  0.00  0.00    -0.126 OA
ENDBRANCH  17  19
ENDBRANCH   1  15
TORSDOF 3
