REMARK  Name = ZINC21078240
REMARK  7 active torsions:
REMARK  status: ('A' for Active; 'I' for Inactive)
REMARK    1  A    between atoms: C_1  and  C_2
REMARK    2  A    between atoms: C_3  and  N_9
REMARK    3  A    between atoms: C_10  and  C_12
REMARK    4  A    between atoms: C_12  and  S_13
REMARK    5  A    between atoms: S_13  and  C_14
REMARK    6  A    between atoms: N_19  and  N_20
REMARK    7  A    between atoms: C_21  and  C_22
REMARK                            x       y       z     vdW  Elec       q    Type
REMARK                         _______ _______ _______ _____ _____    ______ ____
ROOT
ATOM      1  C   UNL     1       6.271  -5.209   0.375  0.00  0.00    +0.211 A 
ATOM      2  N   UNL     1       6.565  -6.539   0.478  0.00  0.00    -0.186 NA
ATOM      3  C   UNL     1       7.925  -6.669   0.534  0.00  0.00    +0.232 A 
ATOM      4  N   UNL     1       8.449  -5.469   0.469  0.00  0.00    -0.245 N 
ATOM      5  N   UNL     1       7.402  -4.544   0.363  0.00  0.00    -0.144 NA
ATOM      6  N   UNL     1       8.626  -7.861   0.641  0.00  0.00    -0.205 N 
ATOM      7  H   UNL     1       8.083  -8.816   0.688  0.00  0.00    +0.177 HD
ATOM      8  H   UNL     1       9.542  -5.344   0.502  0.00  0.00    +0.192 HD
ENDROOT
BRANCH   6   9
ATOM      9  N   UNL     1      10.027  -7.848   0.689  0.00  0.00    -0.188 NA
ATOM     10  C   UNL     1      10.683  -8.964   0.789  0.00  0.00    +0.138 C 
BRANCH  10  11
ATOM     11  C   UNL     1      12.157  -8.950   0.840  0.00  0.00    -0.005 A 
ATOM     12  C   UNL     1      12.850  -7.738   0.774  0.00  0.00    +0.010 A 
ATOM     13  C   UNL     1      14.228  -7.732   0.828  0.00  0.00    +0.016 A 
ATOM     14  C   UNL     1      14.925  -8.924   0.934  0.00  0.00    +0.018 A 
ATOM     15  C   UNL     1      14.245 -10.128   0.995  0.00  0.00    +0.016 A 
ATOM     16  C   UNL     1      12.866 -10.149   0.948  0.00  0.00    +0.010 A 
ATOM     17 BR   UNL     1      16.815  -8.906   0.999  0.00  0.00    -0.050 Br
ENDBRANCH  10  11
ENDBRANCH   6   9
BRANCH   1  18
ATOM     18  S   UNL     1       4.658  -4.509   0.269  0.00  0.00    -0.075 S 
BRANCH  18  19
ATOM     19  C   UNL     1       4.960  -2.724   0.156  0.00  0.00    +0.173 C 
BRANCH  19  21
ATOM     20  N   UNL     1       3.622  -0.653  -0.036  0.00  0.00    -0.285 N 
ATOM     21  C   UNL     1       3.643  -1.997   0.059  0.00  0.00    +0.227 C 
ATOM     22  O   UNL     1       2.604  -2.622   0.065  0.00  0.00    -0.275 OA
ATOM     23  H   UNL     1       4.564  -0.092  -0.116  0.00  0.00    +0.155 HD
BRANCH  20  26
ATOM     24  C   UNL     1       3.510   1.897   1.222  0.00  0.00    +0.047 C 
ATOM     25  C   UNL     1       2.301   1.276   0.572  0.00  0.00    -0.011 A 
ATOM     26  C   UNL     1       2.400   0.029  -0.031  0.00  0.00    +0.038 A 
ATOM     27  C   UNL     1       1.283  -0.540  -0.629  0.00  0.00    +0.023 A 
ATOM     28  C   UNL     1       0.078   0.135  -0.623  0.00  0.00    +0.003 A 
ATOM     29  C   UNL     1      -0.018   1.376  -0.023  0.00  0.00    +0.020 A 
ATOM     30  C   UNL     1       1.093   1.947   0.575  0.00  0.00    +0.046 A 
ATOM     31 CL   UNL     1       0.968   3.506   1.327  0.00  0.00    -0.083 Cl
ENDBRANCH  20  26
ENDBRANCH  19  21
ENDBRANCH  18  19
ENDBRANCH   1  18
TORSDOF 6
