REMARK  Name = ZINC04143007
REMARK  9 active torsions:
REMARK  status: ('A' for Active; 'I' for Inactive)
REMARK    1  A    between atoms: C_1  and  C_2
REMARK    2  A    between atoms: C_2  and  C_3
REMARK    3  A    between atoms: C_2  and  C_4
REMARK    4  A    between atoms: C_2  and  N_5
REMARK    5  A    between atoms: C_8  and  C_19
REMARK    6  A    between atoms: N_12  and  C_13
REMARK    7  A    between atoms: C_19  and  C_20
REMARK    8  A    between atoms: N_22  and  C_23
REMARK    9  A    between atoms: C_28  and  N_29
REMARK                            x       y       z     vdW  Elec       q    Type
REMARK                         _______ _______ _______ _____ _____    ______ ____
ROOT
ATOM      1  N   UNL     1       8.100   2.136   0.879  0.00  0.00    -0.244 N 
ATOM      2  C   UNL     1       7.293   2.042  -0.165  0.00  0.00    +0.236 C 
ATOM      3  O   UNL     1       7.626   1.485  -1.190  0.00  0.00    -0.274 OA
ATOM      4  C   UNL     1       5.922   2.677   0.000  0.00  0.00    +0.149 C 
ATOM      5  S   UNL     1       6.061   3.322   1.714  0.00  0.00    -0.077 S 
ATOM      6  C   UNL     1       7.726   2.769   2.046  0.00  0.00    +0.164 C 
ATOM      7  N   UNL     1       8.429   2.928   3.143  0.00  0.00    -0.226 NA
ENDROOT
BRANCH   7   8
ATOM      8  C   UNL     1       7.889   3.590   4.213  0.00  0.00    +0.067 A 
ATOM      9  C   UNL     1       7.200   4.790   4.020  0.00  0.00    +0.028 A 
ATOM     10  C   UNL     1       6.654   5.449   5.101  0.00  0.00    +0.002 A 
ATOM     11  C   UNL     1       6.797   4.931   6.376  0.00  0.00    +0.000 A 
ATOM     12  C   UNL     1       7.482   3.745   6.575  0.00  0.00    +0.002 A 
ATOM     13  C   UNL     1       8.029   3.073   5.502  0.00  0.00    +0.028 A 
ENDBRANCH   7   8
BRANCH   1  15
ATOM     14  C   UNL     1      10.183   1.777   2.109  0.00  0.00    +0.031 C 
ATOM     15  C   UNL     1       9.438   1.546   0.793  0.00  0.00    +0.036 C 
ATOM     16  C   UNL     1       9.317   0.043   0.533  0.00  0.00    +0.031 C 
ATOM     17  C   UNL     1      10.211   2.201  -0.353  0.00  0.00    +0.031 C 
ENDBRANCH   1  15
BRANCH   4  18
ATOM     18  C   UNL     1       4.810   1.631  -0.110  0.00  0.00    +0.120 C 
BRANCH  18  19
ATOM     19  C   UNL     1       3.470   2.306   0.029  0.00  0.00    +0.219 C 
ATOM     20  O   UNL     1       3.410   3.506   0.201  0.00  0.00    -0.275 OA
ATOM     21  N   UNL     1       2.338   1.577  -0.036  0.00  0.00    -0.284 N 
ATOM     22  H   UNL     1       2.394   0.481  -0.104  0.00  0.00    +0.155 HD
BRANCH  21  23
ATOM     23  C   UNL     1       1.093   2.216  -0.017  0.00  0.00    +0.064 A 
ATOM     24  C   UNL     1       0.935   3.451  -0.632  0.00  0.00    +0.025 A 
ATOM     25  C   UNL     1      -0.295   4.078  -0.612  0.00  0.00    +0.002 A 
ATOM     26  C   UNL     1      -1.369   3.477   0.020  0.00  0.00    +0.002 A 
ATOM     27  C   UNL     1      -1.216   2.245   0.628  0.00  0.00    +0.034 A 
ATOM     28  C   UNL     1       0.013   1.615   0.617  0.00  0.00    +0.147 A 
BRANCH  28  29
ATOM     29  N   UNL     1       0.178   0.299   1.274  0.00  0.00    +0.058 N 
ATOM     30  O   UNL     1      -0.743  -0.186   1.906  0.00  0.00    -0.126 OA
ATOM     31  O   UNL     1       1.235  -0.299   1.183  0.00  0.00    -0.126 OA
ENDBRANCH  28  29
ENDBRANCH  21  23
ENDBRANCH  18  19
ENDBRANCH   4  18
TORSDOF 6
