REMARK  Name = ZINC54623184
REMARK  9 active torsions:
REMARK  status: ('A' for Active; 'I' for Inactive)
REMARK    1  A    between atoms: C_1  and  C_2
REMARK    2  A    between atoms: C_2  and  O_3
REMARK    3  A    between atoms: O_3  and  C_4
REMARK    4  A    between atoms: C_4  and  C_6
REMARK    5  A    between atoms: C_7  and  C_33
REMARK    6  A    between atoms: C_11  and  S_24
REMARK    7  A    between atoms: C_14  and  C_16
REMARK    8  A    between atoms: S_24  and  C_25
REMARK    9  A    between atoms: C_25  and  C_26
REMARK                            x       y       z     vdW  Elec       q    Type
REMARK                         _______ _______ _______ _____ _____    ______ ____
ROOT
ATOM      1  C   UNL     1      -2.799  -2.429   0.223  0.00  0.00    +0.082 C 
ATOM      2  C   UNL     1      -2.920  -3.729  -0.087  0.00  0.00    +0.020 C 
ATOM      3  N   UNL     1      -4.139  -4.317  -0.309  0.00  0.00    -0.287 N 
ATOM      4  C   UNL     1      -5.235  -3.479  -0.463  0.00  0.00    +0.219 A 
ATOM      5  N   UNL     1      -6.440  -3.741  -0.892  0.00  0.00    -0.187 NA
ATOM      6  C   UNL     1      -7.174  -2.619  -0.878  0.00  0.00    +0.211 A 
ATOM      7  N   UNL     1      -6.433  -1.627  -0.434  0.00  0.00    -0.141 NA
ATOM      8  N   UNL     1      -5.175  -2.160  -0.155  0.00  0.00    -0.220 N 
ATOM      9  C   UNL     1      -3.979  -1.507   0.373  0.00  0.00    +0.179 C 
ATOM     10  C   UNL     1      -1.674  -4.571  -0.197  0.00  0.00    +0.061 C 
ATOM     11  H   UNL     1      -4.232  -5.282  -0.357  0.00  0.00    +0.155 HD
ENDROOT
BRANCH   9  12
ATOM     12  C   UNL     1      -4.181  -1.183   1.831  0.00  0.00    -0.017 A 
ATOM     13  C   UNL     1      -4.426  -2.198   2.737  0.00  0.00    +0.007 A 
ATOM     14  C   UNL     1      -4.612  -1.902   4.074  0.00  0.00    +0.022 A 
ATOM     15  C   UNL     1      -4.552  -0.590   4.507  0.00  0.00    +0.059 A 
ATOM     16  C   UNL     1      -4.306   0.427   3.600  0.00  0.00    +0.060 A 
ATOM     17  C   UNL     1      -4.115   0.128   2.263  0.00  0.00    +0.027 A 
ATOM     18 CL   UNL     1      -4.231   2.075   4.141  0.00  0.00    -0.082 Cl
ATOM     19 CL   UNL     1      -4.786  -0.217   6.186  0.00  0.00    -0.082 Cl
ENDBRANCH   9  12
BRANCH   1  20
ATOM     20  C   UNL     1      -1.503  -1.902   0.423  0.00  0.00    +0.339 C 
ATOM     21  O   UNL     1      -0.999  -1.188  -0.423  0.00  0.00    -0.245 OA
BRANCH  20  22
ATOM     22  O   UNL     1      -0.825  -2.191   1.554  0.00  0.00    -0.462 OA
BRANCH  22  24
ATOM     23  C   UNL     1       1.088  -2.061   3.024  0.00  0.00    +0.048 C 
ATOM     24  C   UNL     1       0.480  -1.625   1.690  0.00  0.00    +0.229 C 
ENDBRANCH  22  24
ENDBRANCH  20  22
ENDBRANCH   1  20
BRANCH   6  25
ATOM     25  S   UNL     1      -8.860  -2.494  -1.377  0.00  0.00    -0.080 S 
BRANCH  25  26
ATOM     26  C   UNL     1      -9.296  -4.182  -1.876  0.00  0.00    +0.114 C 
BRANCH  26  27
ATOM     27  C   UNL     1     -10.733  -4.216  -2.331  0.00  0.00    -0.019 A 
ATOM     28  C   UNL     1     -11.741  -4.467  -1.419  0.00  0.00    +0.006 A 
ATOM     29  C   UNL     1     -13.058  -4.497  -1.836  0.00  0.00    +0.000 A 
ATOM     30  C   UNL     1     -13.369  -4.277  -3.165  0.00  0.00    +0.001 A 
ATOM     31  C   UNL     1     -12.362  -4.026  -4.078  0.00  0.00    +0.020 A 
ATOM     32  C   UNL     1     -11.043  -3.990  -3.660  0.00  0.00    +0.045 A 
ATOM     33 CL   UNL     1      -9.778  -3.668  -4.805  0.00  0.00    -0.083 Cl
ENDBRANCH  26  27
ENDBRANCH  25  26
ENDBRANCH   6  25
TORSDOF 7
