REMARK  Name = ZINC19740176
REMARK  8 active torsions:
REMARK  status: ('A' for Active; 'I' for Inactive)
REMARK    1  A    between atoms: C_1  and  C_2
REMARK    2  A    between atoms: C_2  and  C_33
REMARK    3  A    between atoms: N_8  and  C_9
REMARK    4  A    between atoms: C_16  and  N_19
REMARK    5  A    between atoms: N_19  and  C_20
REMARK    6  A    between atoms: C_20  and  C_21
REMARK    7  A    between atoms: N_23  and  C_32
REMARK    8  A    between atoms: C_25  and  C_26
REMARK                            x       y       z     vdW  Elec       q    Type
REMARK                         _______ _______ _______ _____ _____    ______ ____
ROOT
ATOM      1  C   UNL     1       3.814  -6.078  -1.814  0.00  0.00    +0.011 C 
ATOM      2  C   UNL     1       2.938  -5.613  -2.978  0.00  0.00    -0.031 C 
ATOM      3  C   UNL     1       1.595  -6.353  -2.935  0.00  0.00    +0.062 C 
ATOM      4  C   UNL     1       0.812  -5.850  -1.748  0.00  0.00    +0.047 A 
ATOM      5  C   UNL     1       1.094  -4.701  -1.082  0.00  0.00    -0.020 A 
ATOM      6  C   UNL     1       0.169  -4.565  -0.049  0.00  0.00    +0.137 A 
ATOM      7  N   UNL     1      -0.643  -5.594  -0.090  0.00  0.00    -0.174 NA
ATOM      8  N   UNL     1      -0.255  -6.418  -1.157  0.00  0.00    -0.237 N 
ATOM      9  C   UNL     1       2.224  -3.770  -1.442  0.00  0.00    -0.037 C 
ATOM     10  C   UNL     1       2.693  -4.105  -2.863  0.00  0.00    -0.005 C 
ATOM     11  C   UNL     1       3.645  -5.915  -4.301  0.00  0.00    +0.011 C 
ENDROOT
BRANCH   8  12
ATOM     12  C   UNL     1      -0.870  -7.619  -1.540  0.00  0.00    +0.066 A 
ATOM     13  C   UNL     1      -0.947  -7.963  -2.883  0.00  0.00    +0.030 A 
ATOM     14  C   UNL     1      -1.548  -9.149  -3.257  0.00  0.00    +0.040 A 
ATOM     15  C   UNL     1      -2.082  -9.990  -2.295  0.00  0.00    +0.124 A 
ATOM     16  C   UNL     1      -2.011  -9.645  -0.955  0.00  0.00    +0.040 A 
ATOM     17  C   UNL     1      -1.406  -8.463  -0.577  0.00  0.00    +0.030 A 
ATOM     18  F   UNL     1      -2.674 -11.147  -2.663  0.00  0.00    -0.205 F 
ENDBRANCH   8  12
BRANCH   9  19
ATOM     19  N   UNL     1       1.755  -2.379  -1.391  0.00  0.00    +0.386 N 
ATOM     20  H   UNL     1       2.378  -1.757  -2.051  0.00  0.00    -0.085 HD
ATOM     21  H   UNL     1       0.708  -2.333  -1.726  0.00  0.00    -0.085 HD
BRANCH  19  22
ATOM     22  C   UNL     1       1.837  -1.845  -0.025  0.00  0.00    -0.042 C 
BRANCH  22  23
ATOM     23  C   UNL     1       1.348  -0.419  -0.013  0.00  0.00    -0.019 A 
ATOM     24  C   UNL     1       2.123   0.687  -0.015  0.00  0.00    +0.110 A 
ATOM     25  N   UNL     1       1.310   1.765  -0.001  0.00  0.00    -0.274 N 
ATOM     26  N   UNL     1      -0.016   1.312   0.009  0.00  0.00    -0.171 NA
ATOM     27  C   UNL     1       0.002  -0.004   0.002  0.00  0.00    +0.094 A 
ATOM     28  C   UNL     1       1.739   3.166   0.002  0.00  0.00    +0.172 C 
BRANCH  27  29
ATOM     29  C   UNL     1      -1.186  -0.893   0.009  0.00  0.00    +0.002 A 
ATOM     30  C   UNL     1      -1.163  -2.097  -0.693  0.00  0.00    +0.010 A 
ATOM     31  C   UNL     1      -2.269  -2.922  -0.679  0.00  0.00    +0.001 A 
ATOM     32  C   UNL     1      -3.403  -2.552   0.021  0.00  0.00    +0.000 A 
ATOM     33  C   UNL     1      -3.433  -1.356   0.716  0.00  0.00    +0.001 A 
ATOM     34  C   UNL     1      -2.331  -0.526   0.713  0.00  0.00    +0.010 A 
ENDBRANCH  27  29
ENDBRANCH  22  23
ENDBRANCH  19  22
ENDBRANCH   9  19
TORSDOF 5
