REMARK  Name = ZINC10447762
REMARK  10 active torsions:
REMARK  status: ('A' for Active; 'I' for Inactive)
REMARK    1  A    between atoms: C_1  and  C_2
REMARK    2  A    between atoms: N_10  and  C_13
REMARK    3  A    between atoms: C_13  and  C_14
REMARK    4  A    between atoms: C_14  and  C_15
REMARK    5  A    between atoms: C_15  and  C_16
REMARK    6  A    between atoms: N_18  and  C_19
REMARK    7  A    between atoms: C_22  and  S_25
REMARK    8  A    between atoms: S_25  and  N_28
REMARK    9  A    between atoms: C_29  and  C_37
REMARK   10  A    between atoms: C_34  and  C_36
REMARK                            x       y       z     vdW  Elec       q    Type
REMARK                         _______ _______ _______ _____ _____    ______ ____
ROOT
ATOM      1  C   UNL     1      -1.840  -5.686   9.004  0.00  0.00    +0.217 C 
ATOM      2  O   UNL     1      -2.173  -6.585   9.746  0.00  0.00    -0.275 OA
ATOM      3  N   UNL     1      -2.765  -4.830   8.525  0.00  0.00    -0.285 N 
ATOM      4  H   UNL     1      -2.491  -4.068   7.991  0.00  0.00    +0.155 HD
ENDROOT
BRANCH   3   5
ATOM      5  C   UNL     1      -4.121  -5.040   8.800  0.00  0.00    +0.033 A 
ATOM      6  C   UNL     1      -5.080  -4.729   7.845  0.00  0.00    +0.025 A 
ATOM      7  C   UNL     1      -6.418  -4.937   8.119  0.00  0.00    +0.030 A 
ATOM      8  C   UNL     1      -6.802  -5.455   9.342  0.00  0.00    +0.106 A 
ATOM      9  C   UNL     1      -5.850  -5.766  10.295  0.00  0.00    +0.030 A 
ATOM     10  C   UNL     1      -4.510  -5.565  10.025  0.00  0.00    +0.025 A 
BRANCH   8  11
ATOM     11  S   UNL     1      -8.510  -5.720   9.687  0.00  0.00    +0.061 S 
ATOM     12  O   UNL     1      -8.646  -5.701  11.102  0.00  0.00    -0.153 OA
ATOM     13  O   UNL     1      -9.236  -4.840   8.841  0.00  0.00    -0.153 OA
BRANCH  11  14
ATOM     14  N   UNL     1      -8.876  -7.258   9.197  0.00  0.00    -0.171 NA
ATOM     15  C   UNL     1      -9.336  -7.517   7.825  0.00  0.00    +0.077 C 
ATOM     16  C   UNL     1     -10.657  -8.290   7.886  0.00  0.00    +0.020 C 
ATOM     17  C   UNL     1     -10.468  -9.550   8.734  0.00  0.00    +0.003 C 
ATOM     18  C   UNL     1     -10.075  -9.153  10.159  0.00  0.00    +0.020 C 
ATOM     19  C   UNL     1      -8.741  -8.391  10.122  0.00  0.00    +0.077 C 
ATOM     20  C   UNL     1      -8.406  -7.873  11.522  0.00  0.00    +0.026 C 
ATOM     21  C   UNL     1      -9.548  -6.189   7.096  0.00  0.00    +0.026 C 
ENDBRANCH  11  14
ENDBRANCH   8  11
ENDBRANCH   3   5
BRANCH   1  22
ATOM     22  C   UNL     1      -0.393  -5.525   8.616  0.00  0.00    +0.098 C 
BRANCH  22  23
ATOM     23  C   UNL     1       0.440  -6.617   9.290  0.00  0.00    +0.031 C 
BRANCH  23  24
ATOM     24  C   UNL     1       1.909  -6.454   8.897  0.00  0.00    +0.127 C 
BRANCH  24  34
ATOM     25  C   UNL     1       5.100 -11.890  10.409  0.00  0.00    +0.046 C 
ATOM     26  C   UNL     1       4.929 -10.604  11.176  0.00  0.00    -0.024 A 
ATOM     27  C   UNL     1       5.512 -10.455  12.415  0.00  0.00    +0.005 A 
ATOM     28  C   UNL     1       5.363  -9.276  13.134  0.00  0.00    +0.001 A 
ATOM     29  C   UNL     1       4.627  -8.230  12.620  0.00  0.00    +0.015 A 
ATOM     30  C   UNL     1       4.029  -8.361  11.369  0.00  0.00    +0.065 A 
ATOM     31  C   UNL     1       4.183  -9.557  10.632  0.00  0.00    +0.081 A 
ATOM     32  N   UNL     1       3.596  -9.659   9.414  0.00  0.00    -0.237 NA
ATOM     33  C   UNL     1       2.902  -8.685   8.908  0.00  0.00    +0.202 A 
ATOM     34  N   UNL     1       2.707  -7.499   9.542  0.00  0.00    -0.299 N 
ATOM     35  C   UNL     1       3.232  -7.280  10.770  0.00  0.00    +0.262 A 
ATOM     36  O   UNL     1       3.064  -6.223  11.350  0.00  0.00    -0.267 OA
ENDBRANCH  24  34
ENDBRANCH  23  24
ENDBRANCH  22  23
ENDBRANCH   1  22
TORSDOF 7
