REMARK  Name = ZINC21263342
REMARK  11 active torsions:
REMARK  status: ('A' for Active; 'I' for Inactive)
REMARK    1  A    between atoms: C_1  and  C_2
REMARK    2  A    between atoms: C_2  and  C_27
REMARK    3  A    between atoms: C_4  and  N_10
REMARK    4  A    between atoms: C_6  and  C_8
REMARK    5  A    between atoms: C_6  and  C_9
REMARK    6  A    between atoms: N_10  and  C_11
REMARK    7  A    between atoms: C_11  and  N_13
REMARK    8  A    between atoms: N_13  and  C_14
REMARK    9  A    between atoms: N_13  and  C_20
REMARK   10  A    between atoms: C_14  and  C_15
REMARK   11  A    between atoms: N_23  and  C_26
REMARK                            x       y       z     vdW  Elec       q    Type
REMARK                         _______ _______ _______ _____ _____    ______ ____
ROOT
ATOM      1  C   UNL     1      -0.417   0.934  -3.203  0.00  0.00    +0.134 C 
ATOM      2  S   UNL     1      -2.027   1.458  -2.949  0.00  0.00    -0.019 S 
ENDROOT
BRANCH   1   3
ATOM      3  N   UNL     1       0.435   0.845  -2.163  0.00  0.00    -0.324 N 
ATOM      4  H   UNL     1       1.470   0.509  -2.327  0.00  0.00    +0.148 HD
BRANCH   3   8
ATOM      5  C   UNL     1      -0.903   0.106   1.969  0.00  0.00    -0.010 C 
ATOM      6  C   UNL     1       0.409   0.825   1.633  0.00  0.00    -0.072 C 
ATOM      7  C   UNL     1       0.842   0.460   0.215  0.00  0.00    +0.009 C 
ATOM      8  C   UNL     1      -0.017   1.198  -0.811  0.00  0.00    +0.069 C 
ATOM      9  C   UNL     1       0.155   2.701  -0.599  0.00  0.00    +0.009 C 
ATOM     10  C   UNL     1      -0.289   3.093   0.809  0.00  0.00    -0.072 C 
ATOM     11  N   UNL     1       0.290   2.254   1.837  0.00  0.00    +0.386 N 
ATOM     12  C   UNL     1       0.174   4.546   1.055  0.00  0.00    -0.010 C 
ATOM     13  C   UNL     1      -1.820   3.085   0.884  0.00  0.00    -0.010 C 
ATOM     14  C   UNL     1       1.486   0.288   2.601  0.00  0.00    -0.010 C 
ATOM     15  H   UNL     1      -0.340   2.446   2.719  0.00  0.00    -0.084 HD
ATOM     16  H   UNL     1       1.288   2.686   1.998  0.00  0.00    -0.084 HD
ENDBRANCH   3   8
ENDBRANCH   1   3
BRANCH   1  17
ATOM     17  N   UNL     1      -0.002   0.611  -4.444  0.00  0.00    -0.302 N 
BRANCH  17  18
ATOM     18  C   UNL     1      -0.956   0.602  -5.556  0.00  0.00    +0.072 C 
ATOM     19  C   UNL     1      -1.054  -0.813  -6.134  0.00  0.00    +0.004 C 
ATOM     20  C   UNL     1      -2.005  -0.804  -7.333  0.00  0.00    -0.077 C 
ATOM     21  N   UNL     1      -1.501   0.126  -8.352  0.00  0.00    +0.378 N 
ATOM     22  C   UNL     1      -1.443   1.499  -7.835  0.00  0.00    -0.077 C 
ATOM     23  C   UNL     1      -0.475   1.559  -6.651  0.00  0.00    +0.004 C 
ATOM     24  C   UNL     1      -2.313   0.057  -9.574  0.00  0.00    -0.096 C 
ATOM     25  H   UNL     1      -0.476  -0.180  -8.607  0.00  0.00    -0.082 HD
ENDBRANCH  17  18
BRANCH  17  26
ATOM     26  C   UNL     1       1.403   0.270  -4.681  0.00  0.00    +0.181 C 
BRANCH  26  27
ATOM     27  C   UNL     1       1.627  -1.185  -4.358  0.00  0.00    +0.122 A 
ATOM     28  C   UNL     1       1.618  -2.198  -5.243  0.00  0.00    +0.046 A 
ATOM     29  C   UNL     1       1.873  -3.382  -4.513  0.00  0.00    +0.041 A 
ATOM     30  C   UNL     1       2.015  -3.023  -3.225  0.00  0.00    +0.195 A 
ATOM     31  O   UNL     1       1.865  -1.691  -3.137  0.00  0.00    -0.466 OA
ENDBRANCH  26  27
ENDBRANCH  17  26
ENDBRANCH   1  17
TORSDOF 6
