REMARK  Name = ZINC67132617
REMARK  3 active torsions:
REMARK  status: ('A' for Active; 'I' for Inactive)
REMARK    1  A    between atoms: N_9  and  N_13
REMARK    2  A    between atoms: C_14  and  C_16
REMARK    3  A    between atoms: C_16  and  N_17
REMARK                            x       y       z     vdW  Elec       q    Type
REMARK                         _______ _______ _______ _____ _____    ______ ____
ROOT
ATOM      1  N   UNL     1       4.848  -1.815  -2.860  0.00  0.00    -0.225 N 
ATOM      2  C   UNL     1       6.083  -1.296  -3.006  0.00  0.00    +0.213 C 
ATOM      3  O   UNL     1       6.380  -0.268  -2.435  0.00  0.00    -0.276 OA
ATOM      4  H   UNL     1       4.611  -2.638  -3.317  0.00  0.00    +0.173 HD
ENDROOT
BRANCH   1  13
ATOM      5  C   UNL     1      -0.019   1.526   0.010  0.00  0.00    +0.000 C 
ATOM      6  C   UNL     1       1.416   2.058  -0.000  0.00  0.00    +0.003 C 
ATOM      7  C   UNL     1       2.129   1.573  -1.265  0.00  0.00    +0.035 C 
ATOM      8  C   UNL     1       2.134   0.048  -1.295  0.00  0.00    +0.114 C 
ATOM      9  C   UNL     1       0.710  -0.496  -1.263  0.00  0.00    +0.035 C 
ATOM     10  C   UNL     1       0.002  -0.004   0.002  0.00  0.00    +0.003 C 
ATOM     11  C   UNL     1       2.864  -0.454  -2.519  0.00  0.00    +0.263 C 
ATOM     12  O   UNL     1       2.573  -0.256  -3.679  0.00  0.00    -0.271 OA
ATOM     13  N   UNL     1       3.907  -1.169  -2.049  0.00  0.00    -0.137 N 
ATOM     14  C   UNL     1       3.931  -1.183  -0.710  0.00  0.00    +0.326 C 
ATOM     15  O   UNL     1       4.776  -1.762  -0.056  0.00  0.00    -0.251 OA
ATOM     16  N   UNL     1       2.914  -0.485  -0.171  0.00  0.00    -0.284 N 
ATOM     17  H   UNL     1       2.732  -0.359   0.774  0.00  0.00    +0.151 HD
ENDBRANCH   1  13
BRANCH   2  18
ATOM     18  C   UNL     1       7.095  -1.992  -3.879  0.00  0.00    +0.020 C 
BRANCH  18  19
ATOM     19  N   UNL     1       8.352  -1.232  -3.873  0.00  0.00    +0.387 N 
ATOM     20  C   UNL     1       8.921  -1.242  -2.520  0.00  0.00    -0.078 C 
ATOM     21  C   UNL     1      10.189  -0.385  -2.489  0.00  0.00    -0.018 C 
ATOM     22  C   UNL     1      11.209  -0.956  -3.478  0.00  0.00    +0.000 C 
ATOM     23  C   UNL     1      10.578  -1.009  -4.872  0.00  0.00    -0.025 C 
ATOM     24  C   UNL     1       9.297  -1.844  -4.815  0.00  0.00    -0.065 C 
ATOM     25  C   UNL     1       8.665  -1.903  -6.207  0.00  0.00    -0.015 C 
ATOM     26  C   UNL     1       9.649  -2.545  -7.187  0.00  0.00    -0.002 C 
ATOM     27  C   UNL     1      10.930  -1.711  -7.244  0.00  0.00    +0.000 C 
ATOM     28  C   UNL     1      11.564  -1.649  -5.852  0.00  0.00    +0.002 C 
ATOM     29  H   UNL     1       8.170  -0.280  -4.152  0.00  0.00    -0.081 HD
ENDBRANCH  18  19
ENDBRANCH   2  18
TORSDOF 3
