REMARK  Name = ZINC08962579
REMARK  8 active torsions:
REMARK  status: ('A' for Active; 'I' for Inactive)
REMARK    1  A    between atoms: C_1  and  O_2
REMARK    2  A    between atoms: O_2  and  C_3
REMARK    3  A    between atoms: C_10  and  C_12
REMARK    4  A    between atoms: C_12  and  N_14
REMARK    5  A    between atoms: N_16  and  C_28
REMARK    6  A    between atoms: C_20  and  S_24
REMARK    7  A    between atoms: S_24  and  N_27
REMARK    8  A    between atoms: C_28  and  C_29
REMARK                            x       y       z     vdW  Elec       q    Type
REMARK                         _______ _______ _______ _____ _____    ______ ____
ROOT
ATOM      1  N   UNL     1       2.408   3.192  -0.005  0.00  0.00    -0.149 NA
ATOM      2  C   UNL     1       1.743   2.043  -0.004  0.00  0.00    +0.168 A 
ATOM      3  N   UNL     1       2.234   0.771  -0.015  0.00  0.00    -0.310 N 
ATOM      4  C   UNL     1       1.371  -0.310  -0.013  0.00  0.00    +0.059 A 
ATOM      5  C   UNL     1       1.708  -1.675  -0.023  0.00  0.00    +0.029 A 
ATOM      6  C   UNL     1       0.733  -2.642  -0.019  0.00  0.00    +0.030 A 
ATOM      7  C   UNL     1      -0.611  -2.308  -0.004  0.00  0.00    +0.106 A 
ATOM      8  C   UNL     1      -0.973  -0.973   0.006  0.00  0.00    +0.045 A 
ATOM      9  C   UNL     1       0.002  -0.004   0.002  0.00  0.00    +0.041 A 
ATOM     10  S   UNL     1      -0.022   1.772   0.012  0.00  0.00    -0.052 S 
ENDROOT
BRANCH   7  11
ATOM     11  S   UNL     1      -1.844  -3.567  -0.000  0.00  0.00    +0.056 S 
ATOM     12  O   UNL     1      -1.233  -4.732   0.539  0.00  0.00    -0.153 OA
ATOM     13  O   UNL     1      -3.013  -2.989   0.565  0.00  0.00    -0.153 OA
BRANCH  11  14
ATOM     14  N   UNL     1      -2.201  -3.909  -1.581  0.00  0.00    -0.204 NA
ATOM     15  H   UNL     1      -1.746  -3.434  -2.294  0.00  0.00    +0.144 HD
ATOM     16  H   UNL     1      -2.864  -4.583  -1.793  0.00  0.00    +0.144 HD
ENDBRANCH  11  14
ENDBRANCH   7  11
BRANCH   1  17
ATOM     17  C   UNL     1       1.741   4.352   0.007  0.00  0.00    +0.305 C 
ATOM     18  O   UNL     1       0.521   4.354   0.019  0.00  0.00    -0.265 OA
BRANCH  17  26
ATOM     19  C   UNL     1       5.428   7.685  -0.010  0.00  0.00    +0.163 A 
ATOM     20  C   UNL     1       5.483   9.067  -0.004  0.00  0.00    +0.049 A 
ATOM     21  C   UNL     1       4.319   9.822   0.011  0.00  0.00    +0.004 A 
ATOM     22  C   UNL     1       3.097   9.212   0.019  0.00  0.00    +0.012 A 
ATOM     23  C   UNL     1       3.017   7.817   0.013  0.00  0.00    +0.025 A 
ATOM     24  C   UNL     1       4.190   7.043  -0.002  0.00  0.00    +0.177 A 
ATOM     25  O   UNL     1       3.823   5.746  -0.000  0.00  0.00    -0.446 OA
ATOM     26  C   UNL     1       2.479   5.627   0.006  0.00  0.00    +0.193 A 
ATOM     27  C   UNL     1       1.911   6.859   0.018  0.00  0.00    +0.063 A 
BRANCH  19  29
ATOM     28  C   UNL     1       7.806   7.683  -0.033  0.00  0.00    +0.277 C 
ATOM     29  O   UNL     1       6.575   6.956  -0.025  0.00  0.00    -0.491 OA
ENDBRANCH  19  29
ENDBRANCH  17  26
ENDBRANCH   1  17
BRANCH   3  30
ATOM     30  C   UNL     1       3.682   0.549  -0.031  0.00  0.00    +0.212 C 
BRANCH  30  31
ATOM     31  C   UNL     1       4.153   0.482  -1.424  0.00  0.00    -0.084 C 
ATOM     32  C   UNL     1       4.529   0.429  -2.534  0.00  0.00    +0.005 C 
ENDBRANCH  30  31
ENDBRANCH   3  30
TORSDOF 7
