REMARK  Name = ZINC29688532
REMARK  5 active torsions:
REMARK  status: ('A' for Active; 'I' for Inactive)
REMARK    1  A    between atoms: C_1  and  C_2
REMARK    2  A    between atoms: C_2  and  C_4
REMARK    3  A    between atoms: C_2  and  N_11
REMARK    4  A    between atoms: N_14  and  C_17
REMARK    5  A    between atoms: C_17  and  C_18
REMARK                            x       y       z     vdW  Elec       q    Type
REMARK                         _______ _______ _______ _____ _____    ______ ____
ROOT
ATOM      1  N   UNL     1       0.203   4.086  -1.033  0.00  0.00    -0.299 NA
ATOM      2  C   UNL     1       0.237   3.542   0.332  0.00  0.00    +0.066 C 
ATOM      3  C   UNL     1       0.020   2.028   0.281  0.00  0.00    -0.063 C 
ATOM      4  N   UNL     1      -1.268   1.742  -0.366  0.00  0.00    +0.386 N 
ATOM      5  C   UNL     1      -1.301   2.285  -1.731  0.00  0.00    -0.063 C 
ATOM      6  C   UNL     1      -1.085   3.799  -1.680  0.00  0.00    +0.066 C 
ATOM      7  H   UNL     1      -2.058   2.238   0.216  0.00  0.00    -0.081 HD
ENDROOT
BRANCH   1   9
ATOM      8  C   UNL     1       1.848   5.783  -0.390  0.00  0.00    +0.029 C 
ATOM      9  C   UNL     1       0.483   5.528  -1.033  0.00  0.00    +0.085 C 
BRANCH   9  10
ATOM     10  C   UNL     1       0.492   6.038  -2.451  0.00  0.00    -0.012 A 
ATOM     11  C   UNL     1       0.831   5.190  -3.488  0.00  0.00    +0.006 A 
ATOM     12  C   UNL     1       0.836   5.657  -4.789  0.00  0.00    +0.000 A 
ATOM     13  C   UNL     1       0.510   6.975  -5.053  0.00  0.00    +0.001 A 
ATOM     14  C   UNL     1       0.177   7.825  -4.016  0.00  0.00    +0.020 A 
ATOM     15  C   UNL     1       0.167   7.357  -2.713  0.00  0.00    +0.046 A 
ATOM     16 CL   UNL     1      -0.251   8.424  -1.410  0.00  0.00    -0.083 Cl
ENDBRANCH   9  10
ENDBRANCH   1   9
BRANCH   4  17
ATOM     17  C   UNL     1      -1.547   0.299  -0.366  0.00  0.00    -0.003 C 
BRANCH  17  18
ATOM     18  C   UNL     1      -2.969   0.063  -0.808  0.00  0.00    +0.094 A 
ATOM     19  N   UNL     1      -3.419  -1.217  -0.874  0.00  0.00    -0.312 N 
ATOM     20  H   UNL     1      -2.751  -2.050  -0.607  0.00  0.00    +0.170 HD
ATOM     21  C   UNL     1      -4.687  -1.482  -1.264  0.00  0.00    +0.259 A 
ATOM     22  O   UNL     1      -5.104  -2.624  -1.327  0.00  0.00    -0.267 OA
ATOM     23  C   UNL     1      -5.543  -0.337  -1.610  0.00  0.00    +0.066 A 
ATOM     24  C   UNL     1      -6.863  -0.501  -2.023  0.00  0.00    +0.035 A 
ATOM     25  C   UNL     1      -7.620   0.608  -2.335  0.00  0.00    +0.042 A 
ATOM     26  C   UNL     1      -7.077   1.884  -2.239  0.00  0.00    +0.022 A 
ATOM     27  C   UNL     1      -5.775   2.067  -1.832  0.00  0.00    +0.030 A 
ATOM     28  C   UNL     1      -4.988   0.958  -1.512  0.00  0.00    +0.078 A 
ATOM     29  N   UNL     1      -3.702   1.094  -1.102  0.00  0.00    -0.236 NA
ATOM     30 CL   UNL     1      -9.266   0.410  -2.851  0.00  0.00    -0.084 Cl
ENDBRANCH  17  18
ENDBRANCH   4  17
TORSDOF 4
