REMARK  Name = ZINC67371507
REMARK  3 active torsions:
REMARK  status: ('A' for Active; 'I' for Inactive)
REMARK    1  A    between atoms: C_3  and  N_10
REMARK    2  A    between atoms: C_5  and  C_8
REMARK    3  A    between atoms: C_13  and  N_16
REMARK                            x       y       z     vdW  Elec       q    Type
REMARK                         _______ _______ _______ _____ _____    ______ ____
ROOT
ATOM      1  N   UNL     1       3.595   2.015  -0.021  0.00  0.00    -0.317 N 
ATOM      2  C   UNL     1       4.921   1.392  -0.148  0.00  0.00    +0.105 C 
ATOM      3  C   UNL     1       5.964   2.530  -0.135  0.00  0.00    +0.005 C 
ATOM      4  C   UNL     1       5.135   3.767  -0.571  0.00  0.00    -0.049 C 
ATOM      5  C   UNL     1       3.766   3.475   0.089  0.00  0.00    +0.091 C 
ENDROOT
BRANCH   1   8
ATOM      6  C   UNL     1      -0.017   1.384   0.010  0.00  0.00    +0.026 A 
ATOM      7  C   UNL     1       1.189   2.062   0.002  0.00  0.00    +0.045 A 
ATOM      8  C   UNL     1       2.380   1.339  -0.013  0.00  0.00    +0.123 A 
ATOM      9  N   UNL     1       2.368   0.018  -0.021  0.00  0.00    -0.220 NA
ATOM     10  C   UNL     1       1.228  -0.667  -0.014  0.00  0.00    +0.160 A 
ATOM     11  C   UNL     1       0.002  -0.004   0.002  0.00  0.00    +0.077 A 
ATOM     12 CL   UNL     1      -1.483  -0.903   0.012  0.00  0.00    -0.081 Cl
BRANCH  10  13
ATOM     13  C   UNL     1       1.261  -2.099  -0.023  0.00  0.00    +0.121 C 
ATOM     14  N   UNL     1       1.286  -3.235  -0.030  0.00  0.00    -0.189 NA
ENDBRANCH  10  13
ENDBRANCH   1   8
BRANCH   4  15
ATOM     15  N   UNL     1       5.722   5.006  -0.045  0.00  0.00    +0.383 N 
ATOM     16  C   UNL     1       7.061   5.234  -0.647  0.00  0.00    -0.078 C 
ATOM     17  C   UNL     1       7.278   6.757  -0.465  0.00  0.00    -0.020 C 
ATOM     18  C   UNL     1       5.866   7.338  -0.705  0.00  0.00    -0.020 C 
ATOM     19  C   UNL     1       4.899   6.169  -0.442  0.00  0.00    -0.078 C 
ATOM     20  H   UNL     1       5.795   4.958   0.960  0.00  0.00    -0.081 HD
ENDBRANCH   4  15
TORSDOF 3
