REMARK  Name = ZINC36063991
REMARK  10 active torsions:
REMARK  status: ('A' for Active; 'I' for Inactive)
REMARK    1  A    between atoms: C_5  and  C_7
REMARK    2  A    between atoms: C_7  and  N_8
REMARK    3  A    between atoms: N_8  and  C_9
REMARK    4  A    between atoms: N_8  and  C_21
REMARK    5  A    between atoms: C_9  and  C_10
REMARK    6  A    between atoms: C_10  and  C_11
REMARK    7  A    between atoms: C_21  and  C_22
REMARK    8  A    between atoms: C_24  and  C_27
REMARK    9  A    between atoms: N_29  and  C_30
REMARK   10  A    between atoms: C_30  and  C_31
REMARK                            x       y       z     vdW  Elec       q    Type
REMARK                         _______ _______ _______ _____ _____    ______ ____
ROOT
ATOM      1  N   UNL     1       1.608  -2.661   1.312  0.00  0.00    +0.388 N 
ATOM      2  H   UNL     1       2.418  -2.125   1.587  0.00  0.00    -0.081 HD
ENDROOT
BRANCH   1   3
ATOM      3  C   UNL     1       1.190  -2.259  -0.037  0.00  0.00    -0.041 C 
BRANCH   3   8
ATOM      4  C   UNL     1      -0.512   1.110  -0.103  0.00  0.00    +0.000 A 
ATOM      5  C   UNL     1       0.573   1.967  -0.138  0.00  0.00    +0.001 A 
ATOM      6  C   UNL     1       1.857   1.457  -0.141  0.00  0.00    +0.020 A 
ATOM      7  C   UNL     1       2.058   0.088  -0.108  0.00  0.00    +0.042 A 
ATOM      8  C   UNL     1       0.972  -0.768  -0.072  0.00  0.00    -0.046 A 
ATOM      9  C   UNL     1      -0.312  -0.257  -0.070  0.00  0.00    +0.003 A 
ATOM     10 CL   UNL     1       3.671  -0.553  -0.112  0.00  0.00    -0.083 Cl
ENDBRANCH   3   8
ENDBRANCH   1   3
BRANCH   1  11
ATOM     11  C   UNL     1       1.945  -4.091   1.315  0.00  0.00    -0.073 C 
BRANCH  11  12
ATOM     12  C   UNL     1       3.166  -4.330   0.424  0.00  0.00    +0.019 C 
BRANCH  12  13
ATOM     13  C   UNL     1       3.511  -5.796   0.427  0.00  0.00    -0.024 A 
ATOM     14  C   UNL     1       4.408  -6.404   1.220  0.00  0.00    +0.087 A 
ATOM     15  N   UNL     1       4.450  -7.742   0.936  0.00  0.00    -0.360 N 
ATOM     16  H   UNL     1       5.023  -8.388   1.379  0.00  0.00    +0.165 HD
ATOM     17  C   UNL     1       3.559  -8.036  -0.071  0.00  0.00    +0.047 A 
ATOM     18  C   UNL     1       2.927  -6.831  -0.430  0.00  0.00    +0.003 A 
ATOM     19  C   UNL     1       1.958  -6.825  -1.435  0.00  0.00    +0.010 A 
ATOM     20  C   UNL     1       1.625  -7.992  -2.064  0.00  0.00    +0.001 A 
ATOM     21  C   UNL     1       2.243  -9.183  -1.711  0.00  0.00    +0.002 A 
ATOM     22  C   UNL     1       3.208  -9.211  -0.728  0.00  0.00    +0.026 A 
ENDBRANCH  12  13
ENDBRANCH  11  12
ENDBRANCH   1  11
BRANCH   1  23
ATOM     23  C   UNL     1       0.512  -2.414   2.259  0.00  0.00    +0.019 C 
BRANCH  23  24
ATOM     24  C   UNL     1       0.989  -2.691   3.662  0.00  0.00    +0.179 A 
ATOM     25  N   UNL     1       1.626  -1.849   4.419  0.00  0.00    -0.210 NA
ATOM     26  C   UNL     1       1.887  -2.453   5.610  0.00  0.00    +0.163 A 
ATOM     27  C   UNL     1       1.375  -3.712   5.541  0.00  0.00    +0.230 A 
ATOM     28  O   UNL     1       0.817  -3.842   4.327  0.00  0.00    -0.449 OA
BRANCH  26  29
ATOM     29  C   UNL     1       2.593  -1.857   6.759  0.00  0.00    +0.266 C 
ATOM     30  O   UNL     1       2.846  -2.535   7.736  0.00  0.00    -0.268 OA
ATOM     31  N   UNL     1       2.958  -0.560   6.726  0.00  0.00    -0.308 N 
ATOM     32  H   UNL     1       2.695  -0.001   5.978  0.00  0.00    +0.149 HD
BRANCH  31  33
ATOM     33  C   UNL     1       3.753   0.006   7.819  0.00  0.00    +0.136 C 
BRANCH  33  34
ATOM     34  C   UNL     1       4.029   1.484   7.537  0.00  0.00    +0.135 C 
ATOM     35  C   UNL     1       4.899   2.093   8.665  0.00  0.00    +0.035 C 
ATOM     36  C   UNL     1       5.569   3.276   7.915  0.00  0.00    +0.031 C 
ATOM     37  C   UNL     1       5.742   2.705   6.491  0.00  0.00    +0.160 C 
ATOM     38  O   UNL     1       4.810   1.626   6.340  0.00  0.00    -0.375 OA
ENDBRANCH  33  34
ENDBRANCH  31  33
ENDBRANCH  26  29
ENDBRANCH  23  24
ENDBRANCH   1  23
TORSDOF 10
