REMARK  Name = ZINC01191346
REMARK  5 active torsions:
REMARK  status: ('A' for Active; 'I' for Inactive)
REMARK    1  A    between atoms: C_1  and  C_2
REMARK    2  A    between atoms: C_5  and  C_8
REMARK    3  A    between atoms: C_8  and  O_10
REMARK    4  A    between atoms: O_10  and  C_11
REMARK    5  A    between atoms: C_14  and  C_17
REMARK                            x       y       z     vdW  Elec       q    Type
REMARK                         _______ _______ _______ _____ _____    ______ ____
ROOT
ATOM      1  C   UNL     1      -0.274   0.631   0.732  0.00  0.00    +0.132 A 
ATOM      2  C   UNL     1       0.081   1.887   1.214  0.00  0.00    +0.047 A 
ATOM      3  C   UNL     1       1.333   2.381   0.987  0.00  0.00    +0.011 A 
ATOM      4  C   UNL     1       2.264   1.618   0.265  0.00  0.00    -0.024 A 
ATOM      5  C   UNL     1       1.901   0.352  -0.218  0.00  0.00    +0.011 A 
ATOM      6  C   UNL     1       0.645  -0.130   0.015  0.00  0.00    +0.047 A 
ENDROOT
BRANCH   4   7
ATOM      7  C   UNL     1       3.609   2.141   0.019  0.00  0.00    +0.026 C 
ATOM      8  C   UNL     1       3.776   3.442  -0.415  0.00  0.00    +0.100 C 
ATOM      9  C   UNL     1       2.627   4.265  -0.842  0.00  0.00    +0.256 C 
ATOM     10  O   UNL     1       1.496   3.818  -0.824  0.00  0.00    -0.270 OA
ATOM     11  N   UNL     1       2.866   5.529  -1.249  0.00  0.00    -0.236 N 
ATOM     12  C   UNL     1       4.108   6.033  -1.279  0.00  0.00    +0.313 C 
ATOM     13  O   UNL     1       4.255   7.177  -1.661  0.00  0.00    -0.252 OA
ATOM     14  N   UNL     1       5.197   5.343  -0.912  0.00  0.00    -0.236 N 
ATOM     15  C   UNL     1       5.111   4.068  -0.478  0.00  0.00    +0.256 C 
ATOM     16  O   UNL     1       6.107   3.453  -0.147  0.00  0.00    -0.270 OA
ATOM     17  H   UNL     1       2.123   6.085  -1.529  0.00  0.00    +0.159 HD
ATOM     18  H   UNL     1       6.066   5.770  -0.960  0.00  0.00    +0.159 HD
ENDBRANCH   4   7
BRANCH   1  19
ATOM     19  O   UNL     1      -1.520   0.146   0.961  0.00  0.00    -0.422 OA
BRANCH  19  20
ATOM     20  C   UNL     1      -2.542   0.764   0.336  0.00  0.00    +0.344 C 
ATOM     21  O   UNL     1      -2.335   1.762  -0.325  0.00  0.00    -0.245 OA
BRANCH  20  26
ATOM     22  C   UNL     1      -7.883  -1.325   0.799  0.00  0.00    +0.044 C 
ATOM     23  C   UNL     1      -6.484  -0.777   0.678  0.00  0.00    -0.050 A 
ATOM     24  C   UNL     1      -6.252   0.359  -0.076  0.00  0.00    +0.004 A 
ATOM     25  C   UNL     1      -4.974   0.866  -0.191  0.00  0.00    +0.015 A 
ATOM     26  C   UNL     1      -3.913   0.228   0.455  0.00  0.00    +0.059 A 
ATOM     27  C   UNL     1      -4.153  -0.922   1.210  0.00  0.00    +0.015 A 
ATOM     28  C   UNL     1      -5.437  -1.414   1.322  0.00  0.00    +0.004 A 
ENDBRANCH  20  26
ENDBRANCH  19  20
ENDBRANCH   1  19
TORSDOF 4
