REMARK  Name = ZINC11817895
REMARK  7 active torsions:
REMARK  status: ('A' for Active; 'I' for Inactive)
REMARK    1  A    between atoms: C_4  and  C_7
REMARK    2  A    between atoms: C_7  and  N_8
REMARK    3  A    between atoms: C_10  and  C_13
REMARK    4  A    between atoms: C_13  and  N_14
REMARK    5  A    between atoms: C_15  and  C_17
REMARK    6  A    between atoms: C_17  and  C_18
REMARK    7  A    between atoms: C_25  and  N_62
REMARK                            x       y       z     vdW  Elec       q    Type
REMARK                         _______ _______ _______ _____ _____    ______ ____
ROOT
ATOM      1  C   UNL     1       1.021   2.511   0.526  0.00  0.00    +0.089 C 
ENDROOT
BRANCH   1   2
ATOM      2  C   UNL     1       0.702   3.925   0.035  0.00  0.00    +0.028 C 
ATOM      3  C   UNL     1       1.928   4.785   0.160  0.00  0.00    +0.200 C 
ATOM      4  O   UNL     1       2.600   4.695   1.166  0.00  0.00    -0.278 OA
ATOM      5  N   UNL     1       2.308   5.645  -0.790  0.00  0.00    -0.318 N 
ATOM      6  C   UNL     1       1.590   5.803  -2.051  0.00  0.00    +0.085 C 
ATOM      7  C   UNL     1       0.178   5.226  -1.926  0.00  0.00    -0.058 C 
ATOM      8  H   UNL     1       3.096   6.188  -0.635  0.00  0.00    +0.149 HD
ATOM      9  N   UNL     1       0.291   3.860  -1.380  0.00  0.00    +0.391 N 
ATOM     10  H   UNL     1       1.001   3.343  -1.913  0.00  0.00    -0.080 HD
BRANCH   9  11
ATOM     11  C   UNL     1      -1.007   3.157  -1.500  0.00  0.00    -0.059 C 
ATOM     12  C   UNL     1      -0.790   1.629  -1.485  0.00  0.00    +0.020 C 
ATOM     13  C   UNL     1      -1.824   1.077  -2.447  0.00  0.00    -0.046 A 
ATOM     14  C   UNL     1      -2.305  -0.213  -2.601  0.00  0.00    +0.004 A 
ATOM     15  C   UNL     1      -3.264  -0.487  -3.556  0.00  0.00    +0.000 A 
ATOM     16  C   UNL     1      -3.745   0.528  -4.362  0.00  0.00    +0.000 A 
ATOM     17  C   UNL     1      -3.267   1.814  -4.210  0.00  0.00    +0.004 A 
ATOM     18  C   UNL     1      -2.305   2.091  -3.253  0.00  0.00    -0.046 A 
ATOM     19  C   UNL     1      -1.627   3.396  -2.893  0.00  0.00    +0.020 C 
ENDBRANCH   9  11
ENDBRANCH   1   2
BRANCH   1  21
ATOM     20  N   UNL     1       2.425   0.605  -0.191  0.00  0.00    -0.311 N 
ATOM     21  C   UNL     1       2.058   1.889  -0.373  0.00  0.00    +0.212 C 
ATOM     22  O   UNL     1       2.567   2.546  -1.257  0.00  0.00    -0.276 OA
ATOM     23  H   UNL     1       2.075   0.103   0.562  0.00  0.00    +0.149 HD
BRANCH  20  24
ATOM     24  C   UNL     1       3.351  -0.032  -1.130  0.00  0.00    +0.142 C 
BRANCH  24  27
ATOM     25  N   UNL     1       4.221  -3.348   0.114  0.00  0.00    -0.267 N 
ATOM     26  C   UNL     1       4.421  -2.014   0.065  0.00  0.00    +0.113 A 
ATOM     27  C   UNL     1       3.501  -1.490  -0.777  0.00  0.00    +0.007 A 
ATOM     28  C   UNL     1       2.717  -2.540  -1.266  0.00  0.00    +0.139 A 
ATOM     29  N   UNL     1       3.148  -3.654  -0.733  0.00  0.00    -0.179 NA
BRANCH  25  30
ATOM     30  C   UNL     1       4.994  -4.307   0.908  0.00  0.00    +0.178 C 
BRANCH  30  34
ATOM     31  C   UNL     1       2.345  -6.569   3.380  0.00  0.00    +0.000 A 
ATOM     32  C   UNL     1       2.657  -7.018   2.110  0.00  0.00    +0.000 A 
ATOM     33  C   UNL     1       3.514  -6.285   1.310  0.00  0.00    +0.005 A 
ATOM     34  C   UNL     1       4.059  -5.105   1.780  0.00  0.00    -0.026 A 
ATOM     35  C   UNL     1       3.752  -4.660   3.052  0.00  0.00    +0.005 A 
ATOM     36  C   UNL     1       2.890  -5.389   3.850  0.00  0.00    +0.000 A 
ENDBRANCH  30  34
ENDBRANCH  25  30
ENDBRANCH  24  27
ENDBRANCH  20  24
ENDBRANCH   1  21
TORSDOF 7
