REMARK  Name = ZINC02252799
REMARK  4 active torsions:
REMARK  status: ('A' for Active; 'I' for Inactive)
REMARK    1  A    between atoms: N_13  and  C_16
REMARK    2  A    between atoms: C_16  and  C_17
REMARK    3  A    between atoms: N_24  and  C_27
REMARK    4  A    between atoms: C_27  and  C_28
REMARK                            x       y       z     vdW  Elec       q    Type
REMARK                         _______ _______ _______ _____ _____    ______ ____
ROOT
ATOM      1  C   UNL     1      -1.235   1.746   0.018  0.00  0.00    +0.002 A 
ATOM      2  C   UNL     1      -0.013   1.076   0.008  0.00  0.00    +0.002 A 
ATOM      3  C   UNL     1       1.162   1.762   0.000  0.00  0.00    +0.030 A 
ATOM      4  C   UNL     1       1.150   3.168   0.008  0.00  0.00    +0.092 A 
ATOM      5  C   UNL     1      -0.094   3.850   0.024  0.00  0.00    +0.090 A 
ATOM      6  C   UNL     1      -1.288   3.105   0.031  0.00  0.00    +0.030 A 
ATOM      7  N   UNL     1      -0.120   5.186   0.031  0.00  0.00    -0.241 NA
ATOM      8  C   UNL     1       1.015   5.861   0.023  0.00  0.00    +0.123 A 
ATOM      9  C   UNL     1       1.337   7.294   0.026  0.00  0.00    +0.111 A 
ATOM     10  C   UNL     1       2.733   7.394   0.013  0.00  0.00    +0.151 A 
ATOM     11  N   UNL     1       3.294   8.614   0.014  0.00  0.00    -0.219 NA
ATOM     12  C   UNL     1       2.567   9.697   0.026  0.00  0.00    +0.204 A 
ATOM     13  N   UNL     1       1.214   9.662   0.040  0.00  0.00    -0.294 N 
ATOM     14  C   UNL     1       0.565   8.476   0.040  0.00  0.00    +0.266 A 
ATOM     15  O   UNL     1      -0.653   8.428   0.052  0.00  0.00    -0.267 OA
ATOM     16  N   UNL     1       3.264   6.131   0.002  0.00  0.00    -0.306 N 
ATOM     17  C   UNL     1       2.263   5.181   0.007  0.00  0.00    +0.162 A 
ATOM     18  N   UNL     1       2.293   3.863   0.000  0.00  0.00    -0.226 NA
ENDROOT
BRANCH  13  19
ATOM     19  C   UNL     1       0.450  10.912   0.054  0.00  0.00    +0.161 C 
BRANCH  19  20
ATOM     20  C   UNL     1       0.174  11.348  -1.362  0.00  0.00    -0.028 A 
ATOM     21  C   UNL     1       1.067  12.177  -2.017  0.00  0.00    +0.007 A 
ATOM     22  C   UNL     1       0.817  12.572  -3.317  0.00  0.00    +0.020 A 
ATOM     23  C   UNL     1      -0.332  12.148  -3.960  0.00  0.00    +0.041 A 
ATOM     24  C   UNL     1      -1.228  11.324  -3.303  0.00  0.00    +0.020 A 
ATOM     25  C   UNL     1      -0.974  10.924  -2.004  0.00  0.00    +0.007 A 
ATOM     26 CL   UNL     1      -0.649  12.650  -5.592  0.00  0.00    -0.084 Cl
ENDBRANCH  19  20
ENDBRANCH  13  19
BRANCH  16  27
ATOM     27  C   UNL     1       4.698   5.830  -0.014  0.00  0.00    +0.157 C 
BRANCH  27  28
ATOM     28  C   UNL     1       5.183   5.733  -1.462  0.00  0.00    +0.138 C 
ATOM     29  C   UNL     1       6.665   5.303  -1.490  0.00  0.00    +0.035 C 
ATOM     30  C   UNL     1       7.238   6.169  -2.645  0.00  0.00    +0.031 C 
ATOM     31  C   UNL     1       6.399   7.463  -2.486  0.00  0.00    +0.160 C 
ATOM     32  O   UNL     1       5.092   7.016  -2.092  0.00  0.00    -0.375 OA
ENDBRANCH  27  28
ENDBRANCH  16  27
TORSDOF 4
