REMARK  Name = ZINC38932352
REMARK  7 active torsions:
REMARK  status: ('A' for Active; 'I' for Inactive)
REMARK    1  A    between atoms: C_4  and  C_7
REMARK    2  A    between atoms: C_7  and  C_9
REMARK    3  A    between atoms: C_7  and  S_23
REMARK    4  A    between atoms: C_9  and  C_10
REMARK    5  A    between atoms: C_10  and  C_11
REMARK    6  A    between atoms: C_10  and  C_13
REMARK    7  A    between atoms: S_23  and  C_24
REMARK                            x       y       z     vdW  Elec       q    Type
REMARK                         _______ _______ _______ _____ _____    ______ ____
ROOT
ATOM      1  C   UNL     1       3.816  -1.579   1.188  0.00  0.00    +0.171 C 
ATOM      2  O   UNL     1       3.494  -2.741   1.131  0.00  0.00    -0.294 OA
ENDROOT
BRANCH   1   3
ATOM      3  C   UNL     1       3.711  -0.707  -0.038  0.00  0.00    +0.149 C 
BRANCH   3   7
ATOM      4  C   UNL     1      -0.017   1.378   0.010  0.00  0.00    +0.000 A 
ATOM      5  C   UNL     1       1.171   2.086   0.002  0.00  0.00    +0.000 A 
ATOM      6  C   UNL     1       2.377   1.411  -0.013  0.00  0.00    +0.005 A 
ATOM      7  C   UNL     1       2.396   0.029  -0.020  0.00  0.00    -0.027 A 
ATOM      8  C   UNL     1       1.208  -0.679  -0.012  0.00  0.00    +0.005 A 
ATOM      9  C   UNL     1       0.002  -0.004   0.002  0.00  0.00    +0.000 A 
ENDBRANCH   3   7
BRANCH   3  10
ATOM     10  S   UNL     1       3.806  -1.741  -1.525  0.00  0.00    -0.109 S 
BRANCH  10  11
ATOM     11  C   UNL     1       3.820  -0.581  -2.851  0.00  0.00    +0.009 A 
ATOM     12  C   UNL     1       3.768   0.782  -2.584  0.00  0.00    +0.015 A 
ATOM     13  C   UNL     1       3.779   1.689  -3.626  0.00  0.00    +0.001 A 
ATOM     14  C   UNL     1       3.841   1.242  -4.933  0.00  0.00    +0.000 A 
ATOM     15  C   UNL     1       3.892  -0.114  -5.202  0.00  0.00    +0.001 A 
ATOM     16  C   UNL     1       3.887  -1.026  -4.165  0.00  0.00    +0.015 A 
ENDBRANCH  10  11
ENDBRANCH   3  10
ENDBRANCH   1   3
BRANCH   1  17
ATOM     17  C   UNL     1       4.322  -0.999   2.483  0.00  0.00    +0.201 C 
BRANCH  17  18
ATOM     18  C   UNL     1       5.025  -2.092   3.290  0.00  0.00    +0.199 C 
ATOM     19  N   UNL     1       6.201  -2.581   2.559  0.00  0.00    -0.362 N 
ATOM     20  C   UNL     1       7.246  -2.346   3.300  0.00  0.00    +0.060 A 
ATOM     21  C   UNL     1       8.681  -2.603   3.112  0.00  0.00    +0.027 A 
ATOM     22  C   UNL     1       9.552  -2.242   4.075  0.00  0.00    +0.002 A 
ATOM     23  C   UNL     1       9.147  -1.621   5.270  0.00  0.00    +0.002 A 
ATOM     24  C   UNL     1       7.857  -1.340   5.542  0.00  0.00    +0.027 A 
ATOM     25  C   UNL     1       6.817  -1.689   4.564  0.00  0.00    +0.060 A 
ATOM     26  N   UNL     1       5.524  -1.542   4.557  0.00  0.00    -0.362 N 
ATOM     27  H   UNL     1       6.200  -3.001   1.685  0.00  0.00    +0.162 HD
ATOM     28  H   UNL     1       4.988  -1.141   5.259  0.00  0.00    +0.162 HD
ENDBRANCH  17  18
BRANCH  17  29
ATOM     29  C   UNL     1       3.189  -0.468   3.259  0.00  0.00    +0.078 C 
ATOM     30  N   UNL     1       2.315  -0.059   3.858  0.00  0.00    -0.196 NA
ENDBRANCH  17  29
ENDBRANCH   1  17
TORSDOF 7
