REMARK  Name = ZINC40067001
REMARK  16 active torsions:
REMARK  status: ('A' for Active; 'I' for Inactive)
REMARK    1  A    between atoms: C_1  and  C_2
REMARK    2  A    between atoms: C_2  and  C_3
REMARK    3  A    between atoms: C_3  and  C_4
REMARK    4  A    between atoms: C_4  and  N_5
REMARK    5  A    between atoms: C_6  and  N_27
REMARK    6  A    between atoms: C_7  and  C_15
REMARK    7  A    between atoms: C_8  and  C_14
REMARK    8  A    between atoms: C_9  and  C_12
REMARK    9  A    between atoms: N_19  and  C_23
REMARK   10  A    between atoms: C_23  and  C_24
REMARK   11  A    between atoms: C_24  and  C_25
REMARK   12  A    between atoms: C_24  and  C_26
REMARK   13  A    between atoms: N_27  and  C_28
REMARK   14  A    between atoms: C_28  and  C_29
REMARK   15  A    between atoms: C_32  and  O_35
REMARK   16  A    between atoms: O_35  and  C_36
REMARK                            x       y       z     vdW  Elec       q    Type
REMARK                         _______ _______ _______ _____ _____    ______ ____
ROOT
ATOM      1  N   UNL     1      -2.730  -2.477   0.016  0.00  0.00    -0.295 N 
ATOM      2  C   UNL     1      -3.269  -2.806   1.218  0.00  0.00    +0.109 A 
ATOM      3  C   UNL     1      -4.644  -3.071   1.335  0.00  0.00    +0.019 A 
ATOM      4  C   UNL     1      -5.462  -2.993   0.196  0.00  0.00    -0.017 A 
ATOM      5  C   UNL     1      -4.886  -2.653  -1.025  0.00  0.00    +0.120 A 
ATOM      6  C   UNL     1      -3.493  -2.390  -1.089  0.00  0.00    +0.270 A 
ATOM      7  O   UNL     1      -2.983  -2.087  -2.153  0.00  0.00    -0.266 OA
ATOM      8  C   UNL     1      -6.940  -3.273   0.293  0.00  0.00    +0.046 C 
ENDROOT
BRANCH   3   9
ATOM      9  C   UNL     1      -5.219  -3.427   2.634  0.00  0.00    +0.032 C 
ATOM     10  C   UNL     1      -5.095  -2.576   3.689  0.00  0.00    +0.077 C 
ATOM     11  C   UNL     1      -5.512  -2.743   5.044  0.00  0.00    +0.258 C 
ATOM     12  O   UNL     1      -6.070  -3.763   5.408  0.00  0.00    -0.269 OA
ATOM     13  N   UNL     1      -5.274  -1.757   5.893  0.00  0.00    -0.255 N 
ATOM     14  C   UNL     1      -4.656  -0.626   5.488  0.00  0.00    +0.121 C 
ATOM     15  S   UNL     1      -4.252   0.762   6.405  0.00  0.00    -0.027 S 
ATOM     16  S   UNL     1      -4.360  -0.948   3.756  0.00  0.00    -0.061 S 
BRANCH  13  17
ATOM     17  C   UNL     1      -5.688  -1.893   7.291  0.00  0.00    +0.118 C 
BRANCH  17  18
ATOM     18  C   UNL     1      -4.553  -2.526   8.099  0.00  0.00    +0.001 C 
ATOM     19  C   UNL     1      -4.936  -2.554   9.581  0.00  0.00    +0.009 C 
ATOM     20  C   UNL     1      -4.312  -3.954   7.608  0.00  0.00    +0.009 C 
ENDBRANCH  17  18
ENDBRANCH  13  17
ENDBRANCH   3   9
BRANCH   5  21
ATOM     21  C   UNL     1      -5.692  -2.565  -2.205  0.00  0.00    +0.105 C 
ATOM     22  N   UNL     1      -6.331  -2.496  -3.141  0.00  0.00    -0.191 NA
ENDBRANCH   5  21
BRANCH   2  23
ATOM     23  N   UNL     1      -2.470  -2.880   2.321  0.00  0.00    -0.326 N 
ATOM     24  H   UNL     1      -2.290  -2.083   2.844  0.00  0.00    +0.148 HD
BRANCH  23  25
ATOM     25  C   UNL     1      -1.882  -4.163   2.715  0.00  0.00    +0.138 C 
BRANCH  25  26
ATOM     26  C   UNL     1      -1.059  -3.977   3.963  0.00  0.00    -0.030 A 
ATOM     27  C   UNL     1       0.281  -3.650   3.865  0.00  0.00    +0.009 A 
ATOM     28  C   UNL     1       1.037  -3.479   5.008  0.00  0.00    +0.046 A 
ATOM     29  C   UNL     1       0.451  -3.635   6.256  0.00  0.00    +0.120 A 
ATOM     30  C   UNL     1      -0.893  -3.962   6.352  0.00  0.00    +0.046 A 
ATOM     31  C   UNL     1      -1.647  -4.127   5.206  0.00  0.00    +0.009 A 
BRANCH  29  32
ATOM     32  O   UNL     1       1.193  -3.468   7.382  0.00  0.00    -0.495 OA
ATOM     33  C   UNL     1       0.524  -3.644   8.632  0.00  0.00    +0.277 C 
ENDBRANCH  29  32
ENDBRANCH  25  26
ENDBRANCH  23  25
ENDBRANCH   2  23
BRANCH   1  34
ATOM     34  C   UNL     1      -1.294  -2.205  -0.079  0.00  0.00    +0.126 C 
BRANCH  34  35
ATOM     35  C   UNL     1      -1.026  -0.744   0.284  0.00  0.00    +0.021 C 
BRANCH  35  37
ATOM     36  C   UNL     1       0.751   0.970   0.669  0.00  0.00    +0.004 C 
ATOM     37  C   UNL     1       0.483  -0.492   0.307  0.00  0.00    -0.002 C 
ENDBRANCH  35  37
ENDBRANCH  34  35
ENDBRANCH   1  34
TORSDOF 11
