REMARK  Name = ZINC39686059
REMARK  11 active torsions:
REMARK  status: ('A' for Active; 'I' for Inactive)
REMARK    1  A    between atoms: C_1  and  C_2
REMARK    2  A    between atoms: C_2  and  C_3
REMARK    3  A    between atoms: C_3  and  C_4
REMARK    4  A    between atoms: C_4  and  C_5
REMARK    5  A    between atoms: C_5  and  C_6
REMARK    6  A    between atoms: C_6  and  C_7
REMARK    7  A    between atoms: C_11  and  C_20
REMARK    8  A    between atoms: N_22  and  C_23
REMARK    9  A    between atoms: C_29  and  C_31
REMARK   10  A    between atoms: C_31  and  C_32
REMARK   11  A    between atoms: C_31  and  C_33
REMARK                            x       y       z     vdW  Elec       q    Type
REMARK                         _______ _______ _______ _____ _____    ______ ____
ROOT
ATOM      1  C   UNL     1       2.425  -5.778   4.966  0.00  0.00    +0.216 C 
ATOM      2  O   UNL     1       2.810  -4.844   5.637  0.00  0.00    -0.276 OA
ATOM      3  N   UNL     1       2.931  -7.010   5.171  0.00  0.00    -0.300 N 
ATOM      4  C   UNL     1       2.594  -8.261   4.453  0.00  0.00    +0.121 C 
ATOM      5  C   UNL     1       3.944  -8.995   4.291  0.00  0.00    +0.100 C 
ATOM      6  C   UNL     1       4.831  -8.438   5.418  0.00  0.00    -0.004 C 
ATOM      7  C   UNL     1       3.957  -7.417   6.160  0.00  0.00    +0.115 C 
ATOM      8  C   UNL     1       6.058  -7.747   4.832  0.00  0.00    -0.010 C 
ATOM      9  C   UNL     1       6.952  -7.252   5.973  0.00  0.00    -0.082 C 
ATOM     10  N   UNL     1       7.358  -8.390   6.807  0.00  0.00    +0.379 N 
ATOM     11  C   UNL     1       6.179  -8.993   7.441  0.00  0.00    -0.082 C 
ATOM     12  C   UNL     1       5.252  -9.560   6.362  0.00  0.00    -0.010 C 
ATOM     13  H   UNL     1       7.819  -9.079   6.232  0.00  0.00    -0.086 HD
ATOM     14  H   UNL     1       7.995  -8.071   7.521  0.00  0.00    -0.086 HD
ENDROOT
BRANCH   5  15
ATOM     15  C   UNL     1       4.549  -8.689   2.945  0.00  0.00    +0.218 C 
ATOM     16  O   UNL     1       4.345  -7.616   2.418  0.00  0.00    -0.275 OA
ATOM     17  N   UNL     1       5.318  -9.607   2.327  0.00  0.00    -0.312 N 
ATOM     18  H   UNL     1       5.481 -10.465   2.748  0.00  0.00    +0.149 HD
BRANCH  17  19
ATOM     19  C   UNL     1       5.906  -9.310   1.018  0.00  0.00    +0.076 C 
ATOM     20  C   UNL     1       7.221  -8.551   1.211  0.00  0.00    +0.041 C 
ATOM     21  C   UNL     1       7.815  -8.211  -0.159  0.00  0.00    +0.109 C 
ATOM     22  N   UNL     1       7.942  -9.450  -0.940  0.00  0.00    -0.301 N 
ATOM     23  C   UNL     1       6.757 -10.301  -1.110  0.00  0.00    +0.109 C 
ATOM     24  C   UNL     1       6.174 -10.618   0.271  0.00  0.00    +0.041 C 
ATOM     25  C   UNL     1       9.122  -9.797  -1.490  0.00  0.00    +0.218 C 
ATOM     26  O   UNL     1      10.109  -9.124  -1.282  0.00  0.00    -0.275 OA
BRANCH  25  27
ATOM     27  C   UNL     1       9.215 -11.023  -2.362  0.00  0.00    +0.069 C 
ATOM     28  C   UNL     1       8.717 -10.686  -3.769  0.00  0.00    +0.017 C 
ATOM     29  C   UNL     1      10.671 -11.488  -2.434  0.00  0.00    +0.017 C 
ENDBRANCH  25  27
ENDBRANCH  17  19
ENDBRANCH   5  15
BRANCH   1  30
ATOM     30  C   UNL     1       1.379  -5.560   3.902  0.00  0.00    +0.096 C 
BRANCH  30  31
ATOM     31  C   UNL     1       0.977  -4.084   3.877  0.00  0.00    +0.009 C 
BRANCH  31  32
ATOM     32  C   UNL     1      -0.085  -3.864   2.797  0.00  0.00    +0.000 C 
BRANCH  32  33
ATOM     33  C   UNL     1      -0.487  -2.388   2.772  0.00  0.00    -0.000 C 
BRANCH  33  35
ATOM     34  C   UNL     1      -1.951  -0.691   1.667  0.00  0.00    +0.004 C 
ATOM     35  C   UNL     1      -1.548  -2.167   1.692  0.00  0.00    -0.003 C 
ENDBRANCH  33  35
ENDBRANCH  32  33
ENDBRANCH  31  32
ENDBRANCH  30  31
ENDBRANCH   1  30
TORSDOF 8
