REMARK  Name = ZINC02073825
REMARK  6 active torsions:
REMARK  status: ('A' for Active; 'I' for Inactive)
REMARK    1  A    between atoms: C_4  and  C_7
REMARK    2  A    between atoms: C_7  and  S_8
REMARK    3  A    between atoms: S_8  and  C_9
REMARK    4  A    between atoms: C_22  and  C_25
REMARK    5  A    between atoms: C_28  and  C_30
REMARK    6  A    between atoms: C_34  and  N_36
REMARK                            x       y       z     vdW  Elec       q    Type
REMARK                         _______ _______ _______ _____ _____    ______ ____
ROOT
ATOM      1  C   UNL     1       0.859  -0.290  -1.510  0.00  0.00    +0.213 A 
ATOM      2  N   UNL     1       1.094  -1.539  -1.903  0.00  0.00    -0.184 NA
ATOM      3  C   UNL     1       1.738  -1.749  -3.039  0.00  0.00    +0.248 A 
ATOM      4  C   UNL     1       2.150  -0.634  -3.802  0.00  0.00    +0.156 A 
ATOM      5  N   UNL     1       1.888   0.584  -3.353  0.00  0.00    -0.141 NA
ATOM      6  N   UNL     1       1.256   0.744  -2.242  0.00  0.00    -0.122 NA
ATOM      7  C   UNL     1       2.860  -0.847  -5.081  0.00  0.00    +0.028 A 
ATOM      8  C   UNL     1       4.026  -0.157  -5.390  0.00  0.00    +0.012 A 
ATOM      9  C   UNL     1       4.652  -0.376  -6.601  0.00  0.00    +0.001 A 
ATOM     10  C   UNL     1       4.124  -1.276  -7.511  0.00  0.00    +0.002 A 
ATOM     11  C   UNL     1       2.967  -1.973  -7.214  0.00  0.00    +0.024 A 
ATOM     12  C   UNL     1       2.333  -1.771  -6.003  0.00  0.00    +0.040 A 
ATOM     13  N   UNL     1       1.182  -2.484  -5.655  0.00  0.00    -0.303 N 
ATOM     14  C   UNL     1       1.267  -3.481  -4.592  0.00  0.00    +0.329 C 
ATOM     15  O   UNL     1       2.009  -3.002  -3.476  0.00  0.00    -0.445 OA
ATOM     16  H   UNL     1       0.342  -2.321  -6.112  0.00  0.00    +0.150 HD
ENDROOT
BRANCH  14  17
ATOM     17  C   UNL     1       1.937  -4.718  -5.131  0.00  0.00    +0.165 A 
ATOM     18  C   UNL     1       1.712  -5.979  -4.713  0.00  0.00    +0.051 A 
ATOM     19  C   UNL     1       2.541  -6.823  -5.480  0.00  0.00    +0.050 A 
ATOM     20  C   UNL     1       3.234  -6.021  -6.332  0.00  0.00    +0.136 A 
ATOM     21  O   UNL     1       2.853  -4.748  -6.113  0.00  0.00    -0.454 OA
BRANCH  20  22
ATOM     22  C   UNL     1       4.228  -6.470  -7.329  0.00  0.00    +0.019 A 
ATOM     23  C   UNL     1       4.528  -7.827  -7.459  0.00  0.00    +0.012 A 
ATOM     24  C   UNL     1       5.457  -8.239  -8.392  0.00  0.00    +0.003 A 
ATOM     25  C   UNL     1       6.090  -7.311  -9.199  0.00  0.00    +0.033 A 
ATOM     26  C   UNL     1       5.797  -5.964  -9.076  0.00  0.00    +0.127 A 
ATOM     27  C   UNL     1       4.866  -5.539  -8.150  0.00  0.00    +0.044 A 
BRANCH  26  28
ATOM     28  N   UNL     1       6.479  -4.978  -9.944  0.00  0.00    +0.056 N 
ATOM     29  O   UNL     1       7.298  -5.352 -10.764  0.00  0.00    -0.126 OA
ATOM     30  O   UNL     1       6.223  -3.792  -9.836  0.00  0.00    -0.126 OA
ENDBRANCH  26  28
ENDBRANCH  20  22
ENDBRANCH  14  17
BRANCH   1  31
ATOM     31  S   UNL     1       0.002  -0.004   0.002  0.00  0.00    -0.080 S 
BRANCH  31  32
ATOM     32  C   UNL     1      -0.022   1.806   0.012  0.00  0.00    +0.112 C 
BRANCH  32  36
ATOM     33  C   UNL     1      -2.022   3.184   3.526  0.00  0.00    +0.000 A 
ATOM     34  C   UNL     1      -0.656   2.972   3.546  0.00  0.00    +0.000 A 
ATOM     35  C   UNL     1      -0.009   2.526   2.409  0.00  0.00    +0.004 A 
ATOM     36  C   UNL     1      -0.728   2.292   1.252  0.00  0.00    -0.037 A 
ATOM     37  C   UNL     1      -2.093   2.509   1.230  0.00  0.00    +0.004 A 
ATOM     38  C   UNL     1      -2.741   2.950   2.369  0.00  0.00    +0.000 A 
ENDBRANCH  32  36
ENDBRANCH  31  32
ENDBRANCH   1  31
TORSDOF 6
