REMARK  Name = ZINC00711743
REMARK  5 active torsions:
REMARK  status: ('A' for Active; 'I' for Inactive)
REMARK    1  A    between atoms: C_9  and  C_12
REMARK    2  A    between atoms: N_14  and  N_15
REMARK    3  A    between atoms: C_16  and  C_17
REMARK    4  A    between atoms: C_20  and  O_25
REMARK    5  A    between atoms: C_22  and  O_23
REMARK                            x       y       z     vdW  Elec       q    Type
REMARK                         _______ _______ _______ _____ _____    ______ ____
ROOT
ATOM      1  C   UNL     1      -1.210   7.309   0.025  0.00  0.00    +0.276 C 
ATOM      2  O   UNL     1      -0.256   7.742  -0.587  0.00  0.00    -0.270 OA
ATOM      3  N   UNL     1      -2.222   8.132   0.364  0.00  0.00    -0.204 N 
ATOM      4  H   UNL     1      -2.985   7.786   0.854  0.00  0.00    +0.177 HD
ENDROOT
BRANCH   1  13
ATOM      5  C   UNL     1      -0.013   1.076   0.008  0.00  0.00    +0.004 A 
ATOM      6  C   UNL     1       1.176   1.782   0.000  0.00  0.00    +0.004 A 
ATOM      7  C   UNL     1       1.161   3.164   0.007  0.00  0.00    +0.049 A 
ATOM      8  C   UNL     1      -0.046   3.846   0.020  0.00  0.00    +0.163 A 
ATOM      9  C   UNL     1      -1.241   3.136   0.030  0.00  0.00    +0.162 A 
ATOM     10  C   UNL     1      -1.219   1.749   0.017  0.00  0.00    +0.049 A 
ATOM     11  O   UNL     1      -2.437   3.785   0.048  0.00  0.00    -0.484 OA
ATOM     12  C   UNL     1      -2.424   5.167  -0.326  0.00  0.00    +0.283 C 
ATOM     13  C   UNL     1      -1.263   5.852   0.407  0.00  0.00    +0.297 C 
ATOM     14  O   UNL     1      -0.045   5.207   0.019  0.00  0.00    -0.472 OA
ENDBRANCH   1  13
BRANCH   3  15
ATOM     15  N   UNL     1      -2.173   9.486   0.009  0.00  0.00    -0.187 NA
ATOM     16  C   UNL     1      -3.148  10.279   0.336  0.00  0.00    +0.142 C 
BRANCH  16  17
ATOM     17  C   UNL     1      -3.097  11.703  -0.037  0.00  0.00    +0.038 A 
ATOM     18  C   UNL     1      -4.145  12.558   0.313  0.00  0.00    +0.032 A 
ATOM     19  C   UNL     1      -4.093  13.890  -0.038  0.00  0.00    +0.061 A 
ATOM     20  C   UNL     1      -2.999  14.387  -0.739  0.00  0.00    +0.148 A 
ATOM     21  C   UNL     1      -1.953  13.546  -1.090  0.00  0.00    +0.102 A 
ATOM     22  C   UNL     1      -1.993  12.207  -0.740  0.00  0.00    +0.143 A 
ATOM     23 BR   UNL     1      -0.470  14.229  -2.043  0.00  0.00    -0.043 Br
ATOM     24 BR   UNL     1      -5.512  15.046   0.437  0.00  0.00    -0.046 Br
BRANCH  22  25
ATOM     25  O   UNL     1      -0.968  11.383  -1.079  0.00  0.00    -0.505 OA
ATOM     26  H   UNL     1      -1.073  10.959  -1.942  0.00  0.00    +0.292 HD
ENDBRANCH  22  25
BRANCH  20  27
ATOM     27  O   UNL     1      -2.954  15.701  -1.080  0.00  0.00    -0.504 OA
ATOM     28  H   UNL     1      -2.536  16.266  -0.416  0.00  0.00    +0.292 HD
ENDBRANCH  20  27
ENDBRANCH  16  17
ENDBRANCH   3  15
TORSDOF 5
