REMARK  Name = ZINC67562455
REMARK  9 active torsions:
REMARK  status: ('A' for Active; 'I' for Inactive)
REMARK    1  A    between atoms: C_1  and  O_2
REMARK    2  A    between atoms: O_2  and  C_3
REMARK    3  A    between atoms: C_6  and  C_9
REMARK    4  A    between atoms: C_10  and  C_15
REMARK    5  A    between atoms: C_15  and  N_16
REMARK    6  A    between atoms: N_19  and  C_22
REMARK    7  A    between atoms: N_30  and  C_33
REMARK    8  A    between atoms: C_33  and  C_34
REMARK    9  A    between atoms: C_34  and  O_40
REMARK                            x       y       z     vdW  Elec       q    Type
REMARK                         _______ _______ _______ _____ _____    ______ ____
ROOT
ATOM      1  N   UNL     1       2.293  -5.365  -2.827  0.00  0.00    -0.295 NA
ATOM      2  C   UNL     1       2.064  -6.344  -3.898  0.00  0.00    +0.103 C 
ATOM      3  C   UNL     1       0.726  -7.053  -3.661  0.00  0.00    +0.120 C 
ATOM      4  N   UNL     1       0.728  -7.610  -2.300  0.00  0.00    -0.327 N 
ATOM      5  C   UNL     1       1.083  -6.720  -1.184  0.00  0.00    +0.120 C 
ATOM      6  C   UNL     1       2.407  -6.024  -1.519  0.00  0.00    +0.103 C 
ENDROOT
BRANCH   4   7
ATOM      7  C   UNL     1       0.402  -8.939  -2.074  0.00  0.00    +0.043 A 
ATOM      8  C   UNL     1       1.399  -9.918  -2.080  0.00  0.00    +0.024 A 
ATOM      9  C   UNL     1       1.078 -11.240  -1.856  0.00  0.00    +0.003 A 
ATOM     10  C   UNL     1      -0.237 -11.618  -1.622  0.00  0.00    +0.014 A 
ATOM     11  C   UNL     1      -1.239 -10.664  -1.611  0.00  0.00    +0.051 A 
ATOM     12  C   UNL     1      -0.920  -9.307  -1.834  0.00  0.00    +0.070 A 
ATOM     13  C   UNL     1      -2.194  -8.573  -1.749  0.00  0.00    +0.256 C 
ATOM     14  O   UNL     1      -2.331  -7.374  -1.891  0.00  0.00    -0.269 OA
ATOM     15  N   UNL     1      -3.180  -9.450  -1.488  0.00  0.00    -0.231 N 
ATOM     16  C   UNL     1      -2.701 -10.705  -1.401  0.00  0.00    +0.254 C 
ATOM     17  O   UNL     1      -3.359 -11.701  -1.175  0.00  0.00    -0.270 OA
BRANCH  15  18
ATOM     18  C   UNL     1      -4.591  -9.088  -1.334  0.00  0.00    +0.151 C 
BRANCH  18  19
ATOM     19  C   UNL     1      -5.286  -9.153  -2.695  0.00  0.00    +0.082 C 
ATOM     20  C   UNL     1      -4.536  -8.269  -3.693  0.00  0.00    +0.036 C 
ATOM     21  C   UNL     1      -5.232  -8.334  -5.055  0.00  0.00    +0.003 C 
ATOM     22  C   UNL     1      -6.672  -7.837  -4.915  0.00  0.00    +0.000 C 
ATOM     23  C   UNL     1      -7.422  -8.721  -3.917  0.00  0.00    +0.003 C 
ATOM     24  C   UNL     1      -6.727  -8.656  -2.556  0.00  0.00    +0.036 C 
BRANCH  19  25
ATOM     25  O   UNL     1      -5.291 -10.503  -3.164  0.00  0.00    -0.387 OA
ATOM     26  H   UNL     1      -4.410 -10.884  -3.276  0.00  0.00    +0.210 HD
ENDBRANCH  19  25
ENDBRANCH  18  19
ENDBRANCH  15  18
ENDBRANCH   4   7
BRANCH   1  27
ATOM     27  C   UNL     1       3.478  -4.545  -3.108  0.00  0.00    +0.123 C 
BRANCH  27  29
ATOM     28  C   UNL     1       2.494  -2.495  -4.367  0.00  0.00    +0.097 A 
ATOM     29  C   UNL     1       3.225  -3.698  -4.329  0.00  0.00    +0.012 A 
ATOM     30  C   UNL     1       3.659  -3.959  -5.582  0.00  0.00    +0.110 A 
ATOM     31  N   UNL     1       3.226  -2.966  -6.388  0.00  0.00    -0.284 N 
ATOM     32  H   UNL     1       3.391  -2.894  -7.341  0.00  0.00    +0.188 HD
ATOM     33  N   UNL     1       2.494  -2.060  -5.610  0.00  0.00    -0.174 NA
BRANCH  28  37
ATOM     34  C   UNL     1       0.606  -0.607  -1.056  0.00  0.00    +0.120 A 
ATOM     35  C   UNL     1       1.172   0.164  -2.062  0.00  0.00    +0.046 A 
ATOM     36  C   UNL     1       1.785  -0.446  -3.136  0.00  0.00    +0.013 A 
ATOM     37  C   UNL     1       1.836  -1.836  -3.212  0.00  0.00    +0.003 A 
ATOM     38  C   UNL     1       1.266  -2.607  -2.200  0.00  0.00    +0.013 A 
ATOM     39  C   UNL     1       0.659  -1.992  -1.125  0.00  0.00    +0.046 A 
BRANCH  34  41
ATOM     40  C   UNL     1      -0.017   1.425   0.010  0.00  0.00    +0.277 C 
ATOM     41  O   UNL     1       0.002  -0.004   0.002  0.00  0.00    -0.495 OA
ENDBRANCH  34  41
ENDBRANCH  28  37
ENDBRANCH  27  29
ENDBRANCH   1  27
TORSDOF 8
