REMARK  Name = ZINC13645079
REMARK  9 active torsions:
REMARK  status: ('A' for Active; 'I' for Inactive)
REMARK    1  A    between atoms: C_1  and  C_2
REMARK    2  A    between atoms: C_2  and  C_3
REMARK    3  A    between atoms: C_2  and  C_4
REMARK    4  A    between atoms: C_2  and  N_5
REMARK    5  A    between atoms: C_6  and  C_8
REMARK    6  A    between atoms: C_21  and  C_24
REMARK    7  A    between atoms: C_27  and  N_30
REMARK    8  A    between atoms: N_30  and  C_31
REMARK    9  A    between atoms: N_30  and  C_32
REMARK                            x       y       z     vdW  Elec       q    Type
REMARK                         _______ _______ _______ _____ _____    ______ ____
ROOT
ATOM      1  C   UNL     1      -5.047   5.266   0.734  0.00  0.00    +0.037 A 
ATOM      2  C   UNL     1      -5.147   4.980  -0.631  0.00  0.00    +0.015 A 
ATOM      3  C   UNL     1      -4.639   3.797  -1.115  0.00  0.00    +0.024 A 
ATOM      4  C   UNL     1      -4.029   2.890  -0.251  0.00  0.00    +0.031 A 
ATOM      5  C   UNL     1      -3.926   3.164   1.108  0.00  0.00    -0.019 A 
ATOM      6  C   UNL     1      -4.437   4.354   1.595  0.00  0.00    +0.019 A 
ATOM      7  C   UNL     1      -3.282   2.215   2.069  0.00  0.00    +0.049 C 
ATOM      8  C   UNL     1      -1.915   2.702   2.489  0.00  0.00    -0.023 C 
ATOM      9  C   UNL     1      -1.097   1.688   2.631  0.00  0.00    -0.030 C 
ATOM     10  C   UNL     1      -1.809   0.384   2.330  0.00  0.00    +0.033 C 
ATOM     11  C   UNL     1      -3.019   0.826   1.456  0.00  0.00    +0.029 C 
ATOM     12  C   UNL     1      -2.513   0.976   0.019  0.00  0.00    +0.105 C 
ATOM     13  N   UNL     1      -3.519   1.700  -0.765  0.00  0.00    -0.336 N 
ATOM     14  H   UNL     1      -3.822   1.359  -1.621  0.00  0.00    +0.147 HD
ENDROOT
BRANCH  12  15
ATOM     15  C   UNL     1      -1.220   1.750   0.017  0.00  0.00    -0.027 A 
ATOM     16  C   UNL     1      -1.241   3.129  -0.082  0.00  0.00    +0.007 A 
ATOM     17  C   UNL     1      -0.058   3.842  -0.077  0.00  0.00    +0.023 A 
ATOM     18  C   UNL     1       1.154   3.171   0.021  0.00  0.00    +0.029 A 
ATOM     19  C   UNL     1       1.172   1.785   0.115  0.00  0.00    +0.023 A 
ATOM     20  C   UNL     1      -0.014   1.079   0.110  0.00  0.00    +0.007 A 
BRANCH  18  21
ATOM     21  N   UNL     1       2.353   3.889   0.027  0.00  0.00    -0.336 N 
ATOM     22  C   UNL     1       2.332   5.350  -0.072  0.00  0.00    +0.129 C 
ATOM     23  C   UNL     1       3.631   3.180   0.131  0.00  0.00    +0.129 C 
ENDBRANCH  18  21
ENDBRANCH  12  15
BRANCH   1  25
ATOM     24  N   UNL     1      -6.177   7.414   0.433  0.00  0.00    -0.307 N 
ATOM     25  C   UNL     1      -5.588   6.532   1.264  0.00  0.00    +0.244 C 
ATOM     26  O   UNL     1      -5.501   6.781   2.451  0.00  0.00    -0.270 OA
ATOM     27  H   UNL     1      -6.246   7.215  -0.514  0.00  0.00    +0.150 HD
BRANCH  24  29
ATOM     28  C   UNL     1      -5.585   9.474   1.609  0.00  0.00    +0.031 C 
ATOM     29  C   UNL     1      -6.714   8.671   0.959  0.00  0.00    +0.026 C 
ATOM     30  C   UNL     1      -7.324   9.483  -0.185  0.00  0.00    +0.031 C 
ATOM     31  C   UNL     1      -7.792   8.369   2.002  0.00  0.00    +0.031 C 
ENDBRANCH  24  29
ENDBRANCH   1  25
TORSDOF 4
