REMARK  Name = ZINC21244083
REMARK  9 active torsions:
REMARK  status: ('A' for Active; 'I' for Inactive)
REMARK    1  A    between atoms: C_1  and  C_2
REMARK    2  A    between atoms: C_2  and  O_4
REMARK    3  A    between atoms: O_4  and  C_5
REMARK    4  A    between atoms: C_8  and  C_13
REMARK    5  A    between atoms: C_10  and  O_11
REMARK    6  A    between atoms: O_11  and  C_12
REMARK    7  A    between atoms: C_18  and  C_23
REMARK    8  A    between atoms: C_27  and  O_29
REMARK    9  A    between atoms: O_29  and  C_30
REMARK                            x       y       z     vdW  Elec       q    Type
REMARK                         _______ _______ _______ _____ _____    ______ ____
ROOT
ATOM      1  C   UNL     1       3.237   1.308  -1.303  0.00  0.00    +0.136 C 
ATOM      2  C   UNL     1       3.799   2.688  -1.550  0.00  0.00    +0.036 C 
ATOM      3  C   UNL     1       3.421   3.817  -0.925  0.00  0.00    +0.017 C 
ATOM      4  C   UNL     1       4.079   5.143  -1.267  0.00  0.00    +0.059 C 
ATOM      5  C   UNL     1       4.478   5.162  -2.742  0.00  0.00    +0.032 C 
ATOM      6  C   UNL     1       5.458   4.006  -2.974  0.00  0.00    +0.088 C 
ATOM      7  C   UNL     1       4.800   2.728  -2.549  0.00  0.00    +0.163 C 
ATOM      8  O   UNL     1       5.139   1.689  -3.081  0.00  0.00    -0.292 OA
ATOM      9  N   UNL     1       2.470   3.884   0.040  0.00  0.00    -0.316 N 
ATOM     10  C   UNL     1       1.223   3.275  -0.028  0.00  0.00    +0.052 A 
ATOM     11  C   UNL     1       0.045   4.001  -0.059  0.00  0.00    +0.025 A 
ATOM     12  C   UNL     1      -1.166   3.330  -0.064  0.00  0.00    +0.002 A 
ATOM     13  C   UNL     1      -1.198   1.947  -0.045  0.00  0.00    +0.002 A 
ATOM     14  C   UNL     1      -0.021   1.220  -0.026  0.00  0.00    +0.025 A 
ATOM     15  C   UNL     1       1.192   1.888  -0.037  0.00  0.00    +0.049 A 
ATOM     16  N   UNL     1       2.402   1.200  -0.126  0.00  0.00    -0.331 N 
ATOM     17  H   UNL     1       2.661   4.453   0.962  0.00  0.00    +0.152 HD
ATOM     18  H   UNL     1       2.719   0.568   0.717  0.00  0.00    +0.147 HD
ENDROOT
BRANCH   1  22
ATOM     19  C   UNL     1       0.922   0.163  -4.712  0.00  0.00    +0.173 A 
ATOM     20  C   UNL     1       0.542   1.254  -3.947  0.00  0.00    +0.050 A 
ATOM     21  C   UNL     1       1.292   1.622  -2.846  0.00  0.00    +0.009 A 
ATOM     22  C   UNL     1       2.422   0.903  -2.505  0.00  0.00    -0.019 A 
ATOM     23  C   UNL     1       2.810  -0.184  -3.265  0.00  0.00    +0.055 A 
ATOM     24  C   UNL     1       2.059  -0.561  -4.367  0.00  0.00    +0.163 A 
BRANCH  24  25
ATOM     25  O   UNL     1       2.437  -1.633  -5.114  0.00  0.00    -0.491 OA
ATOM     26  C   UNL     1       3.615  -2.329  -4.702  0.00  0.00    +0.277 C 
ENDBRANCH  24  25
BRANCH  19  27
ATOM     27  O   UNL     1       0.185  -0.200  -5.796  0.00  0.00    -0.422 OA
BRANCH  27  29
ATOM     28  C   UNL     1      -1.524  -1.683  -6.785  0.00  0.00    +0.136 C 
ATOM     29  C   UNL     1      -0.749  -1.146  -5.609  0.00  0.00    +0.309 C 
ATOM     30  O   UNL     1      -0.969  -1.566  -4.497  0.00  0.00    -0.251 OA
ENDBRANCH  27  29
ENDBRANCH  19  27
ENDBRANCH   1  22
BRANCH   5  31
ATOM     31  C   UNL     1       5.144   6.472  -3.075  0.00  0.00    -0.040 A 
ATOM     32  C   UNL     1       6.282   6.862  -2.392  0.00  0.00    +0.004 A 
ATOM     33  C   UNL     1       6.895   8.063  -2.695  0.00  0.00    +0.004 A 
ATOM     34  C   UNL     1       6.374   8.876  -3.683  0.00  0.00    +0.045 A 
ATOM     35  C   UNL     1       5.233   8.487  -4.370  0.00  0.00    +0.120 A 
ATOM     36  C   UNL     1       4.622   7.279  -4.067  0.00  0.00    +0.049 A 
BRANCH  35  37
ATOM     37  O   UNL     1       4.719   9.285  -5.343  0.00  0.00    -0.495 OA
ATOM     38  C   UNL     1       5.404  10.511  -5.605  0.00  0.00    +0.277 C 
ENDBRANCH  35  37
ENDBRANCH   5  31
TORSDOF 6
