REMARK  Name = ZINC39573326
REMARK  8 active torsions:
REMARK  status: ('A' for Active; 'I' for Inactive)
REMARK    1  A    between atoms: C_4  and  N_7
REMARK    2  A    between atoms: C_8  and  C_28
REMARK    3  A    between atoms: C_11  and  S_12
REMARK    4  A    between atoms: S_12  and  C_13
REMARK    5  A    between atoms: C_13  and  C_14
REMARK    6  A    between atoms: C_14  and  C_16
REMARK    7  A    between atoms: C_16  and  C_26
REMARK    8  A    between atoms: C_28  and  N_29
REMARK                            x       y       z     vdW  Elec       q    Type
REMARK                         _______ _______ _______ _____ _____    ______ ____
ROOT
ATOM      1  N   UNL     1       3.624  -0.653  -0.036  0.00  0.00    -0.276 N 
ATOM      2  C   UNL     1       4.115  -1.449  -1.037  0.00  0.00    +0.122 A 
ATOM      3  N   UNL     1       5.279  -1.886  -0.648  0.00  0.00    -0.135 NA
ATOM      4  N   UNL     1       5.558  -1.426   0.519  0.00  0.00    -0.122 NA
ATOM      5  C   UNL     1       4.580  -0.658   0.942  0.00  0.00    +0.196 A 
ENDROOT
BRANCH   1   9
ATOM      6  C   UNL     1      -0.017   1.379   0.010  0.00  0.00    +0.000 A 
ATOM      7  C   UNL     1       1.170   2.089   0.002  0.00  0.00    +0.002 A 
ATOM      8  C   UNL     1       2.377   1.419  -0.013  0.00  0.00    +0.026 A 
ATOM      9  C   UNL     1       2.399   0.031  -0.021  0.00  0.00    +0.050 A 
ATOM     10  C   UNL     1       1.207  -0.680  -0.013  0.00  0.00    +0.026 A 
ATOM     11  C   UNL     1       0.002  -0.004   0.002  0.00  0.00    +0.002 A 
ENDBRANCH   1   9
BRANCH   5  12
ATOM     12  S   UNL     1       4.512   0.200   2.479  0.00  0.00    -0.078 S 
BRANCH  12  13
ATOM     13  C   UNL     1       6.076  -0.229   3.291  0.00  0.00    +0.157 C 
BRANCH  13  14
ATOM     14  C   UNL     1       6.147   0.449   4.635  0.00  0.00    +0.186 C 
ATOM     15  O   UNL     1       5.230   1.154   5.009  0.00  0.00    -0.290 OA
BRANCH  14  16
ATOM     16  C   UNL     1       7.272   0.266   5.456  0.00  0.00    +0.123 C 
ATOM     17  C   UNL     1       7.338   0.900   6.711  0.00  0.00    +0.091 C 
ATOM     18  N   UNL     1       6.413   1.709   7.284  0.00  0.00    -0.307 N 
ATOM     19  C   UNL     1       6.649   2.246   8.534  0.00  0.00    +0.046 A 
ATOM     20  C   UNL     1       5.839   3.096   9.301  0.00  0.00    +0.024 A 
ATOM     21  C   UNL     1       6.253   3.531  10.538  0.00  0.00    +0.002 A 
ATOM     22  C   UNL     1       7.476   3.145  11.061  0.00  0.00    +0.001 A 
ATOM     23  C   UNL     1       8.294   2.306  10.325  0.00  0.00    +0.017 A 
ATOM     24  C   UNL     1       7.881   1.871   9.088  0.00  0.00    +0.035 A 
ATOM     25  S   UNL     1       8.579   0.819   7.842  0.00  0.00    -0.071 S 
ATOM     26  H   UNL     1       5.587   1.910   6.817  0.00  0.00    +0.153 HD
BRANCH  16  27
ATOM     27  C   UNL     1       8.352  -0.564   5.015  0.00  0.00    +0.105 C 
ATOM     28  N   UNL     1       9.209  -1.223   4.665  0.00  0.00    -0.191 NA
ENDBRANCH  16  27
ENDBRANCH  14  16
ENDBRANCH  13  14
ENDBRANCH  12  13
ENDBRANCH   5  12
BRANCH   2  29
ATOM     29  C   UNL     1       3.434  -1.762  -2.345  0.00  0.00    -0.001 C 
BRANCH  29  30
ATOM     30  N   UNL     1       3.819  -0.762  -3.349  0.00  0.00    +0.384 N 
ATOM     31  C   UNL     1       5.259  -0.868  -3.616  0.00  0.00    -0.078 C 
ATOM     32  C   UNL     1       5.681   0.225  -4.601  0.00  0.00    -0.019 C 
ATOM     33  C   UNL     1       4.904   0.053  -5.909  0.00  0.00    -0.004 C 
ATOM     34  C   UNL     1       3.402   0.091  -5.608  0.00  0.00    -0.019 C 
ATOM     35  C   UNL     1       3.065  -0.997  -4.586  0.00  0.00    -0.078 C 
ATOM     36  H   UNL     1       3.611   0.162  -3.000  0.00  0.00    -0.081 HD
ENDBRANCH  29  30
ENDBRANCH   2  29
TORSDOF 8
