REMARK  Name = ZINC44973635
REMARK  6 active torsions:
REMARK  status: ('A' for Active; 'I' for Inactive)
REMARK    1  A    between atoms: C_1  and  C_2
REMARK    2  A    between atoms: C_2  and  C_34
REMARK    3  A    between atoms: C_6  and  C_25
REMARK    4  A    between atoms: C_11  and  S_15
REMARK    5  A    between atoms: S_15  and  C_16
REMARK    6  A    between atoms: C_16  and  C_17
REMARK                            x       y       z     vdW  Elec       q    Type
REMARK                         _______ _______ _______ _____ _____    ______ ____
ROOT
ATOM      1  C   UNL     1      -0.019   1.526   0.010  0.00  0.00    +0.011 C 
ATOM      2  C   UNL     1       0.002  -0.004   0.002  0.00  0.00    -0.023 C 
ATOM      3  C   UNL     1      -1.431  -0.539   0.039  0.00  0.00    +0.058 C 
ATOM      4  C   UNL     1      -1.409  -2.048   0.079  0.00  0.00    +0.017 C 
ATOM      5  C   UNL     1      -0.397  -2.713   0.677  0.00  0.00    +0.024 C 
ATOM      6  C   UNL     1      -0.374  -4.219   0.735  0.00  0.00    +0.091 C 
ATOM      7  C   UNL     1      -1.309  -4.820  -0.271  0.00  0.00    +0.044 A 
ATOM      8  C   UNL     1      -1.192  -6.158  -0.638  0.00  0.00    +0.126 A 
ATOM      9  N   UNL     1      -2.044  -6.656  -1.532  0.00  0.00    -0.207 NA
ATOM     10  C   UNL     1      -2.988  -5.896  -2.068  0.00  0.00    +0.192 A 
ATOM     11  N   UNL     1      -3.126  -4.619  -1.741  0.00  0.00    -0.206 NA
ATOM     12  C   UNL     1      -2.309  -4.056  -0.855  0.00  0.00    +0.133 A 
ATOM     13  N   UNL     1      -2.443  -2.721  -0.511  0.00  0.00    -0.302 N 
ATOM     14  N   UNL     1      -0.206  -6.958  -0.082  0.00  0.00    -0.343 N 
ATOM     15  C   UNL     1       0.675  -2.019   1.266  0.00  0.00    +0.162 C 
ATOM     16  O   UNL     1       1.565  -2.646   1.804  0.00  0.00    -0.292 OA
ATOM     17  C   UNL     1       0.742  -0.517   1.242  0.00  0.00    +0.086 C 
ATOM     18  C   UNL     1       0.706  -0.503  -1.262  0.00  0.00    +0.011 C 
ATOM     19  H   UNL     1      -3.277  -2.260  -0.691  0.00  0.00    +0.153 HD
ATOM     20  H   UNL     1       0.410  -6.587   0.568  0.00  0.00    +0.144 HD
ATOM     21  H   UNL     1      -0.133  -7.889  -0.344  0.00  0.00    +0.144 HD
ENDROOT
BRANCH   6  22
ATOM     22  C   UNL     1      -0.783  -4.665   2.115  0.00  0.00    -0.032 A 
ATOM     23  C   UNL     1      -2.030  -4.339   2.626  0.00  0.00    +0.024 A 
ATOM     24  C   UNL     1      -2.371  -4.766   3.895  0.00  0.00    +0.111 A 
ATOM     25  N   UNL     1      -1.526  -5.475   4.618  0.00  0.00    -0.263 NA
ATOM     26  C   UNL     1      -0.332  -5.804   4.165  0.00  0.00    +0.111 A 
ATOM     27  C   UNL     1       0.076  -5.417   2.902  0.00  0.00    +0.024 A 
ENDBRANCH   6  22
BRANCH  10  28
ATOM     28  S   UNL     1      -4.091  -6.603  -3.246  0.00  0.00    -0.081 S 
BRANCH  28  29
ATOM     29  C   UNL     1      -3.543  -8.327  -3.381  0.00  0.00    +0.112 C 
BRANCH  29  30
ATOM     30  C   UNL     1      -4.415  -9.055  -4.372  0.00  0.00    -0.037 A 
ATOM     31  C   UNL     1      -5.565  -9.691  -3.943  0.00  0.00    +0.007 A 
ATOM     32  C   UNL     1      -6.365 -10.358  -4.851  0.00  0.00    +0.038 A 
ATOM     33  C   UNL     1      -6.015 -10.390  -6.190  0.00  0.00    +0.123 A 
ATOM     34  C   UNL     1      -4.863  -9.753  -6.618  0.00  0.00    +0.038 A 
ATOM     35  C   UNL     1      -4.067  -9.082  -5.710  0.00  0.00    +0.007 A 
ATOM     36  F   UNL     1      -6.796 -11.043  -7.078  0.00  0.00    -0.205 F 
ENDBRANCH  29  30
ENDBRANCH  28  29
ENDBRANCH  10  28
TORSDOF 4
