REMARK  Name = ZINC45920562
REMARK  3 active torsions:
REMARK  status: ('A' for Active; 'I' for Inactive)
REMARK    1  A    between atoms: C_8  and  C_10
REMARK    2  A    between atoms: C_12  and  N_17
REMARK    3  A    between atoms: C_15  and  O_16
REMARK                            x       y       z     vdW  Elec       q    Type
REMARK                         _______ _______ _______ _____ _____    ______ ____
ROOT
ATOM      1  C   UNL     1       2.983  -4.021  -0.050  0.00  0.00    +0.050 A 
ATOM      2  C   UNL     1       4.326  -4.399  -0.060  0.00  0.00    +0.040 A 
ATOM      3  C   UNL     1       4.665  -5.741  -0.071  0.00  0.00    +0.050 A 
ATOM      4  C   UNL     1       3.670  -6.712  -0.073  0.00  0.00    +0.030 A 
ATOM      5  C   UNL     1       2.339  -6.345  -0.065  0.00  0.00    +0.048 A 
ATOM      6  C   UNL     1       1.986  -5.004  -0.047  0.00  0.00    +0.127 A 
ENDROOT
BRANCH   1  14
ATOM      7  C   UNL     1      -0.016   1.355   0.009  0.00  0.00    +0.002 A 
ATOM      8  C   UNL     1       1.155   2.100   0.002  0.00  0.00    +0.001 A 
ATOM      9  C   UNL     1       2.373   1.447  -0.013  0.00  0.00    +0.017 A 
ATOM     10  C   UNL     1       2.403   0.074  -0.020  0.00  0.00    +0.040 A 
ATOM     11  C   UNL     1       1.227  -0.713  -0.013  0.00  0.00    +0.079 A 
ATOM     12  C   UNL     1       0.002  -0.004   0.002  0.00  0.00    +0.029 A 
ATOM     13  N   UNL     1       1.417  -2.047  -0.023  0.00  0.00    -0.239 NA
ATOM     14  C   UNL     1       2.615  -2.590  -0.038  0.00  0.00    +0.113 A 
ATOM     15  S   UNL     1       3.683  -1.157  -0.040  0.00  0.00    -0.067 S 
ENDBRANCH   1  14
BRANCH   3  16
ATOM     16  N   UNL     1       6.016  -6.123  -0.082  0.00  0.00    -0.288 N 
ATOM     17  C   UNL     1       7.102  -5.301  -0.075  0.00  0.00    +0.229 A 
ATOM     18  N   UNL     1       8.163  -6.062  -0.089  0.00  0.00    -0.138 NA
ATOM     19  N   UNL     1       7.813  -7.299  -0.103  0.00  0.00    -0.138 NA
ATOM     20  C   UNL     1       6.511  -7.392  -0.093  0.00  0.00    +0.229 A 
ENDBRANCH   3  16
BRANCH   6  21
ATOM     21  O   UNL     1       0.676  -4.645  -0.031  0.00  0.00    -0.506 OA
ATOM     22  H   UNL     1       0.288  -4.535  -0.910  0.00  0.00    +0.292 HD
ENDBRANCH   6  21
TORSDOF 3
