REMARK  Name = ZINC44356379
REMARK  6 active torsions:
REMARK  status: ('A' for Active; 'I' for Inactive)
REMARK    1  A    between atoms: N_5  and  N_6
REMARK    2  A    between atoms: N_6  and  C_7
REMARK    3  A    between atoms: C_7  and  N_9
REMARK    4  A    between atoms: N_16  and  N_17
REMARK    5  A    between atoms: N_17  and  C_18
REMARK    6  A    between atoms: C_18  and  N_20
REMARK                            x       y       z     vdW  Elec       q    Type
REMARK                         _______ _______ _______ _____ _____    ______ ____
ROOT
ATOM      1  C   UNL     1       0.469   1.867  -0.475  0.00  0.00    +0.015 C 
ATOM      2  C   UNL     1       1.914   2.256  -0.766  0.00  0.00    +0.036 C 
ATOM      3  C   UNL     1       2.808   1.906   0.399  0.00  0.00    +0.040 C 
ATOM      4  N   UNL     1       3.285   2.834   1.149  0.00  0.00    -0.190 NA
ATOM      5  C   UNL     1       3.140   0.459   0.680  0.00  0.00    +0.053 C 
ATOM      6  C   UNL     1       3.515  -0.246  -0.625  0.00  0.00    +0.015 C 
ATOM      7  C   UNL     1       2.461   0.018  -1.697  0.00  0.00    +0.036 C 
ATOM      8  C   UNL     1       2.409   1.516  -2.012  0.00  0.00    +0.019 C 
ATOM      9  C   UNL     1       1.102  -0.433  -1.223  0.00  0.00    +0.040 C 
ATOM     10  N   UNL     1       0.593  -1.519  -1.693  0.00  0.00    -0.190 NA
ATOM     11  C   UNL     1       0.335   0.372  -0.206  0.00  0.00    +0.053 C 
ENDROOT
BRANCH   4  12
ATOM     12  N   UNL     1       2.858   4.158   0.981  0.00  0.00    -0.219 N 
ATOM     13  H   UNL     1       2.170   4.367   0.331  0.00  0.00    +0.176 HD
BRANCH  12  14
ATOM     14  C   UNL     1       3.405   5.141   1.724  0.00  0.00    +0.147 C 
ATOM     15  S   UNL     1       2.884   6.758   1.520  0.00  0.00    -0.017 S 
BRANCH  14  16
ATOM     16  N   UNL     1       4.361   4.850   2.628  0.00  0.00    -0.339 N 
ATOM     17  H   UNL     1       4.657   3.933   2.744  0.00  0.00    +0.144 HD
ATOM     18  H   UNL     1       4.755   5.557   3.162  0.00  0.00    +0.144 HD
ENDBRANCH  14  16
ENDBRANCH  12  14
ENDBRANCH   4  12
BRANCH  10  19
ATOM     19  N   UNL     1       1.359  -2.352  -2.519  0.00  0.00    -0.219 N 
ATOM     20  H   UNL     1       2.297  -2.156  -2.669  0.00  0.00    +0.176 HD
BRANCH  19  21
ATOM     21  C   UNL     1       0.792  -3.425  -3.106  0.00  0.00    +0.147 C 
ATOM     22  S   UNL     1       1.729  -4.443  -4.115  0.00  0.00    -0.017 S 
BRANCH  21  23
ATOM     23  N   UNL     1      -0.511  -3.697  -2.898  0.00  0.00    -0.339 N 
ATOM     24  H   UNL     1      -1.042  -3.120  -2.326  0.00  0.00    +0.144 HD
ATOM     25  H   UNL     1      -0.919  -4.469  -3.320  0.00  0.00    +0.144 HD
ENDBRANCH  21  23
ENDBRANCH  19  21
ENDBRANCH  10  19
TORSDOF 6
