REMARK  Name = ZINC41108081
REMARK  8 active torsions:
REMARK  status: ('A' for Active; 'I' for Inactive)
REMARK    1  A    between atoms: C_1  and  C_2
REMARK    2  A    between atoms: C_7  and  C_8
REMARK    3  A    between atoms: C_14  and  C_15
REMARK    4  A    between atoms: C_18  and  O_23
REMARK    5  A    between atoms: C_19  and  O_21
REMARK    6  A    between atoms: O_21  and  C_22
REMARK    7  A    between atoms: O_23  and  C_24
REMARK    8  A    between atoms: C_24  and  C_26
REMARK                            x       y       z     vdW  Elec       q    Type
REMARK                         _______ _______ _______ _____ _____    ______ ____
ROOT
ATOM      1  C   UNL     1       0.314  -0.309   2.895  0.00  0.00    +0.130 C 
ATOM      2  N   UNL     1       0.377   0.999   2.957  0.00  0.00    -0.164 NA
ATOM      3  N   UNL     1       0.156   1.666   4.143  0.00  0.00    -0.152 N 
ATOM      4  C   UNL     1       0.106   3.068   4.303  0.00  0.00    +0.153 C 
ATOM      5  N   UNL     1      -0.153   3.893   3.325  0.00  0.00    -0.283 NA
ATOM      6  C   UNL     1       0.380   3.512   5.700  0.00  0.00    +0.081 C 
ATOM      7  C   UNL     1       1.021   4.700   5.970  0.00  0.00    +0.024 C 
ATOM      8  C   UNL     1      -0.075   2.605   6.783  0.00  0.00    +0.273 C 
ATOM      9  O   UNL     1      -0.321   3.033   7.899  0.00  0.00    -0.268 OA
ATOM     10  N   UNL     1      -0.211   1.295   6.498  0.00  0.00    -0.152 NA
ATOM     11  C   UNL     1      -0.063   0.890   5.261  0.00  0.00    +0.181 C 
ATOM     12  S   UNL     1      -0.076  -0.749   4.583  0.00  0.00    -0.033 S 
ATOM     13  H   UNL     1      -0.325   3.551   2.434  0.00  0.00    +0.188 HD
ENDROOT
BRANCH   1  20
ATOM     14  C   UNL     1       0.938   0.844   0.316  0.00  0.00    +0.044 C 
ATOM     15  C   UNL     1       0.809  -0.649   0.477  0.00  0.00    -0.041 A 
ATOM     16  C   UNL     1       0.995  -1.481  -0.609  0.00  0.00    +0.004 A 
ATOM     17  C   UNL     1       0.878  -2.851  -0.462  0.00  0.00    +0.000 A 
ATOM     18  C   UNL     1       0.574  -3.397   0.772  0.00  0.00    +0.001 A 
ATOM     19  C   UNL     1       0.386  -2.577   1.865  0.00  0.00    +0.011 A 
ATOM     20  C   UNL     1       0.508  -1.194   1.725  0.00  0.00    +0.012 A 
ENDBRANCH   1  20
BRANCH   7  21
ATOM     21  C   UNL     1       1.438   5.012   7.340  0.00  0.00    -0.021 A 
ATOM     22  C   UNL     1       2.022   4.019   8.140  0.00  0.00    +0.012 A 
ATOM     23  C   UNL     1       2.413   4.316   9.426  0.00  0.00    +0.051 A 
ATOM     24  C   UNL     1       2.231   5.596   9.934  0.00  0.00    +0.173 A 
ATOM     25  C   UNL     1       1.651   6.590   9.145  0.00  0.00    +0.163 A 
ATOM     26  C   UNL     1       1.261   6.305   7.852  0.00  0.00    +0.057 A 
BRANCH  25  27
ATOM     27  O   UNL     1       1.474   7.841   9.648  0.00  0.00    -0.491 OA
ATOM     28  C   UNL     1       0.874   8.808   8.784  0.00  0.00    +0.277 C 
ENDBRANCH  25  27
BRANCH  24  29
ATOM     29  O   UNL     1       2.618   5.882  11.204  0.00  0.00    -0.418 OA
BRANCH  29  30
ATOM     30  C   UNL     1       1.695   5.789  12.184  0.00  0.00    +0.351 C 
ATOM     31  O   UNL     1       0.536   5.549  11.907  0.00  0.00    -0.244 OA
BRANCH  30  32
ATOM     32  C   UNL     1       2.090   5.978  13.581  0.00  0.00    +0.097 A 
ATOM     33  C   UNL     1       1.308   5.919  14.726  0.00  0.00    +0.022 A 
ATOM     34  C   UNL     1       1.968   6.142  15.910  0.00  0.00    +0.008 A 
ATOM     35  C   UNL     1       3.300   6.397  15.886  0.00  0.00    +0.046 A 
ATOM     36  S   UNL     1       3.701   6.335  14.255  0.00  0.00    -0.090 S 
ENDBRANCH  30  32
ENDBRANCH  29  30
ENDBRANCH  24  29
ENDBRANCH   7  21
TORSDOF 6
