REMARK  Name = ZINC12882566
REMARK  4 active torsions:
REMARK  status: ('A' for Active; 'I' for Inactive)
REMARK    1  A    between atoms: C_4  and  C_7
REMARK    2  A    between atoms: C_7  and  N_8
REMARK    3  A    between atoms: C_13  and  C_30
REMARK    4  A    between atoms: C_30  and  C_31
REMARK                            x       y       z     vdW  Elec       q    Type
REMARK                         _______ _______ _______ _____ _____    ______ ____
ROOT
ATOM      1  N   UNL     1      -0.698   1.558   1.213  0.00  0.00    -0.237 N 
ATOM      2  C   UNL     1      -0.396   2.717   1.811  0.00  0.00    +0.224 C 
ATOM      3  O   UNL     1       0.456   3.495   1.439  0.00  0.00    -0.275 OA
ATOM      4  C   UNL     1      -1.284   2.906   3.020  0.00  0.00    +0.073 C 
ATOM      5  C   UNL     1      -0.423   2.789   4.296  0.00  0.00    -0.053 C 
ATOM      6  C   UNL     1      -1.773   0.882   4.299  0.00  0.00    +0.050 C 
ATOM      7  C   UNL     1      -2.167   1.627   3.018  0.00  0.00    +0.088 C 
ATOM      8  C   UNL     1      -1.674   0.864   1.810  0.00  0.00    +0.225 C 
ATOM      9  O   UNL     1      -2.097  -0.210   1.439  0.00  0.00    -0.275 OA
ATOM     10  C   UNL     1      -0.794  -0.222   4.016  0.00  0.00    -0.026 A 
ATOM     11  C   UNL     1       0.463  -0.253   3.456  0.00  0.00    +0.024 A 
ATOM     12  C   UNL     1       1.135  -1.457   3.326  0.00  0.00    +0.041 A 
ATOM     13  C   UNL     1       0.538  -2.628   3.761  0.00  0.00    +0.022 A 
ATOM     14  C   UNL     1      -0.721  -2.600   4.323  0.00  0.00    +0.025 A 
ATOM     15  C   UNL     1      -1.403  -1.393   4.457  0.00  0.00    +0.036 A 
ATOM     16  N   UNL     1      -2.667  -1.112   4.982  0.00  0.00    -0.286 N 
ATOM     17  C   UNL     1      -2.959   0.201   4.926  0.00  0.00    +0.211 C 
ATOM     18  O   UNL     1      -3.981   0.733   5.308  0.00  0.00    -0.277 OA
ATOM     19 CL   UNL     1       2.720  -1.498   2.620  0.00  0.00    -0.084 Cl
ATOM     20  H   UNL     1      -3.263  -1.785   5.346  0.00  0.00    +0.155 HD
ATOM     21  N   UNL     1      -1.195   1.896   5.163  0.00  0.00    +0.394 N 
ATOM     22  H   UNL     1      -1.937   2.420   5.641  0.00  0.00    -0.083 HD
ATOM     23  H   UNL     1      -0.580   1.459   5.860  0.00  0.00    -0.083 HD
ENDROOT
BRANCH   1  24
ATOM     24  C   UNL     1      -0.013   1.086   0.008  0.00  0.00    +0.151 C 
BRANCH  24  28
ATOM     25  C   UNL     1      -2.078   2.501  -3.453  0.00  0.00    +0.000 A 
ATOM     26  C   UNL     1      -1.066   3.259  -2.894  0.00  0.00    +0.000 A 
ATOM     27  C   UNL     1      -0.398   2.801  -1.774  0.00  0.00    +0.005 A 
ATOM     28  C   UNL     1      -0.742   1.585  -1.213  0.00  0.00    -0.030 A 
ATOM     29  C   UNL     1      -1.750   0.825  -1.775  0.00  0.00    +0.005 A 
ATOM     30  C   UNL     1      -2.422   1.285  -2.892  0.00  0.00    +0.000 A 
ENDBRANCH  24  28
ENDBRANCH   1  24
BRANCH   5  31
ATOM     31  C   UNL     1      -0.232   4.164   4.940  0.00  0.00    +0.022 C 
BRANCH  31  32
ATOM     32  C   UNL     1       0.650   4.031   6.155  0.00  0.00    -0.024 A 
ATOM     33  C   UNL     1       0.242   3.888   7.426  0.00  0.00    +0.087 A 
ATOM     34  N   UNL     1       1.325   3.798   8.256  0.00  0.00    -0.360 N 
ATOM     35  H   UNL     1       1.282   3.691   9.219  0.00  0.00    +0.165 HD
ATOM     36  C   UNL     1       2.487   3.885   7.522  0.00  0.00    +0.047 A 
ATOM     37  C   UNL     1       2.115   4.029   6.173  0.00  0.00    +0.003 A 
ATOM     38  C   UNL     1       3.097   4.148   5.188  0.00  0.00    +0.010 A 
ATOM     39  C   UNL     1       4.417   4.112   5.540  0.00  0.00    +0.001 A 
ATOM     40  C   UNL     1       4.790   3.965   6.868  0.00  0.00    +0.002 A 
ATOM     41  C   UNL     1       3.836   3.851   7.857  0.00  0.00    +0.026 A 
ENDBRANCH  31  32
ENDBRANCH   5  31
TORSDOF 4
