REMARK  Name = ZINC33912522
REMARK  11 active torsions:
REMARK  status: ('A' for Active; 'I' for Inactive)
REMARK    1  A    between atoms: C_1  and  C_2
REMARK    2  A    between atoms: C_2  and  C_3
REMARK    3  A    between atoms: C_2  and  C_4
REMARK    4  A    between atoms: C_2  and  N_5
REMARK    5  A    between atoms: C_10  and  C_29
REMARK    6  A    between atoms: N_12  and  C_18
REMARK    7  A    between atoms: C_18  and  C_19
REMARK    8  A    between atoms: C_22  and  C_25
REMARK    9  A    between atoms: C_25  and  C_26
REMARK   10  A    between atoms: C_32  and  O_35
REMARK   11  A    between atoms: O_35  and  C_36
REMARK                            x       y       z     vdW  Elec       q    Type
REMARK                         _______ _______ _______ _____ _____    ______ ____
ROOT
ATOM      1  N   UNL     1       0.041  -1.743  -1.224  0.00  0.00    -0.234 N 
ATOM      2  C   UNL     1       0.400  -2.853  -1.945  0.00  0.00    +0.230 C 
ATOM      3  O   UNL     1      -0.124  -3.946  -1.930  0.00  0.00    -0.275 OA
ATOM      4  C   UNL     1       1.540  -2.433  -2.728  0.00  0.00    +0.139 C 
ATOM      5  C   UNL     1       2.260  -2.834  -3.948  0.00  0.00    +0.130 C 
ATOM      6  N   UNL     1       2.958  -1.563  -4.343  0.00  0.00    -0.175 NA
ATOM      7  O   UNL     1       2.512  -0.509  -3.385  0.00  0.00    -0.283 OA
ATOM      8  C   UNL     1       1.178  -0.928  -3.042  0.00  0.00    +0.241 C 
ATOM      9  C   UNL     1       0.642  -0.603  -1.674  0.00  0.00    +0.254 C 
ATOM     10  O   UNL     1       0.729   0.456  -1.090  0.00  0.00    -0.272 OA
ENDROOT
BRANCH   5  11
ATOM     11  C   UNL     1       3.254  -3.926  -3.650  0.00  0.00    -0.027 A 
ATOM     12  C   UNL     1       3.299  -5.055  -4.446  0.00  0.00    +0.009 A 
ATOM     13  C   UNL     1       4.210  -6.058  -4.174  0.00  0.00    +0.046 A 
ATOM     14  C   UNL     1       5.080  -5.931  -3.101  0.00  0.00    +0.130 A 
ATOM     15  C   UNL     1       5.034  -4.796  -2.304  0.00  0.00    +0.046 A 
ATOM     16  C   UNL     1       4.125  -3.794  -2.583  0.00  0.00    +0.009 A 
BRANCH  14  17
ATOM     17  O   UNL     1       5.976  -6.916  -2.832  0.00  0.00    -0.406 OA
BRANCH  17  18
ATOM     18  C   UNL     1       6.841  -6.717  -1.712  0.00  0.00    +0.575 C 
ATOM     19  F   UNL     1       6.075  -6.578  -0.550  0.00  0.00    -0.133 F 
ATOM     20  F   UNL     1       7.693  -7.819  -1.579  0.00  0.00    -0.133 F 
ATOM     21  F   UNL     1       7.603  -5.560  -1.910  0.00  0.00    -0.133 F 
ENDBRANCH  17  18
ENDBRANCH  14  17
ENDBRANCH   5  11
BRANCH   1  23
ATOM     22  C   UNL     1      -1.067  -0.363   0.465  0.00  0.00    +0.031 C 
ATOM     23  C   UNL     1      -0.894  -1.776  -0.096  0.00  0.00    +0.036 C 
ATOM     24  C   UNL     1      -0.342  -2.694   0.996  0.00  0.00    +0.031 C 
ATOM     25  C   UNL     1      -2.248  -2.306  -0.571  0.00  0.00    +0.031 C 
ENDBRANCH   1  23
BRANCH   6  26
ATOM     26  C   UNL     1       4.417  -1.729  -4.302  0.00  0.00    +0.150 C 
BRANCH  26  27
ATOM     27  C   UNL     1       5.075  -0.566  -4.998  0.00  0.00    -0.031 A 
ATOM     28  C   UNL     1       5.333  -0.629  -6.355  0.00  0.00    +0.005 A 
ATOM     29  C   UNL     1       5.936   0.438  -6.994  0.00  0.00    +0.004 A 
ATOM     30  C   UNL     1       6.281   1.568  -6.276  0.00  0.00    -0.039 A 
ATOM     31  C   UNL     1       6.022   1.631  -4.920  0.00  0.00    +0.004 A 
ATOM     32  C   UNL     1       5.415   0.566  -4.282  0.00  0.00    +0.005 A 
BRANCH  30  33
ATOM     33  C   UNL     1       6.940   2.731  -6.972  0.00  0.00    +0.130 C 
BRANCH  33  34
ATOM     34  C   UNL     1       5.883   3.680  -7.475  0.00  0.00    +0.215 C 
ATOM     35  O   UNL     1       4.710   3.437  -7.286  0.00  0.00    -0.276 OA
ATOM     36  N   UNL     1       6.241   4.800  -8.134  0.00  0.00    -0.329 N 
ATOM     37  H   UNL     1       7.179   4.995  -8.285  0.00  0.00    +0.145 HD
ATOM     38  H   UNL     1       5.560   5.411  -8.457  0.00  0.00    +0.145 HD
ENDBRANCH  33  34
ENDBRANCH  30  33
ENDBRANCH  26  27
ENDBRANCH   6  26
TORSDOF 8
