REMARK  Name = ZINC11423635
REMARK  13 active torsions:
REMARK  status: ('A' for Active; 'I' for Inactive)
REMARK    1  A    between atoms: C_1  and  C_2
REMARK    2  A    between atoms: C_2  and  C_3
REMARK    3  A    between atoms: C_2  and  C_4
REMARK    4  A    between atoms: C_4  and  N_5
REMARK    5  A    between atoms: C_6  and  N_31
REMARK    6  A    between atoms: C_7  and  C_14
REMARK    7  A    between atoms: N_10  and  C_13
REMARK    8  A    between atoms: C_14  and  C_16
REMARK    9  A    between atoms: C_16  and  O_17
REMARK   10  A    between atoms: O_17  and  C_18
REMARK   11  A    between atoms: C_18  and  C_20
REMARK   12  A    between atoms: C_20  and  O_21
REMARK   13  A    between atoms: O_21  and  C_22
REMARK                            x       y       z     vdW  Elec       q    Type
REMARK                         _______ _______ _______ _____ _____    ______ ____
ROOT
ATOM      1  C   UNL     1      -1.703  -4.266  -2.726  0.00  0.00    +0.209 C 
ATOM      2  O   UNL     1      -2.461  -3.489  -3.272  0.00  0.00    -0.288 OA
ENDROOT
BRANCH   1   5
ATOM      3  N   UNL     1       0.774  -1.983  -1.228  0.00  0.00    -0.281 N 
ATOM      4  C   UNL     1      -0.346  -2.402  -1.889  0.00  0.00    +0.116 A 
ATOM      5  C   UNL     1      -0.562  -3.782  -2.051  0.00  0.00    +0.123 A 
ATOM      6  C   UNL     1       0.437  -4.704  -1.496  0.00  0.00    +0.269 A 
ATOM      7  O   UNL     1       0.301  -5.908  -1.607  0.00  0.00    -0.267 OA
ATOM      8  N   UNL     1       1.510  -4.188  -0.860  0.00  0.00    -0.263 N 
ATOM      9  C   UNL     1       1.665  -2.859  -0.740  0.00  0.00    +0.333 A 
ATOM     10  O   UNL     1       2.648  -2.435  -0.165  0.00  0.00    -0.246 OA
ATOM     11  C   UNL     1       2.519  -5.088  -0.298  0.00  0.00    +0.157 C 
BRANCH   4  12
ATOM     12  N   UNL     1      -1.237  -1.500  -2.381  0.00  0.00    -0.344 N 
ATOM     13  H   UNL     1      -1.125  -0.555  -2.193  0.00  0.00    +0.144 HD
ATOM     14  H   UNL     1      -1.985  -1.802  -2.920  0.00  0.00    +0.144 HD
ENDBRANCH   4  12
BRANCH   3  15
ATOM     15  C   UNL     1       1.009  -0.547  -1.054  0.00  0.00    +0.131 C 
BRANCH  15  17
ATOM     16  C   UNL     1       0.503   1.439   0.375  0.00  0.00    +0.009 C 
ATOM     17  C   UNL     1       0.367  -0.080   0.254  0.00  0.00    +0.003 C 
ATOM     18  C   UNL     1       1.070  -0.752   1.435  0.00  0.00    +0.009 C 
ENDBRANCH  15  17
ENDBRANCH   3  15
ENDBRANCH   1   5
BRANCH   1  19
ATOM     19  C   UNL     1      -1.981  -5.746  -2.771  0.00  0.00    +0.311 C 
BRANCH  19  20
ATOM     20  O   UNL     1      -3.203  -5.987  -3.518  0.00  0.00    -0.454 OA
BRANCH  20  21
ATOM     21  C   UNL     1      -3.594  -7.264  -3.651  0.00  0.00    +0.346 C 
ATOM     22  O   UNL     1      -2.937  -8.151  -3.160  0.00  0.00    -0.247 OA
BRANCH  21  23
ATOM     23  C   UNL     1      -4.852  -7.591  -4.414  0.00  0.00    +0.349 C 
BRANCH  23  24
ATOM     24  O   UNL     1      -5.053  -9.006  -4.416  0.00  0.00    -0.479 OA
BRANCH  24  25
ATOM     25  C   UNL     1      -6.153  -9.472  -5.066  0.00  0.00    +0.141 A 
ATOM     26  C   UNL     1      -7.018  -8.585  -5.689  0.00  0.00    +0.068 A 
ATOM     27  C   UNL     1      -8.135  -9.061  -6.351  0.00  0.00    +0.063 A 
ATOM     28  C   UNL     1      -8.390 -10.421  -6.391  0.00  0.00    +0.061 A 
ATOM     29  C   UNL     1      -7.527 -11.307  -5.771  0.00  0.00    +0.045 A 
ATOM     30  C   UNL     1      -6.407 -10.835  -5.113  0.00  0.00    +0.084 A 
ATOM     31 CL   UNL     1      -5.321 -11.948  -4.339  0.00  0.00    -0.080 Cl
ATOM     32 CL   UNL     1      -9.793 -11.017  -7.222  0.00  0.00    -0.082 Cl
ATOM     33 CL   UNL     1      -9.219  -7.952  -7.131  0.00  0.00    -0.082 Cl
ENDBRANCH  24  25
ENDBRANCH  23  24
ENDBRANCH  21  23
ENDBRANCH  20  21
ENDBRANCH  19  20
ENDBRANCH   1  19
TORSDOF 10
