REMARK  Name = ZINC01023055
REMARK  4 active torsions:
REMARK  status: ('A' for Active; 'I' for Inactive)
REMARK    1  A    between atoms: C_4  and  C_7
REMARK    2  A    between atoms: C_14  and  N_30
REMARK    3  A    between atoms: C_15  and  C_28
REMARK    4  A    between atoms: C_16  and  C_18
REMARK                            x       y       z     vdW  Elec       q    Type
REMARK                         _______ _______ _______ _____ _____    ______ ____
ROOT
ATOM      1  C   UNL     1       4.197  -0.806   0.108  0.00  0.00    +0.100 A 
ATOM      2  C   UNL     1       4.186  -2.066   0.714  0.00  0.00    +0.054 A 
ATOM      3  C   UNL     1       5.424  -2.620   0.558  0.00  0.00    +0.223 A 
ATOM      4  N   UNL     1       6.186  -1.739  -0.122  0.00  0.00    -0.246 N 
ATOM      5  H   UNL     1       7.113  -1.864  -0.377  0.00  0.00    +0.192 HD
ATOM      6  N   UNL     1       5.399  -0.610  -0.400  0.00  0.00    -0.171 NA
ATOM      7  O   UNL     1       5.740  -3.850   1.034  0.00  0.00    -0.423 OA
ATOM      8  C   UNL     1       4.727  -4.645   1.435  0.00  0.00    +0.200 C 
ATOM      9  C   UNL     1       3.464  -4.209   1.637  0.00  0.00    +0.098 C 
ATOM     10  C   UNL     1       3.064  -2.769   1.433  0.00  0.00    +0.102 C 
ENDROOT
BRANCH  10  11
ATOM     11  C   UNL     1       2.827  -2.113   2.770  0.00  0.00    -0.027 A 
ATOM     12  C   UNL     1       3.860  -1.941   3.640  0.00  0.00    +0.005 A 
ATOM     13  C   UNL     1       3.660  -1.337   4.880  0.00  0.00    +0.001 A 
ATOM     14  C   UNL     1       2.426  -0.902   5.257  0.00  0.00    +0.008 A 
ATOM     15  C   UNL     1       1.336  -1.062   4.385  0.00  0.00    -0.018 A 
ATOM     16  C   UNL     1       1.541  -1.671   3.121  0.00  0.00    -0.014 A 
ATOM     17  C   UNL     1       0.451  -1.826   2.247  0.00  0.00    +0.009 A 
ATOM     18  C   UNL     1      -0.780  -1.385   2.621  0.00  0.00    +0.001 A 
ATOM     19  C   UNL     1      -0.980  -0.780   3.861  0.00  0.00    +0.001 A 
ATOM     20  C   UNL     1       0.048  -0.626   4.739  0.00  0.00    +0.008 A 
ENDBRANCH  10  11
BRANCH   1  24
ATOM     21  C   UNL     1       0.928   1.907  -0.082  0.00  0.00    +0.000 A 
ATOM     22  C   UNL     1       2.218   2.390   0.042  0.00  0.00    +0.001 A 
ATOM     23  C   UNL     1       3.283   1.514   0.104  0.00  0.00    +0.010 A 
ATOM     24  C   UNL     1       3.056   0.141   0.042  0.00  0.00    +0.003 A 
ATOM     25  C   UNL     1       1.754  -0.341  -0.083  0.00  0.00    +0.010 A 
ATOM     26  C   UNL     1       0.697   0.544  -0.144  0.00  0.00    +0.001 A 
ENDBRANCH   1  24
BRANCH   8  27
ATOM     27  N   UNL     1       4.995  -5.974   1.651  0.00  0.00    -0.328 N 
ATOM     28  H   UNL     1       5.892  -6.317   1.515  0.00  0.00    +0.145 HD
ATOM     29  H   UNL     1       4.286  -6.571   1.940  0.00  0.00    +0.145 HD
ENDBRANCH   8  27
BRANCH   9  30
ATOM     30  C   UNL     1       2.469  -5.148   2.058  0.00  0.00    +0.101 C 
ATOM     31  N   UNL     1       1.679  -5.894   2.392  0.00  0.00    -0.191 NA
ENDBRANCH   9  30
TORSDOF 4
