REMARK  Name = ZINC38621246
REMARK  9 active torsions:
REMARK  status: ('A' for Active; 'I' for Inactive)
REMARK    1  A    between atoms: C_4  and  C_7
REMARK    2  A    between atoms: C_7  and  C_8
REMARK    3  A    between atoms: C_8  and  C_9
REMARK    4  A    between atoms: C_9  and  N_10
REMARK    5  A    between atoms: N_13  and  C_14
REMARK    6  A    between atoms: C_14  and  C_15
REMARK    7  A    between atoms: C_15  and  C_17
REMARK    8  A    between atoms: C_15  and  N_26
REMARK    9  A    between atoms: N_29  and  C_32
REMARK                            x       y       z     vdW  Elec       q    Type
REMARK                         _______ _______ _______ _____ _____    ______ ____
ROOT
ATOM      1  C   UNL     1       8.870  -3.657   6.026  0.00  0.00    +0.104 C 
ENDROOT
BRANCH   1   2
ATOM      2  C   UNL     1      10.281  -4.132   6.259  0.00  0.00    -0.025 A 
ATOM      3  C   UNL     1      11.332  -3.239   6.170  0.00  0.00    +0.009 A 
ATOM      4  C   UNL     1      12.629  -3.669   6.384  0.00  0.00    +0.050 A 
ATOM      5  C   UNL     1      12.877  -4.998   6.688  0.00  0.00    +0.166 A 
ATOM      6  C   UNL     1      11.817  -5.897   6.779  0.00  0.00    +0.167 A 
ATOM      7  C   UNL     1      10.520  -5.458   6.569  0.00  0.00    +0.054 A 
ATOM      8  O   UNL     1      12.317  -7.130   7.086  0.00  0.00    -0.453 OA
ATOM      9  C   UNL     1      13.722  -7.062   6.782  0.00  0.00    +0.466 C 
ATOM     10  O   UNL     1      14.040  -5.667   6.940  0.00  0.00    -0.453 OA
ENDBRANCH   1   2
BRANCH   1  11
ATOM     11  N   UNL     1       8.690  -2.334   6.637  0.00  0.00    -0.291 NA
ATOM     12  C   UNL     1       8.995  -2.372   8.074  0.00  0.00    +0.104 C 
ATOM     13  C   UNL     1       8.973  -0.946   8.635  0.00  0.00    +0.120 C 
ATOM     14  N   UNL     1       7.684  -0.328   8.289  0.00  0.00    -0.325 N 
ATOM     15  C   UNL     1       7.246  -0.372   6.886  0.00  0.00    +0.120 C 
ATOM     16  C   UNL     1       7.336  -1.820   6.394  0.00  0.00    +0.104 C 
BRANCH  14  17
ATOM     17  C   UNL     1       6.897   0.286   9.268  0.00  0.00    +0.065 A 
ATOM     18  C   UNL     1       7.059   1.638   9.544  0.00  0.00    +0.026 A 
ATOM     19  C   UNL     1       6.279   2.242  10.512  0.00  0.00    +0.002 A 
ATOM     20  C   UNL     1       5.339   1.503  11.206  0.00  0.00    +0.003 A 
ATOM     21  C   UNL     1       5.175   0.157  10.936  0.00  0.00    +0.040 A 
ATOM     22  C   UNL     1       5.947  -0.453   9.964  0.00  0.00    +0.144 A 
ATOM     23  F   UNL     1       5.783  -1.767   9.696  0.00  0.00    -0.204 F 
ENDBRANCH  14  17
ENDBRANCH   1  11
BRANCH   1  24
ATOM     24  C   UNL     1       8.605  -3.564   4.522  0.00  0.00    +0.129 C 
BRANCH  24  28
ATOM     25  N   UNL     1       8.701  -6.276   2.040  0.00  0.00    -0.299 N 
ATOM     26  C   UNL     1       8.612  -5.048   2.589  0.00  0.00    +0.300 C 
ATOM     27  O   UNL     1       8.449  -4.075   1.878  0.00  0.00    -0.253 OA
ATOM     28  N   UNL     1       8.702  -4.899   3.925  0.00  0.00    -0.298 N 
ATOM     29  H   UNL     1       8.831  -7.052   2.607  0.00  0.00    +0.150 HD
ATOM     30  H   UNL     1       8.832  -5.675   4.492  0.00  0.00    +0.150 HD
BRANCH  25  31
ATOM     31  C   UNL     1       8.602  -6.438   0.587  0.00  0.00    +0.106 C 
BRANCH  31  32
ATOM     32  C   UNL     1       8.735  -7.919   0.229  0.00  0.00    +0.023 C 
BRANCH  32  33
ATOM     33  C   UNL     1       8.632  -8.088  -1.288  0.00  0.00    +0.036 C 
BRANCH  33  37
ATOM     34  C   UNL     1       9.000 -12.225  -2.290  0.00  0.00    +0.000 A 
ATOM     35  C   UNL     1       7.754 -11.684  -2.032  0.00  0.00    +0.000 A 
ATOM     36  C   UNL     1       7.635 -10.346  -1.707  0.00  0.00    +0.003 A 
ATOM     37  C   UNL     1       8.762  -9.548  -1.641  0.00  0.00    -0.047 A 
ATOM     38  C   UNL     1      10.008 -10.088  -1.898  0.00  0.00    +0.003 A 
ATOM     39  C   UNL     1      10.127 -11.426  -2.223  0.00  0.00    +0.000 A 
ENDBRANCH  33  37
ENDBRANCH  32  33
ENDBRANCH  31  32
ENDBRANCH  25  31
ENDBRANCH  24  28
ENDBRANCH   1  24
TORSDOF 9
