REMARK  Name = ZINC39836479
REMARK  11 active torsions:
REMARK  status: ('A' for Active; 'I' for Inactive)
REMARK    1  A    between atoms: C_1  and  C_2
REMARK    2  A    between atoms: C_2  and  O_3
REMARK    3  A    between atoms: O_3  and  C_4
REMARK    4  A    between atoms: C_7  and  C_10
REMARK    5  A    between atoms: N_12  and  C_13
REMARK    6  A    between atoms: C_14  and  C_27
REMARK    7  A    between atoms: C_19  and  C_23
REMARK    8  A    between atoms: C_23  and  C_24
REMARK    9  A    between atoms: C_23  and  C_25
REMARK   10  A    between atoms: C_23  and  C_26
REMARK   11  A    between atoms: N_29  and  C_30
REMARK                            x       y       z     vdW  Elec       q    Type
REMARK                         _______ _______ _______ _____ _____    ______ ____
ROOT
ATOM      1  C   UNL     1       1.840  -7.883  -3.093  0.00  0.00    +0.085 A 
ATOM      2  C   UNL     1       2.447  -8.571  -4.133  0.00  0.00    +0.069 A 
ATOM      3  C   UNL     1       2.425 -10.022  -4.071  0.00  0.00    -0.023 A 
ATOM      4  C   UNL     1       1.800 -10.519  -2.982  0.00  0.00    -0.004 A 
ATOM      5  S   UNL     1       1.273  -9.094  -2.077  0.00  0.00    -0.077 S 
ATOM      6  C   UNL     1       1.610 -11.963  -2.634  0.00  0.00    +0.046 C 
ATOM      7  C   UNL     1       1.901 -12.803  -3.887  0.00  0.00    -0.000 C 
ATOM      8  C   UNL     1       3.220 -12.330  -4.505  0.00  0.00    +0.009 C 
ATOM      9  C   UNL     1       3.039 -10.940  -5.118  0.00  0.00    +0.037 C 
ENDROOT
BRANCH   1  12
ATOM     10  C   UNL     1       1.108  -6.011  -1.843  0.00  0.00    +0.249 C 
ATOM     11  O   UNL     1       0.640  -6.763  -1.010  0.00  0.00    -0.270 OA
ATOM     12  N   UNL     1       1.732  -6.512  -2.928  0.00  0.00    -0.275 N 
ATOM     13  H   UNL     1       2.105  -5.912  -3.592  0.00  0.00    +0.156 HD
BRANCH  10  17
ATOM     14  C   UNL     1       0.777  -1.808  -1.336  0.00  0.00    +0.121 A 
ATOM     15  C   UNL     1       0.240  -2.666  -0.382  0.00  0.00    +0.046 A 
ATOM     16  C   UNL     1       0.345  -4.029  -0.543  0.00  0.00    +0.016 A 
ATOM     17  C   UNL     1       0.992  -4.551  -1.667  0.00  0.00    +0.037 A 
ATOM     18  C   UNL     1       1.530  -3.685  -2.623  0.00  0.00    +0.016 A 
ATOM     19  C   UNL     1       1.416  -2.323  -2.458  0.00  0.00    +0.046 A 
BRANCH  14  20
ATOM     20  O   UNL     1       0.671  -0.465  -1.174  0.00  0.00    -0.492 OA
BRANCH  20  22
ATOM     21  C   UNL     1      -0.019   1.526   0.010  0.00  0.00    +0.048 C 
ATOM     22  C   UNL     1       0.002  -0.004   0.002  0.00  0.00    +0.225 C 
ENDBRANCH  20  22
ENDBRANCH  14  20
ENDBRANCH  10  17
ENDBRANCH   1  12
BRANCH   7  23
ATOM     23  C   UNL     1       2.013 -14.279  -3.500  0.00  0.00    -0.035 C 
ATOM     24  C   UNL     1       0.698 -14.742  -2.871  0.00  0.00    +0.011 C 
ATOM     25  C   UNL     1       2.303 -15.113  -4.750  0.00  0.00    +0.011 C 
ATOM     26  C   UNL     1       3.151 -14.457  -2.493  0.00  0.00    +0.011 C 
ENDBRANCH   7  23
BRANCH   2  27
ATOM     27  C   UNL     1       3.084  -7.864  -5.247  0.00  0.00    +0.247 C 
ATOM     28  O   UNL     1       4.261  -7.562  -5.183  0.00  0.00    -0.270 OA
ATOM     29  N   UNL     1       2.366  -7.548  -6.343  0.00  0.00    -0.307 N 
ATOM     30  H   UNL     1       1.428  -7.788  -6.394  0.00  0.00    +0.149 HD
BRANCH  29  31
ATOM     31  C   UNL     1       3.003  -6.841  -7.457  0.00  0.00    +0.096 C 
ATOM     32  C   UNL     1       2.951  -5.324  -7.208  0.00  0.00    +0.046 C 
ATOM     33  C   UNL     1       3.323  -4.563  -8.503  0.00  0.00    +0.168 C 
ATOM     34  S   UNL     1       2.800  -5.733  -9.823  0.00  0.00    -0.029 S 
ATOM     35  O   UNL     1       3.945  -6.136 -10.562  0.00  0.00    -0.174 OA
ATOM     36  O   UNL     1       1.682  -5.187 -10.508  0.00  0.00    -0.174 OA
ATOM     37  C   UNL     1       2.235  -7.140  -8.777  0.00  0.00    +0.188 C 
ENDBRANCH  29  31
ENDBRANCH   2  27
TORSDOF 7
