REMARK  Name = ZINC40426543
REMARK  9 active torsions:
REMARK  status: ('A' for Active; 'I' for Inactive)
REMARK    1  A    between atoms: C_1  and  C_2
REMARK    2  A    between atoms: C_2  and  C_3
REMARK    3  A    between atoms: C_2  and  C_4
REMARK    4  A    between atoms: C_2  and  C_5
REMARK    5  A    between atoms: C_8  and  C_11
REMARK    6  A    between atoms: N_16  and  C_19
REMARK    7  A    between atoms: C_19  and  C_20
REMARK    8  A    between atoms: C_28  and  C_30
REMARK    9  A    between atoms: N_35  and  C_39
REMARK                            x       y       z     vdW  Elec       q    Type
REMARK                         _______ _______ _______ _____ _____    ______ ____
ROOT
ATOM      1  C   UNL     1       2.574  -1.881  -4.706  0.00  0.00    +0.142 C 
ATOM      2  C   UNL     1       3.372  -3.118  -4.348  0.00  0.00    +0.058 C 
ATOM      3  C   UNL     1       4.702  -3.091  -4.568  0.00  0.00    +0.042 C 
ATOM      4  C   UNL     1       5.234  -4.436  -4.126  0.00  0.00    +0.160 C 
ATOM      5  N   UNL     1       4.053  -5.173  -3.652  0.00  0.00    -0.283 N 
ATOM      6  C   UNL     1       2.990  -4.361  -3.802  0.00  0.00    +0.247 C 
ATOM      7  O   UNL     1       1.848  -4.660  -3.505  0.00  0.00    -0.270 OA
ATOM      8  N   UNL     1       5.310  -1.988  -5.096  0.00  0.00    -0.260 N 
ATOM      9  C   UNL     1       4.654  -0.869  -5.430  0.00  0.00    +0.307 C 
ATOM     10  O   UNL     1       5.280   0.064  -5.894  0.00  0.00    -0.252 OA
ATOM     11  N   UNL     1       3.322  -0.744  -5.267  0.00  0.00    -0.288 N 
ATOM     12  C   UNL     1       6.759  -2.030  -5.307  0.00  0.00    +0.139 C 
ATOM     13  H   UNL     1       2.868   0.076  -5.516  0.00  0.00    +0.151 HD
ENDROOT
BRANCH   1  17
ATOM     14  C   UNL     1       0.584  -0.534  -1.173  0.00  0.00    -0.042 A 
ATOM     15  C   UNL     1      -0.085  -1.333  -2.082  0.00  0.00    +0.004 A 
ATOM     16  C   UNL     1       0.558  -1.768  -3.225  0.00  0.00    +0.006 A 
ATOM     17  C   UNL     1       1.871  -1.405  -3.460  0.00  0.00    -0.023 A 
ATOM     18  C   UNL     1       2.541  -0.606  -2.552  0.00  0.00    +0.006 A 
ATOM     19  C   UNL     1       1.895  -0.167  -1.411  0.00  0.00    +0.004 A 
BRANCH  14  21
ATOM     20  C   UNL     1      -0.154   1.470   0.086  0.00  0.00    +0.015 C 
ATOM     21  C   UNL     1      -0.118  -0.059   0.073  0.00  0.00    -0.013 C 
ATOM     22  C   UNL     1       0.636  -0.562   1.306  0.00  0.00    +0.015 C 
ATOM     23  C   UNL     1      -1.547  -0.604   0.092  0.00  0.00    +0.015 C 
ENDBRANCH  14  21
ENDBRANCH   1  17
BRANCH   5  24
ATOM     24  C   UNL     1       4.036  -6.536  -3.117  0.00  0.00    +0.204 C 
BRANCH  24  25
ATOM     25  C   UNL     1       4.236  -6.492  -1.624  0.00  0.00    +0.233 C 
ATOM     26  O   UNL     1       4.379  -5.426  -1.062  0.00  0.00    -0.274 OA
ATOM     27  N   UNL     1       4.257  -7.636  -0.912  0.00  0.00    -0.297 N 
ATOM     28  C   UNL     1       4.091  -8.935  -1.580  0.00  0.00    +0.127 C 
ATOM     29  C   UNL     1       5.288  -9.826  -1.224  0.00  0.00    +0.127 C 
ATOM     30  N   UNL     1       5.477  -9.797   0.234  0.00  0.00    -0.292 N 
ATOM     31  C   UNL     1       5.643  -8.498   0.901  0.00  0.00    +0.127 C 
ATOM     32  C   UNL     1       4.452  -7.608   0.544  0.00  0.00    +0.127 C 
ATOM     33  C   UNL     1       5.498 -10.942   0.945  0.00  0.00    +0.282 C 
ATOM     34  O   UNL     1       5.753 -10.914   2.135  0.00  0.00    -0.267 OA
BRANCH  33  35
ATOM     35  C   UNL     1       5.213 -12.220   0.285  0.00  0.00    +0.189 A 
ATOM     36  C   UNL     1       5.085 -13.431   0.904  0.00  0.00    +0.054 A 
ATOM     37  C   UNL     1       4.815 -14.372  -0.103  0.00  0.00    +0.042 A 
ATOM     38  C   UNL     1       4.791 -13.702  -1.276  0.00  0.00    +0.196 A 
ATOM     39  O   UNL     1       5.026 -12.405  -1.038  0.00  0.00    -0.458 OA
ENDBRANCH  33  35
ENDBRANCH  24  25
ENDBRANCH   5  24
TORSDOF 5
