REMARK  Name = ZINC38689085
REMARK  5 active torsions:
REMARK  status: ('A' for Active; 'I' for Inactive)
REMARK    1  A    between atoms: C_1  and  C_2
REMARK    2  A    between atoms: C_9  and  C_11
REMARK    3  A    between atoms: C_11  and  S_12
REMARK    4  A    between atoms: S_12  and  C_13
REMARK    5  A    between atoms: C_17  and  C_19
REMARK                            x       y       z     vdW  Elec       q    Type
REMARK                         _______ _______ _______ _____ _____    ______ ____
ROOT
ATOM      1  C   UNL     1       4.815  -7.295  -1.468  0.00  0.00    +0.185 A 
ATOM      2  N   UNL     1       5.474  -8.409  -1.080  0.00  0.00    -0.253 N 
ATOM      3  H   UNL     1       5.641  -8.697  -0.169  0.00  0.00    +0.191 HD
ATOM      4  N   UNL     1       5.868  -9.069  -2.255  0.00  0.00    -0.152 NA
ATOM      5  C   UNL     1       5.441  -8.343  -3.263  0.00  0.00    +0.183 A 
ATOM      6  N   UNL     1       4.797  -7.269  -2.783  0.00  0.00    -0.201 NA
ENDROOT
BRANCH   5   7
ATOM      7  C   UNL     1       5.634  -8.662  -4.699  0.00  0.00    +0.035 A 
ATOM      8  C   UNL     1       5.137  -7.805  -5.679  0.00  0.00    +0.013 A 
ATOM      9  C   UNL     1       5.320  -8.107  -7.013  0.00  0.00    +0.001 A 
ATOM     10  C   UNL     1       5.995  -9.257  -7.379  0.00  0.00    +0.001 A 
ATOM     11  C   UNL     1       6.491 -10.112  -6.412  0.00  0.00    +0.016 A 
ATOM     12  C   UNL     1       6.319  -9.818  -5.073  0.00  0.00    +0.029 A 
ATOM     13 BR   UNL     1       7.004 -10.983  -3.751  0.00  0.00    -0.050 Br
ENDBRANCH   5   7
BRANCH   1  14
ATOM     14  S   UNL     1       4.099  -6.091  -0.399  0.00  0.00    -0.077 S 
BRANCH  14  15
ATOM     15  C   UNL     1       3.372  -4.875  -1.533  0.00  0.00    +0.173 C 
BRANCH  15  23
ATOM     16  C   UNL     1      -0.019   1.526   0.010  0.00  0.00    +0.055 C 
ATOM     17  C   UNL     1       0.002  -0.004   0.002  0.00  0.00    +0.208 C 
ATOM     18  C   UNL     1       0.787  -0.541  -1.219  0.00  0.00    +0.122 C 
ATOM     19  C   UNL     1       1.507  -1.746  -0.643  0.00  0.00    +0.144 C 
ATOM     20  N   UNL     1       1.462  -1.668   0.642  0.00  0.00    -0.073 NA
ATOM     21  O   UNL     1       0.783  -0.516   1.101  0.00  0.00    -0.389 OA
ATOM     22  N   UNL     1       2.108  -2.755  -1.373  0.00  0.00    -0.270 N 
ATOM     23  C   UNL     1       2.717  -3.775  -0.737  0.00  0.00    +0.228 C 
ATOM     24  O   UNL     1       2.739  -3.808   0.475  0.00  0.00    -0.275 OA
ATOM     25  H   UNL     1       2.090  -2.729  -2.342  0.00  0.00    +0.156 HD
ENDBRANCH  15  23
ENDBRANCH  14  15
ENDBRANCH   1  14
TORSDOF 4
