REMARK  Name = ZINC19830925
REMARK  6 active torsions:
REMARK  status: ('A' for Active; 'I' for Inactive)
REMARK    1  A    between atoms: C_4  and  C_7
REMARK    2  A    between atoms: N_10  and  C_13
REMARK    3  A    between atoms: C_13  and  N_14
REMARK    4  A    between atoms: N_21  and  C_24
REMARK    5  A    between atoms: C_24  and  N_25
REMARK    6  A    between atoms: C_28  and  C_31
REMARK                            x       y       z     vdW  Elec       q    Type
REMARK                         _______ _______ _______ _____ _____    ______ ____
ROOT
ATOM      1  N   UNL     1      -1.132   2.468   0.020  0.00  0.00    -0.336 N 
ATOM      2  C   UNL     1      -0.748   3.806   0.030  0.00  0.00    +0.066 A 
ATOM      3  C   UNL     1      -1.455   4.999   0.042  0.00  0.00    +0.028 A 
ATOM      4  C   UNL     1      -0.774   6.201   0.042  0.00  0.00    +0.002 A 
ATOM      5  C   UNL     1       0.610   6.220   0.029  0.00  0.00    +0.002 A 
ATOM      6  C   UNL     1       1.323   5.037   0.016  0.00  0.00    +0.028 A 
ATOM      7  C   UNL     1       0.648   3.825   0.016  0.00  0.00    +0.069 A 
ATOM      8  N   UNL     1       1.069   2.498   0.005  0.00  0.00    -0.306 N 
ATOM      9  C   UNL     1      -0.021   1.708   0.011  0.00  0.00    +0.161 A 
ATOM     10  S   UNL     1       0.002  -0.004   0.002  0.00  0.00    -0.013 S 
ENDROOT
BRANCH   1  11
ATOM     11  C   UNL     1      -2.511   1.972   0.023  0.00  0.00    +0.049 C 
BRANCH  11  15
ATOM     12  C   UNL     1      -4.106   0.411   3.670  0.00  0.00    +0.016 C 
ATOM     13  C   UNL     1      -4.873   1.503   2.918  0.00  0.00    -0.011 C 
ATOM     14  C   UNL     1      -4.409   1.532   1.460  0.00  0.00    -0.076 C 
ATOM     15  N   UNL     1      -2.966   1.799   1.409  0.00  0.00    +0.392 N 
ATOM     16  C   UNL     1      -2.206   0.739   2.085  0.00  0.00    -0.076 C 
ATOM     17  C   UNL     1      -2.604   0.686   3.561  0.00  0.00    -0.011 C 
ATOM     18  H   UNL     1      -2.780   2.740   1.948  0.00  0.00    -0.079 HD
BRANCH  12  22
ATOM     19  C   UNL     1      -5.268   0.425   7.781  0.00  0.00    +0.000 A 
ATOM     20  C   UNL     1      -5.461  -0.708   7.012  0.00  0.00    +0.000 A 
ATOM     21  C   UNL     1      -5.085  -0.712   5.682  0.00  0.00    +0.004 A 
ATOM     22  C   UNL     1      -4.516   0.416   5.120  0.00  0.00    -0.044 A 
ATOM     23  C   UNL     1      -4.319   1.547   5.891  0.00  0.00    +0.004 A 
ATOM     24  C   UNL     1      -4.699   1.553   7.220  0.00  0.00    +0.000 A 
ENDBRANCH  12  22
ENDBRANCH  11  15
ENDBRANCH   1  11
BRANCH   8  25
ATOM     25  C   UNL     1       2.460   2.040  -0.011  0.00  0.00    +0.211 C 
BRANCH  25  26
ATOM     26  N   UNL     1       2.912   1.894  -1.401  0.00  0.00    -0.285 NA
ATOM     27  C   UNL     1       2.177   0.821  -2.083  0.00  0.00    +0.086 C 
ATOM     28  C   UNL     1       2.567   0.794  -3.563  0.00  0.00    +0.023 C 
ATOM     29  C   UNL     1       4.076   0.561  -3.683  0.00  0.00    +0.021 C 
ATOM     30  C   UNL     1       4.817   1.665  -2.924  0.00  0.00    +0.023 C 
ATOM     31  C   UNL     1       4.361   1.667  -1.463  0.00  0.00    +0.086 C 
BRANCH  29  32
ATOM     32  C   UNL     1       4.477   0.592  -5.136  0.00  0.00    -0.044 A 
ATOM     33  C   UNL     1       4.244   1.725  -5.893  0.00  0.00    +0.004 A 
ATOM     34  C   UNL     1       4.616   1.755  -7.224  0.00  0.00    +0.000 A 
ATOM     35  C   UNL     1       5.212   0.649  -7.800  0.00  0.00    +0.000 A 
ATOM     36  C   UNL     1       5.441  -0.486  -7.044  0.00  0.00    +0.000 A 
ATOM     37  C   UNL     1       5.073  -0.514  -5.712  0.00  0.00    +0.004 A 
ENDBRANCH  29  32
ENDBRANCH  25  26
ENDBRANCH   8  25
TORSDOF 6
