REMARK  Name = ZINC29908617
REMARK  9 active torsions:
REMARK  status: ('A' for Active; 'I' for Inactive)
REMARK    1  A    between atoms: C_1  and  C_2
REMARK    2  A    between atoms: C_2  and  C_3
REMARK    3  A    between atoms: C_3  and  C_5
REMARK    4  A    between atoms: C_3  and  N_26
REMARK    5  A    between atoms: C_5  and  N_6
REMARK    6  A    between atoms: C_7  and  C_9
REMARK    7  A    between atoms: C_9  and  S_10
REMARK    8  A    between atoms: S_10  and  C_11
REMARK    9  A    between atoms: C_11  and  C_12
REMARK                            x       y       z     vdW  Elec       q    Type
REMARK                         _______ _______ _______ _____ _____    ______ ____
ROOT
ATOM      1  N   UNL     1      -2.697  -2.656   0.185  0.00  0.00    -0.316 N 
ATOM      2  C   UNL     1      -2.855  -3.993   0.248  0.00  0.00    +0.223 C 
ATOM      3  O   UNL     1      -1.885  -4.720   0.213  0.00  0.00    -0.275 OA
ATOM      4  H   UNL     1      -3.473  -2.074   0.212  0.00  0.00    +0.149 HD
ENDROOT
BRANCH   1   5
ATOM      5  C   UNL     1      -1.354  -2.081   0.073  0.00  0.00    +0.089 C 
BRANCH   5   6
ATOM      6  C   UNL     1      -1.443  -0.556   0.170  0.00  0.00    -0.051 C 
BRANCH   6   7
ATOM      7  N   UNL     1      -1.704  -0.169   1.563  0.00  0.00    +0.385 N 
ATOM      8  C   UNL     1      -0.704  -0.791   2.443  0.00  0.00    -0.073 C 
ATOM      9  C   UNL     1      -0.798  -0.142   3.825  0.00  0.00    +0.017 C 
ATOM     10  C   UNL     1      -2.230  -0.156   4.297  0.00  0.00    -0.048 A 
ATOM     11  C   UNL     1      -2.488   0.062   5.642  0.00  0.00    +0.004 A 
ATOM     12  C   UNL     1      -3.787   0.059   6.111  0.00  0.00    +0.000 A 
ATOM     13  C   UNL     1      -4.834  -0.160   5.235  0.00  0.00    +0.000 A 
ATOM     14  C   UNL     1      -4.577  -0.378   3.896  0.00  0.00    +0.002 A 
ATOM     15  C   UNL     1      -3.273  -0.378   3.424  0.00  0.00    -0.061 A 
ATOM     16  C   UNL     1      -3.039  -0.628   1.957  0.00  0.00    -0.042 C 
ATOM     17  H   UNL     1      -1.653   0.836   1.649  0.00  0.00    -0.081 HD
ENDBRANCH   6   7
BRANCH   6  19
ATOM     18  C   UNL     1      -0.236   1.587  -0.268  0.00  0.00    +0.002 C 
ATOM     19  C   UNL     1      -0.121   0.061  -0.292  0.00  0.00    -0.017 C 
ENDBRANCH   6  19
ENDBRANCH   5   6
ENDBRANCH   1   5
BRANCH   2  20
ATOM     20  C   UNL     1      -4.236  -4.584   0.362  0.00  0.00    +0.165 C 
BRANCH  20  21
ATOM     21  S   UNL     1      -4.116  -6.393   0.426  0.00  0.00    -0.144 S 
BRANCH  21  22
ATOM     22  C   UNL     1      -5.839  -6.943   0.561  0.00  0.00    +0.143 C 
BRANCH  22  23
ATOM     23  C   UNL     1      -5.883  -8.448   0.624  0.00  0.00    +0.121 A 
ATOM     24  N   UNL     1      -7.083  -9.076   0.723  0.00  0.00    -0.310 N 
ATOM     25  H   UNL     1      -7.896  -8.547   0.750  0.00  0.00    +0.170 HD
ATOM     26  C   UNL     1      -7.168 -10.419   0.781  0.00  0.00    +0.260 A 
ATOM     27  O   UNL     1      -8.252 -10.969   0.869  0.00  0.00    -0.267 OA
ATOM     28  C   UNL     1      -5.960 -11.188   0.739  0.00  0.00    +0.075 A 
ATOM     29  C   UNL     1      -5.814 -12.650   0.788  0.00  0.00    -0.023 A 
ATOM     30  C   UNL     1      -4.563 -13.138   0.732  0.00  0.00    -0.004 A 
ATOM     31  S   UNL     1      -3.516 -11.706   0.609  0.00  0.00    -0.073 S 
ATOM     32  C   UNL     1      -4.771 -10.454   0.636  0.00  0.00    +0.116 A 
ATOM     33  N   UNL     1      -4.766  -9.124   0.578  0.00  0.00    -0.226 NA
ATOM     34  C   UNL     1      -4.536 -14.642   0.796  0.00  0.00    +0.043 C 
ATOM     35  C   UNL     1      -5.930 -15.032   1.334  0.00  0.00    +0.010 C 
ATOM     36  C   UNL     1      -6.785 -13.830   0.890  0.00  0.00    +0.037 C 
ENDBRANCH  22  23
ENDBRANCH  21  22
ENDBRANCH  20  21
ENDBRANCH   2  20
TORSDOF 8
