REMARK  Name = ZINC22015003
REMARK  6 active torsions:
REMARK  status: ('A' for Active; 'I' for Inactive)
REMARK    1  A    between atoms: C_4  and  C_7
REMARK    2  A    between atoms: C_14  and  C_18
REMARK    3  A    between atoms: C_18  and  N_19
REMARK    4  A    between atoms: N_19  and  C_20
REMARK    5  A    between atoms: N_19  and  C_30
REMARK    6  A    between atoms: C_20  and  C_21
REMARK                            x       y       z     vdW  Elec       q    Type
REMARK                         _______ _______ _______ _____ _____    ______ ____
ROOT
ATOM      1  C   UNL     1      -4.691   4.352   0.044  0.00  0.00    -0.002 C 
ENDROOT
BRANCH   1   9
ATOM      2  C   UNL     1      -4.948   3.726   6.333  0.00  0.00    +0.022 A 
ATOM      3  C   UNL     1      -5.322   2.779   5.436  0.00  0.00    +0.031 A 
ATOM      4  C   UNL     1      -5.212   3.036   4.060  0.00  0.00    +0.073 A 
ATOM      5  C   UNL     1      -5.552   2.187   2.954  0.00  0.00    +0.260 A 
ATOM      6  O   UNL     1      -5.994   1.068   3.146  0.00  0.00    -0.267 OA
ATOM      7  N   UNL     1      -5.369   2.643   1.701  0.00  0.00    -0.312 N 
ATOM      8  H   UNL     1      -5.620   2.005   0.841  0.00  0.00    +0.170 HD
ATOM      9  C   UNL     1      -4.878   3.887   1.466  0.00  0.00    +0.094 A 
ATOM     10  N   UNL     1      -4.563   4.686   2.450  0.00  0.00    -0.229 NA
ATOM     11  C   UNL     1      -4.714   4.309   3.714  0.00  0.00    +0.116 A 
ATOM     12  S   UNL     1      -4.415   5.072   5.289  0.00  0.00    -0.068 S 
BRANCH   2  16
ATOM     13  C   UNL     1      -5.031   3.538  10.575  0.00  0.00    +0.000 A 
ATOM     14  C   UNL     1      -4.577   4.683   9.946  0.00  0.00    +0.001 A 
ATOM     15  C   UNL     1      -4.547   4.750   8.568  0.00  0.00    +0.009 A 
ATOM     16  C   UNL     1      -4.977   3.661   7.810  0.00  0.00    -0.011 A 
ATOM     17  C   UNL     1      -5.440   2.510   8.451  0.00  0.00    +0.009 A 
ATOM     18  C   UNL     1      -5.459   2.454   9.829  0.00  0.00    +0.001 A 
ENDBRANCH   2  16
ENDBRANCH   1   9
BRANCH   1  19
ATOM     19  N   UNL     1      -4.294   5.766   0.041  0.00  0.00    +0.389 N 
ATOM     20  H   UNL     1      -3.514   5.900   0.805  0.00  0.00    -0.080 HD
BRANCH  19  21
ATOM     21  C   UNL     1      -3.723   6.149  -1.258  0.00  0.00    -0.068 C 
ATOM     22  C   UNL     1      -4.708   5.800  -2.392  0.00  0.00    -0.015 C 
ATOM     23  C   UNL     1      -3.798   5.325  -3.552  0.00  0.00    -0.002 C 
ATOM     24  C   UNL     1      -2.689   4.534  -2.815  0.00  0.00    -0.002 C 
ATOM     25  C   UNL     1      -2.439   5.345  -1.526  0.00  0.00    -0.015 C 
ENDBRANCH  19  21
BRANCH  19  26
ATOM     26  C   UNL     1      -5.426   6.633   0.394  0.00  0.00    -0.042 C 
BRANCH  26  27
ATOM     27  C   UNL     1      -4.932   8.038   0.620  0.00  0.00    -0.060 A 
ATOM     28  C   UNL     1      -4.878   8.929  -0.436  0.00  0.00    +0.005 A 
ATOM     29  C   UNL     1      -4.426  10.219  -0.234  0.00  0.00    +0.050 A 
ATOM     30  C   UNL     1      -4.024  10.623   1.029  0.00  0.00    +0.166 A 
ATOM     31  C   UNL     1      -4.079   9.726   2.093  0.00  0.00    +0.166 A 
ATOM     32  C   UNL     1      -4.539   8.436   1.884  0.00  0.00    +0.051 A 
ATOM     33  O   UNL     1      -3.636  10.358   3.219  0.00  0.00    -0.453 OA
ATOM     34  C   UNL     1      -3.696  11.765   2.920  0.00  0.00    +0.466 C 
ATOM     35  O   UNL     1      -3.547  11.816   1.488  0.00  0.00    -0.453 OA
ENDBRANCH  26  27
ENDBRANCH  19  26
ENDBRANCH   1  19
TORSDOF 6
