REMARK  Name = ZINC06134036
REMARK  13 active torsions:
REMARK  status: ('A' for Active; 'I' for Inactive)
REMARK    1  A    between atoms: C_1  and  C_2
REMARK    2  A    between atoms: C_2  and  O_3
REMARK    3  A    between atoms: O_3  and  C_4
REMARK    4  A    between atoms: C_11  and  C_16
REMARK    5  A    between atoms: C_16  and  C_18
REMARK    6  A    between atoms: C_16  and  N_75
REMARK    7  A    between atoms: N_22  and  C_23
REMARK    8  A    between atoms: C_23  and  C_24
REMARK    9  A    between atoms: C_23  and  C_25
REMARK   10  A    between atoms: C_23  and  C_26
REMARK   11  A    between atoms: N_29  and  C_32
REMARK   12  A    between atoms: C_36  and  C_39
REMARK   13  A    between atoms: C_37  and  C_38
REMARK                            x       y       z     vdW  Elec       q    Type
REMARK                         _______ _______ _______ _____ _____    ______ ____
ROOT
ATOM      1  C   UNL     1       3.493   0.618  -0.307  0.00  0.00    +0.039 C 
ENDROOT
BRANCH   1   9
ATOM      2  C   UNL     1       5.691   0.272  -6.093  0.00  0.00    +0.121 A 
ATOM      3  C   UNL     1       5.378   1.581  -6.450  0.00  0.00    +0.047 A 
ATOM      4  C   UNL     1       4.769   2.428  -5.551  0.00  0.00    +0.030 A 
ATOM      5  C   UNL     1       4.460   1.977  -4.271  0.00  0.00    +0.049 A 
ATOM      6  C   UNL     1       4.775   0.655  -3.906  0.00  0.00    +0.002 A 
ATOM      7  C   UNL     1       5.394  -0.196  -4.828  0.00  0.00    +0.055 A 
ATOM      8  C   UNL     1       4.449   0.195  -2.554  0.00  0.00    +0.017 A 
ATOM      9  C   UNL     1       3.845   1.061  -1.703  0.00  0.00    +0.011 A 
ATOM     10  C   UNL     1       3.551   2.377  -2.119  0.00  0.00    +0.251 A 
ATOM     11  O   UNL     1       3.011   3.140  -1.336  0.00  0.00    -0.268 OA
ATOM     12  N   UNL     1       3.849   2.810  -3.356  0.00  0.00    -0.322 N 
ATOM     13  H   UNL     1       3.626   3.749  -3.616  0.00  0.00    +0.169 HD
BRANCH   2  14
ATOM     14  O   UNL     1       6.293  -0.550  -6.993  0.00  0.00    -0.492 OA
BRANCH  14  16
ATOM     15  C   UNL     1       7.245  -1.068  -9.153  0.00  0.00    +0.048 C 
ATOM     16  C   UNL     1       6.573  -0.004  -8.284  0.00  0.00    +0.225 C 
ENDBRANCH  14  16
ENDBRANCH   2  14
ENDBRANCH   1   9
BRANCH   1  22
ATOM     17  C   UNL     1       5.552   1.625   0.474  0.00  0.00    -0.058 C 
ATOM     18  C   UNL     1       6.132   2.650   1.451  0.00  0.00    +0.086 C 
ATOM     19  N   UNL     1       5.809   2.248   2.828  0.00  0.00    -0.333 N 
ATOM     20  C   UNL     1       4.355   2.160   3.020  0.00  0.00    +0.086 C 
ATOM     21  C   UNL     1       3.775   1.135   2.042  0.00  0.00    -0.058 C 
ATOM     22  N   UNL     1       4.088   1.563   0.662  0.00  0.00    +0.391 N 
ATOM     23  H   UNL     1       3.691   2.497   0.504  0.00  0.00    -0.080 HD
BRANCH  19  24
ATOM     24  C   UNL     1       6.385   3.122   3.752  0.00  0.00    +0.033 A 
ATOM     25  C   UNL     1       5.994   4.455   3.787  0.00  0.00    +0.023 A 
ATOM     26  C   UNL     1       6.564   5.317   4.703  0.00  0.00    +0.002 A 
ATOM     27  C   UNL     1       7.524   4.854   5.585  0.00  0.00    +0.004 A 
ATOM     28  C   UNL     1       7.915   3.529   5.553  0.00  0.00    -0.046 A 
ATOM     29  C   UNL     1       7.345   2.660   4.643  0.00  0.00    -0.027 A 
ATOM     30  C   UNL     1       7.767   1.214   4.614  0.00  0.00    +0.046 C 
ATOM     31  C   UNL     1       8.961   3.029   6.516  0.00  0.00    +0.044 C 
ENDBRANCH  19  24
ENDBRANCH   1  22
BRANCH   1  32
ATOM     32  C   UNL     1       1.995   0.625  -0.140  0.00  0.00    +0.143 A 
ATOM     33  N   UNL     1       1.217   1.679  -0.098  0.00  0.00    -0.115 NA
ATOM     34  N   UNL     1       0.004   1.272   0.055  0.00  0.00    -0.023 NA
ATOM     35  N   UNL     1      -0.012  -0.014   0.111  0.00  0.00    -0.043 NA
ATOM     36  N   UNL     1       1.196  -0.451  -0.006  0.00  0.00    -0.225 N 
BRANCH  36  37
ATOM     37  C   UNL     1       1.620  -1.853   0.006  0.00  0.00    +0.059 C 
ATOM     38  C   UNL     1       0.390  -2.756   0.117  0.00  0.00    +0.036 C 
ATOM     39  C   UNL     1       2.370  -2.170  -1.289  0.00  0.00    +0.036 C 
ATOM     40  C   UNL     1       2.542  -2.097   1.203  0.00  0.00    +0.036 C 
ENDBRANCH  36  37
ENDBRANCH   1  32
TORSDOF 7
