REMARK  Name = ZINC09283208
REMARK  5 active torsions:
REMARK  status: ('A' for Active; 'I' for Inactive)
REMARK    1  A    between atoms: C_3  and  C_6
REMARK    2  A    between atoms: C_6  and  C_8
REMARK    3  A    between atoms: C_6  and  N_62
REMARK    4  A    between atoms: C_8  and  N_9
REMARK    5  A    between atoms: C_10  and  C_12
REMARK                            x       y       z     vdW  Elec       q    Type
REMARK                         _______ _______ _______ _____ _____    ______ ____
ROOT
ATOM      1  N   UNL     1      -5.876  -0.011   6.513  0.00  0.00    -0.312 N 
ATOM      2  C   UNL     1      -5.785  -0.518   5.268  0.00  0.00    +0.244 C 
ATOM      3  O   UNL     1      -6.111  -1.669   5.054  0.00  0.00    -0.270 OA
ATOM      4  H   UNL     1      -5.616   0.907   6.684  0.00  0.00    +0.149 HD
ENDROOT
BRANCH   2   5
ATOM      5  C   UNL     1      -5.287   0.328   4.159  0.00  0.00    +0.039 A 
ATOM      6  C   UNL     1      -4.913   1.653   4.411  0.00  0.00    +0.014 A 
ATOM      7  C   UNL     1      -4.451   2.449   3.401  0.00  0.00    +0.016 A 
ATOM      8  C   UNL     1      -4.352   1.939   2.107  0.00  0.00    +0.065 A 
ATOM      9  C   UNL     1      -4.725   0.604   1.836  0.00  0.00    +0.079 A 
ATOM     10  C   UNL     1      -5.195  -0.200   2.877  0.00  0.00    +0.041 A 
ATOM     11  N   UNL     1      -4.621   0.134   0.569  0.00  0.00    -0.233 NA
ATOM     12  C   UNL     1      -4.194   0.875  -0.408  0.00  0.00    +0.113 A 
ATOM     13  N   UNL     1      -3.814   2.176  -0.230  0.00  0.00    -0.296 N 
ATOM     14  C   UNL     1      -3.868   2.758   0.985  0.00  0.00    +0.262 A 
ATOM     15  O   UNL     1      -3.525   3.914   1.148  0.00  0.00    -0.267 OA
ATOM     16  C   UNL     1      -3.337   2.929  -1.397  0.00  0.00    +0.126 C 
ATOM     17  C   UNL     1      -4.529   3.287  -2.283  0.00  0.00    +0.022 C 
ATOM     18  C   UNL     1      -4.796   2.197  -3.307  0.00  0.00    +0.002 C 
ATOM     19  C   UNL     1      -5.232   0.895  -2.657  0.00  0.00    +0.008 C 
ATOM     20  C   UNL     1      -4.112   0.301  -1.805  0.00  0.00    +0.074 C 
ENDBRANCH   2   5
BRANCH   1  21
ATOM     21  C   UNL     1      -6.369  -0.848   7.610  0.00  0.00    +0.097 C 
BRANCH  21  22
ATOM     22  C   UNL     1      -6.261  -0.078   8.928  0.00  0.00    +0.016 C 
BRANCH  22  28
ATOM     23  C   UNL     1      -6.809   2.011  10.021  0.00  0.00    -0.078 C 
ATOM     24  C   UNL     1      -7.429   3.393   9.803  0.00  0.00    -0.019 C 
ATOM     25  C   UNL     1      -8.913   3.233   9.461  0.00  0.00    -0.004 C 
ATOM     26  C   UNL     1      -9.050   2.350   8.217  0.00  0.00    -0.019 C 
ATOM     27  C   UNL     1      -8.383   0.999   8.482  0.00  0.00    -0.078 C 
ATOM     28  N   UNL     1      -6.952   1.220   8.781  0.00  0.00    +0.387 N 
ATOM     29  H   UNL     1      -6.526   1.738   8.004  0.00  0.00    -0.081 HD
ENDBRANCH  22  28
BRANCH  22  32
ATOM     30  C   UNL     1      -7.188  -2.141  11.838  0.00  0.00    +0.041 A 
ATOM     31  C   UNL     1      -6.218  -1.507  11.027  0.00  0.00    +0.043 A 
ATOM     32  C   UNL     1      -6.884  -0.888  10.036  0.00  0.00    +0.093 A 
ATOM     33  O   UNL     1      -8.197  -1.118  10.197  0.00  0.00    -0.469 OA
ATOM     34  C   UNL     1      -8.387  -1.877  11.288  0.00  0.00    +0.195 A 
ENDBRANCH  22  32
ENDBRANCH  21  22
ENDBRANCH   1  21
TORSDOF 5
