REMARK  Name = ZINC38659655
REMARK  16 active torsions:
REMARK  status: ('A' for Active; 'I' for Inactive)
REMARK    1  A    between atoms: C_1  and  C_2
REMARK    2  A    between atoms: C_2  and  C_3
REMARK    3  A    between atoms: C_6  and  O_9
REMARK    4  A    between atoms: O_9  and  C_10
REMARK    5  A    between atoms: C_10  and  C_12
REMARK    6  A    between atoms: C_10  and  C_13
REMARK    7  A    between atoms: C_13  and  O_15
REMARK    8  A    between atoms: O_15  and  C_16
REMARK    9  A    between atoms: C_23  and  N_40
REMARK   10  A    between atoms: C_24  and  C_38
REMARK   11  A    between atoms: C_25  and  C_27
REMARK   12  A    between atoms: C_30  and  O_35
REMARK   13  A    between atoms: C_31  and  O_33
REMARK   14  A    between atoms: O_33  and  C_34
REMARK   15  A    between atoms: O_35  and  C_36
REMARK   16  A    between atoms: C_36  and  C_37
REMARK                            x       y       z     vdW  Elec       q    Type
REMARK                         _______ _______ _______ _____ _____    ______ ____
ROOT
ATOM      1  C   UNL     1       2.966  -4.421   8.136  0.00  0.00    +0.135 A 
ATOM      2  C   UNL     1       4.141  -4.862   7.544  0.00  0.00    +0.047 A 
ATOM      3  C   UNL     1       4.929  -5.796   8.187  0.00  0.00    +0.012 A 
ATOM      4  C   UNL     1       4.551  -6.297   9.421  0.00  0.00    +0.008 A 
ATOM      5  C   UNL     1       3.377  -5.860  10.015  0.00  0.00    +0.138 A 
ATOM      6  C   UNL     1       2.587  -4.915   9.373  0.00  0.00    +0.093 A 
ATOM      7  O   UNL     1       2.990  -6.339  11.224  0.00  0.00    -0.441 OA
ATOM      8  C   UNL     1       3.888  -6.930  12.029  0.00  0.00    +0.199 C 
ATOM      9  C   UNL     1       5.062  -7.415  11.560  0.00  0.00    +0.098 C 
ATOM     10  C   UNL     1       5.422  -7.316  10.105  0.00  0.00    +0.098 C 
ENDROOT
BRANCH  10  11
ATOM     11  C   UNL     1       5.228  -8.659   9.450  0.00  0.00    -0.031 A 
ATOM     12  C   UNL     1       3.974  -9.242   9.429  0.00  0.00    +0.008 A 
ATOM     13  C   UNL     1       3.791 -10.474   8.829  0.00  0.00    +0.050 A 
ATOM     14  C   UNL     1       4.865 -11.128   8.248  0.00  0.00    +0.162 A 
ATOM     15  C   UNL     1       6.127 -10.542   8.268  0.00  0.00    +0.162 A 
ATOM     16  C   UNL     1       6.303  -9.304   8.867  0.00  0.00    +0.054 A 
BRANCH  15  17
ATOM     17  O   UNL     1       7.184 -11.180   7.699  0.00  0.00    -0.491 OA
ATOM     18  C   UNL     1       8.449 -10.519   7.758  0.00  0.00    +0.277 C 
ENDBRANCH  15  17
BRANCH  14  19
ATOM     19  O   UNL     1       4.686 -12.340   7.658  0.00  0.00    -0.489 OA
BRANCH  19  20
ATOM     20  C   UNL     1       3.364 -12.881   7.675  0.00  0.00    +0.226 C 
ATOM     21  C   UNL     1       3.359 -14.239   6.970  0.00  0.00    +0.048 C 
ENDBRANCH  19  20
ENDBRANCH  14  19
ENDBRANCH  10  11
BRANCH   8  22
ATOM     22  N   UNL     1       3.607  -7.046  13.368  0.00  0.00    -0.328 N 
ATOM     23  H   UNL     1       2.770  -6.703  13.719  0.00  0.00    +0.145 HD
ATOM     24  H   UNL     1       4.245  -7.471  13.962  0.00  0.00    +0.145 HD
ENDBRANCH   8  22
BRANCH   9  25
ATOM     25  C   UNL     1       5.979  -8.034  12.470  0.00  0.00    +0.101 C 
ATOM     26  N   UNL     1       6.706  -8.525  13.191  0.00  0.00    -0.191 NA
ENDBRANCH   9  25
BRANCH   1  27
ATOM     27  O   UNL     1       2.189  -3.501   7.504  0.00  0.00    -0.423 OA
BRANCH  27  28
ATOM     28  C   UNL     1       1.570  -3.870   6.371  0.00  0.00    +0.353 C 
ATOM     29  O   UNL     1       1.632  -5.016   5.995  0.00  0.00    -0.246 OA
BRANCH  28  30
ATOM     30  C   UNL     1       0.798  -2.854   5.569  0.00  0.00    +0.279 C 
ATOM     31  C   UNL     1       1.761  -1.798   5.022  0.00  0.00    +0.064 C 
BRANCH  30  32
ATOM     32  O   UNL     1       0.140  -3.506   4.482  0.00  0.00    -0.478 OA
BRANCH  32  36
ATOM     33  C   UNL     1      -3.153  -1.609   2.876  0.00  0.00    -0.047 A 
ATOM     34  C   UNL     1      -2.515  -1.071   3.979  0.00  0.00    +0.007 A 
ATOM     35  C   UNL     1      -1.413  -1.704   4.519  0.00  0.00    +0.046 A 
ATOM     36  C   UNL     1      -0.945  -2.881   3.953  0.00  0.00    +0.122 A 
ATOM     37  C   UNL     1      -1.586  -3.420   2.847  0.00  0.00    +0.046 A 
ATOM     38  C   UNL     1      -2.692  -2.785   2.314  0.00  0.00    +0.007 A 
BRANCH  33  40
ATOM     39  C   UNL     1      -5.625  -1.436   2.966  0.00  0.00    +0.009 C 
ATOM     40  C   UNL     1      -4.355  -0.915   2.289  0.00  0.00    +0.032 C 
ENDBRANCH  33  40
ENDBRANCH  32  36
ENDBRANCH  30  32
ENDBRANCH  28  30
ENDBRANCH  27  28
ENDBRANCH   1  27
TORSDOF 12
