REMARK  Name = ZINC45725941
REMARK  3 active torsions:
REMARK  status: ('A' for Active; 'I' for Inactive)
REMARK    1  A    between atoms: C_1  and  C_2
REMARK    2  A    between atoms: C_4  and  N_9
REMARK    3  A    between atoms: N_9  and  C_10
REMARK                            x       y       z     vdW  Elec       q    Type
REMARK                         _______ _______ _______ _____ _____    ______ ____
ROOT
ATOM      1  N   UNL     1       0.030  -2.826  -2.330  0.00  0.00    -0.322 N 
ATOM      2  H   UNL     1       0.043  -3.795  -2.296  0.00  0.00    +0.148 HD
ENDROOT
BRANCH   1   3
ATOM      3  C   UNL     1       0.013  -2.139  -3.624  0.00  0.00    +0.104 C 
ATOM      4  C   UNL     1       0.644  -3.043  -4.681  0.00  0.00    +0.027 C 
ATOM      5  C   UNL     1       0.411  -2.406  -6.057  0.00  0.00    +0.008 C 
ATOM      6  C   UNL     1      -1.079  -2.492  -6.378  0.00  0.00    +0.054 C 
ATOM      7  C   UNL     1      -1.902  -1.956  -5.234  0.00  0.00    +0.024 A 
ATOM      8  C   UNL     1      -1.409  -1.804  -3.990  0.00  0.00    -0.008 A 
ATOM      9  C   UNL     1      -2.241  -1.309  -2.966  0.00  0.00    +0.012 A 
ATOM     10  C   UNL     1      -3.534  -0.984  -3.240  0.00  0.00    +0.070 A 
ATOM     11  C   UNL     1      -4.015  -1.149  -4.550  0.00  0.00    +0.249 A 
ATOM     12  O   UNL     1      -5.170  -0.862  -4.819  0.00  0.00    -0.268 OA
ATOM     13  N   UNL     1      -3.199  -1.622  -5.503  0.00  0.00    -0.326 N 
ATOM     14  H   UNL     1      -3.539  -1.731  -6.406  0.00  0.00    +0.169 HD
ENDBRANCH   1   3
BRANCH   1  18
ATOM     15  C   UNL     1      -0.018   1.503   0.010  0.00  0.00    +0.066 C 
ATOM     16  C   UNL     1       0.002  -0.004   0.002  0.00  0.00    +0.045 A 
ATOM     17  C   UNL     1       0.006  -0.696  -1.194  0.00  0.00    +0.066 A 
ATOM     18  C   UNL     1       0.026  -2.091  -1.156  0.00  0.00    +0.124 A 
ATOM     19  N   UNL     1       0.040  -2.705   0.023  0.00  0.00    -0.200 NA
ATOM     20  C   UNL     1       0.035  -2.005   1.148  0.00  0.00    +0.214 A 
ATOM     21  N   UNL     1       0.022  -0.680   1.141  0.00  0.00    -0.220 NA
ATOM     22  N   UNL     1       0.051  -2.674   2.359  0.00  0.00    -0.327 N 
ATOM     23  H   UNL     1       0.064  -3.643   2.377  0.00  0.00    +0.145 HD
ATOM     24  H   UNL     1       0.048  -2.173   3.190  0.00  0.00    +0.145 HD
ENDBRANCH   1  18
TORSDOF 2
