REMARK  Name = ZINC64671008
REMARK  12 active torsions:
REMARK  status: ('A' for Active; 'I' for Inactive)
REMARK    1  A    between atoms: C_1  and  C_2
REMARK    2  A    between atoms: C_4  and  C_12
REMARK    3  A    between atoms: C_12  and  C_13
REMARK    4  A    between atoms: C_13  and  N_14
REMARK    5  A    between atoms: N_14  and  C_15
REMARK    6  A    between atoms: C_15  and  C_16
REMARK    7  A    between atoms: C_19  and  C_22
REMARK    8  A    between atoms: C_22  and  C_23
REMARK    9  A    between atoms: C_25  and  O_34
REMARK   10  A    between atoms: C_28  and  O_29
REMARK   11  A    between atoms: O_29  and  C_30
REMARK   12  A    between atoms: O_34  and  C_35
REMARK                            x       y       z     vdW  Elec       q    Type
REMARK                         _______ _______ _______ _____ _____    ______ ____
ROOT
ATOM      1  C   UNL     1      -7.127  -1.301  -2.153  0.00  0.00    +0.044 C 
ATOM      2  N   UNL     1      -7.012  -0.611  -3.221  0.00  0.00    -0.096 NA
ATOM      3  O   UNL     1      -8.196  -0.579  -3.993  0.00  0.00    -0.390 OA
ATOM      4  C   UNL     1      -9.282  -0.994  -3.139  0.00  0.00    +0.214 C 
ATOM      5  C   UNL     1      -8.536  -1.857  -2.090  0.00  0.00    +0.099 C 
ENDROOT
BRANCH   1   6
ATOM      6  C   UNL     1      -6.043  -1.529  -1.132  0.00  0.00    -0.027 C 
BRANCH   6   7
ATOM      7  N   UNL     1      -4.822  -0.826  -1.547  0.00  0.00    +0.383 N 
ATOM      8  H   UNL     1      -5.012   0.162  -1.621  0.00  0.00    -0.085 HD
ATOM      9  H   UNL     1      -4.519  -1.178  -2.443  0.00  0.00    -0.085 HD
BRANCH   7  10
ATOM     10  C   UNL     1      -3.765  -1.049  -0.551  0.00  0.00    -0.078 C 
BRANCH  10  11
ATOM     11  C   UNL     1      -2.494  -0.316  -0.984  0.00  0.00    +0.014 C 
BRANCH  11  14
ATOM     12  C   UNL     1      -0.019   1.526   0.010  0.00  0.00    +0.035 C 
ATOM     13  C   UNL     1       0.002  -0.004   0.002  0.00  0.00    +0.103 C 
ATOM     14  C   UNL     1      -1.410  -0.545   0.038  0.00  0.00    -0.041 C 
ATOM     15  C   UNL     1      -1.503  -1.275   1.173  0.00  0.00    -0.001 A 
ATOM     16  C   UNL     1      -2.599  -2.045   1.772  0.00  0.00    +0.010 A 
ATOM     17  C   UNL     1      -2.386  -2.686   2.944  0.00  0.00    +0.001 A 
ATOM     18  C   UNL     1      -1.148  -2.632   3.599  0.00  0.00    +0.002 A 
ATOM     19  C   UNL     1      -0.094  -1.946   3.110  0.00  0.00    +0.026 A 
ATOM     20  C   UNL     1      -0.205  -1.235   1.884  0.00  0.00    +0.043 A 
ATOM     21  N   UNL     1       0.658  -0.508   1.214  0.00  0.00    -0.378 N 
ATOM     22  H   UNL     1       1.576  -0.332   1.476  0.00  0.00    +0.160 HD
ENDBRANCH  11  14
ENDBRANCH  10  11
ENDBRANCH   7  10
ENDBRANCH   6   7
ENDBRANCH   1   6
BRANCH   4  23
ATOM     23  C   UNL     1     -10.299  -1.835  -3.914  0.00  0.00    +0.086 C 
BRANCH  23  24
ATOM     24  C   UNL     1     -10.977  -0.975  -4.949  0.00  0.00    +0.005 A 
ATOM     25  C   UNL     1     -12.186  -0.368  -4.658  0.00  0.00    +0.057 A 
ATOM     26  C   UNL     1     -12.813   0.423  -5.607  0.00  0.00    +0.166 A 
ATOM     27  C   UNL     1     -12.227   0.610  -6.854  0.00  0.00    +0.211 A 
ATOM     28  C   UNL     1     -11.013   0.001  -7.146  0.00  0.00    +0.211 A 
ATOM     29  C   UNL     1     -10.386  -0.787  -6.188  0.00  0.00    +0.169 A 
ATOM     30  O   UNL     1     -10.651   0.335  -8.420  0.00  0.00    -0.449 OA
ATOM     31  C   UNL     1     -11.854   0.820  -9.046  0.00  0.00    +0.467 C 
ATOM     32  O   UNL     1     -12.631   1.327  -7.945  0.00  0.00    -0.449 OA
BRANCH  29  33
ATOM     33  O   UNL     1      -9.194  -1.381  -6.469  0.00  0.00    -0.491 OA
ATOM     34  C   UNL     1      -9.239  -2.685  -7.050  0.00  0.00    +0.277 C 
ENDBRANCH  29  33
BRANCH  26  35
ATOM     35  O   UNL     1     -14.003   1.017  -5.318  0.00  0.00    -0.491 OA
ATOM     36  C   UNL     1     -14.547   0.781  -4.018  0.00  0.00    +0.277 C 
ENDBRANCH  26  35
ENDBRANCH  23  24
ENDBRANCH   4  23
TORSDOF 9
