REMARK  Name = ZINC15062306
REMARK  10 active torsions:
REMARK  status: ('A' for Active; 'I' for Inactive)
REMARK    1  A    between atoms: C_1  and  O_2
REMARK    2  A    between atoms: O_2  and  C_3
REMARK    3  A    between atoms: C_3  and  C_4
REMARK    4  A    between atoms: C_4  and  N_5
REMARK    5  A    between atoms: C_8  and  C_11
REMARK    6  A    between atoms: C_11  and  N_12
REMARK    7  A    between atoms: N_12  and  C_13
REMARK    8  A    between atoms: N_12  and  C_20
REMARK    9  A    between atoms: C_13  and  C_14
REMARK   10  A    between atoms: C_20  and  C_21
REMARK                            x       y       z     vdW  Elec       q    Type
REMARK                         _______ _______ _______ _____ _____    ______ ____
ROOT
ATOM      1  N   UNL     1      -4.470  -6.034  -2.205  0.00  0.00    -0.294 NA
ENDROOT
BRANCH   1   2
ATOM      2  C   UNL     1      -4.312  -4.593  -2.446  0.00  0.00    +0.088 C 
BRANCH   2   6
ATOM      3  N   UNL     1      -0.984  -2.517  -0.746  0.00  0.00    +0.381 N 
ATOM      4  C   UNL     1      -1.242  -2.288  -2.173  0.00  0.00    -0.078 C 
ATOM      5  C   UNL     1      -2.676  -2.703  -2.509  0.00  0.00    -0.014 C 
ATOM      6  C   UNL     1      -2.859  -4.189  -2.187  0.00  0.00    -0.000 C 
ATOM      7  C   UNL     1      -2.516  -4.429  -0.714  0.00  0.00    -0.014 C 
ATOM      8  C   UNL     1      -1.088  -3.949  -0.445  0.00  0.00    -0.078 C 
ATOM      9  H   UNL     1      -1.662  -2.009  -0.198  0.00  0.00    -0.082 HD
BRANCH   3  10
ATOM     10  C   UNL     1       0.367  -2.044  -0.412  0.00  0.00    -0.050 C 
BRANCH  10  11
ATOM     11  C   UNL     1       0.440  -0.528  -0.608  0.00  0.00    +0.141 C 
BRANCH  11  13
ATOM     12  C   UNL     1      -0.435   1.540   0.229  0.00  0.00    +0.193 C 
ATOM     13  O   UNL     1      -0.428   0.115   0.328  0.00  0.00    -0.385 OA
ENDBRANCH  11  13
ENDBRANCH  10  11
ENDBRANCH   3  10
ENDBRANCH   2   6
ENDBRANCH   1   2
BRANCH   1  14
ATOM     14  C   UNL     1      -5.888  -6.390  -2.054  0.00  0.00    +0.120 C 
BRANCH  14  15
ATOM     15  C   UNL     1      -6.369  -5.967  -0.690  0.00  0.00    -0.030 A 
ATOM     16  C   UNL     1      -6.149  -6.768   0.420  0.00  0.00    +0.024 A 
ATOM     17  C   UNL     1      -6.605  -6.348   1.655  0.00  0.00    +0.111 A 
ATOM     18  N   UNL     1      -7.242  -5.201   1.784  0.00  0.00    -0.263 NA
ATOM     19  C   UNL     1      -7.469  -4.413   0.751  0.00  0.00    +0.111 A 
ATOM     20  C   UNL     1      -7.037  -4.765  -0.514  0.00  0.00    +0.024 A 
ENDBRANCH  14  15
ENDBRANCH   1  14
BRANCH   1  21
ATOM     21  C   UNL     1      -3.842  -6.818  -3.277  0.00  0.00    +0.123 C 
BRANCH  21  22
ATOM     22  C   UNL     1      -3.689  -8.249  -2.829  0.00  0.00    +0.003 A 
ATOM     23  C   UNL     1      -2.606  -8.637  -2.057  0.00  0.00    +0.120 A 
ATOM     24  N   UNL     1      -2.502  -9.901  -1.680  0.00  0.00    -0.223 NA
ATOM     25  C   UNL     1      -3.418 -10.790  -2.033  0.00  0.00    +0.212 A 
ATOM     26  N   UNL     1      -4.466 -10.452  -2.770  0.00  0.00    -0.223 NA
ATOM     27  C   UNL     1      -4.633  -9.203  -3.175  0.00  0.00    +0.120 A 
ATOM     28  N   UNL     1      -3.278 -12.104  -1.621  0.00  0.00    -0.327 N 
ATOM     29  H   UNL     1      -2.516 -12.365  -1.081  0.00  0.00    +0.145 HD
ATOM     30  H   UNL     1      -3.943 -12.765  -1.873  0.00  0.00    +0.145 HD
ENDBRANCH  21  22
ENDBRANCH   1  21
TORSDOF 9
