REMARK  Name = ZINC39702995
REMARK  9 active torsions:
REMARK  status: ('A' for Active; 'I' for Inactive)
REMARK    1  A    between atoms: C_1  and  C_2
REMARK    2  A    between atoms: C_9  and  C_20
REMARK    3  A    between atoms: C_11  and  C_14
REMARK    4  A    between atoms: C_23  and  C_26
REMARK    5  A    between atoms: C_29  and  O_32
REMARK    6  A    between atoms: O_32  and  C_33
REMARK    7  A    between atoms: C_34  and  C_36
REMARK    8  A    between atoms: C_36  and  C_37
REMARK    9  A    between atoms: C_37  and  C_38
REMARK                            x       y       z     vdW  Elec       q    Type
REMARK                         _______ _______ _______ _____ _____    ______ ____
ROOT
ATOM      1  C   UNL     1      -1.401  -4.692   2.930  0.00  0.00    +0.055 C 
ATOM      2  N   UNL     1      -2.318  -3.879   3.261  0.00  0.00    -0.185 NA
ATOM      3  N   UNL     1      -3.431  -4.473   3.852  0.00  0.00    -0.185 N 
ATOM      4  C   UNL     1      -3.208  -5.926   3.923  0.00  0.00    +0.137 C 
ATOM      5  C   UNL     1      -1.814  -6.102   3.287  0.00  0.00    +0.083 C 
ATOM      6  C   UNL     1      -4.529  -3.825   4.287  0.00  0.00    +0.236 C 
ATOM      7  O   UNL     1      -5.442  -4.447   4.789  0.00  0.00    -0.274 OA
ENDROOT
BRANCH   1  16
ATOM      8  C   UNL     1       0.629   1.474   0.027  0.00  0.00    +0.044 C 
ATOM      9  C   UNL     1       0.474  -0.025   0.014  0.00  0.00    -0.050 A 
ATOM     10  C   UNL     1       0.473  -0.701  -1.204  0.00  0.00    +0.005 A 
ATOM     11  C   UNL     1       0.337  -2.054  -1.275  0.00  0.00    +0.024 A 
ATOM     12  C   UNL     1       0.192  -2.808  -0.097  0.00  0.00    +0.041 A 
ATOM     13  N   UNL     1       0.058  -4.136  -0.168  0.00  0.00    -0.284 N 
ATOM     14  C   UNL     1      -0.082  -4.912   0.888  0.00  0.00    +0.230 C 
ATOM     15  O   UNL     1      -0.199  -6.116   0.747  0.00  0.00    -0.274 OA
ATOM     16  C   UNL     1      -0.098  -4.310   2.275  0.00  0.00    +0.152 C 
ATOM     17  C   UNL     1       0.051  -2.804   2.381  0.00  0.00    -0.014 C 
ATOM     18  C   UNL     1       0.193  -2.094   1.185  0.00  0.00    +0.001 A 
ATOM     19  C   UNL     1       0.344  -0.692   1.193  0.00  0.00    +0.013 A 
ATOM     20  H   UNL     1       0.065  -4.551  -1.045  0.00  0.00    +0.155 HD
BRANCH  17  21
ATOM     21  C   UNL     1       0.048  -2.147   3.637  0.00  0.00    -0.020 A 
ATOM     22  C   UNL     1       1.054  -2.417   4.580  0.00  0.00    +0.008 A 
ATOM     23  C   UNL     1       1.041  -1.773   5.797  0.00  0.00    +0.001 A 
ATOM     24  C   UNL     1       0.041  -0.861   6.093  0.00  0.00    +0.000 A 
ATOM     25  C   UNL     1      -0.955  -0.587   5.170  0.00  0.00    +0.001 A 
ATOM     26  C   UNL     1      -0.958  -1.216   3.945  0.00  0.00    +0.008 A 
ENDBRANCH  17  21
ENDBRANCH   1  16
BRANCH   4  27
ATOM     27  C   UNL     1      -3.210  -6.396   5.356  0.00  0.00    -0.024 A 
ATOM     28  C   UNL     1      -2.632  -5.614   6.338  0.00  0.00    +0.009 A 
ATOM     29  C   UNL     1      -2.632  -6.042   7.652  0.00  0.00    +0.046 A 
ATOM     30  C   UNL     1      -3.214  -7.257   7.984  0.00  0.00    +0.120 A 
ATOM     31  C   UNL     1      -3.794  -8.039   6.996  0.00  0.00    +0.046 A 
ATOM     32  C   UNL     1      -3.796  -7.604   5.685  0.00  0.00    +0.009 A 
BRANCH  30  33
ATOM     33  O   UNL     1      -3.215  -7.680   9.276  0.00  0.00    -0.495 OA
ATOM     34  C   UNL     1      -3.832  -8.941   9.545  0.00  0.00    +0.277 C 
ENDBRANCH  30  33
ENDBRANCH   4  27
BRANCH   6  35
ATOM     35  C   UNL     1      -4.624  -2.327   4.150  0.00  0.00    +0.109 C 
BRANCH  35  36
ATOM     36  C   UNL     1      -5.962  -1.846   4.718  0.00  0.00    +0.134 C 
BRANCH  36  37
ATOM     37  C   UNL     1      -6.056  -0.349   4.580  0.00  0.00    +0.356 C 
ATOM     38  O   UNL     1      -5.139   0.277   4.076  0.00  0.00    -0.246 OA
ATOM     39  O   UNL     1      -7.050   0.238   4.974  0.00  0.00    -0.246 OA
ENDBRANCH  36  37
ENDBRANCH  35  36
ENDBRANCH   6  35
TORSDOF 7
