REMARK  Name = ZINC15036414
REMARK  5 active torsions:
REMARK  status: ('A' for Active; 'I' for Inactive)
REMARK    1  A    between atoms: C_3  and  C_9
REMARK    2  A    between atoms: N_13  and  C_17
REMARK    3  A    between atoms: C_17  and  C_18
REMARK    4  A    between atoms: N_20  and  C_21
REMARK    5  A    between atoms: C_21  and  C_22
REMARK                            x       y       z     vdW  Elec       q    Type
REMARK                         _______ _______ _______ _____ _____    ______ ____
ROOT
ATOM      1  C   UNL     1       3.651   2.159  -0.022  0.00  0.00    +0.029 C 
ATOM      2  C   UNL     1       3.636   3.511  -0.117  0.00  0.00    +0.077 C 
ATOM      3  C   UNL     1       4.763   4.459  -0.250  0.00  0.00    +0.259 C 
ATOM      4  O   UNL     1       5.918   4.078  -0.290  0.00  0.00    -0.269 OA
ATOM      5  N   UNL     1       4.451   5.742  -0.324  0.00  0.00    -0.246 N 
ATOM      6  C   UNL     1       3.170   6.160  -0.279  0.00  0.00    +0.121 C 
ATOM      7  S   UNL     1       2.571   7.762  -0.359  0.00  0.00    -0.027 S 
ATOM      8  S   UNL     1       2.248   4.638  -0.125  0.00  0.00    -0.061 S 
ENDROOT
BRANCH   1  11
ATOM      9  C   UNL     1       0.140   1.407   1.059  0.00  0.00    +0.002 A 
ATOM     10  C   UNL     1       1.304   2.099   0.798  0.00  0.00    +0.009 A 
ATOM     11  C   UNL     1       2.407   1.428   0.259  0.00  0.00    -0.004 A 
ATOM     12  C   UNL     1       2.319   0.057  -0.011  0.00  0.00    +0.066 A 
ATOM     13  C   UNL     1       1.146  -0.621   0.256  0.00  0.00    +0.060 A 
ATOM     14  C   UNL     1       0.060   0.052   0.789  0.00  0.00    +0.021 A 
ATOM     15 CL   UNL     1       1.033  -2.321  -0.078  0.00  0.00    -0.082 Cl
ATOM     16 CL   UNL     1       3.680  -0.788  -0.681  0.00  0.00    -0.081 Cl
ENDBRANCH   1  11
BRANCH   5  17
ATOM     17  C   UNL     1       5.523   6.732  -0.456  0.00  0.00    +0.210 C 
BRANCH  17  18
ATOM     18  C   UNL     1       5.809   6.971  -1.916  0.00  0.00    +0.231 C 
ATOM     19  O   UNL     1       5.180   6.373  -2.763  0.00  0.00    -0.274 OA
ATOM     20  N   UNL     1       6.764   7.849  -2.281  0.00  0.00    -0.303 N 
ATOM     21  H   UNL     1       7.267   8.328  -1.603  0.00  0.00    +0.149 HD
BRANCH  20  22
ATOM     22  C   UNL     1       7.042   8.081  -3.700  0.00  0.00    +0.229 C 
BRANCH  22  23
ATOM     23  C   UNL     1       8.145   9.100  -3.836  0.00  0.00    +0.373 C 
ATOM     24  O   UNL     1       8.651   9.587  -2.840  0.00  0.00    -0.245 OA
ATOM     25  O   UNL     1       8.530   9.437  -4.943  0.00  0.00    -0.245 OA
ENDBRANCH  22  23
ENDBRANCH  20  22
ENDBRANCH  17  18
ENDBRANCH   5  17
TORSDOF 5
