REMARK  Name = ZINC04731337
REMARK  11 active torsions:
REMARK  status: ('A' for Active; 'I' for Inactive)
REMARK    1  A    between atoms: C_1  and  C_2
REMARK    2  A    between atoms: C_2  and  C_4
REMARK    3  A    between atoms: C_2  and  C_10
REMARK    4  A    between atoms: C_4  and  C_5
REMARK    5  A    between atoms: C_5  and  C_6
REMARK    6  A    between atoms: C_6  and  O_8
REMARK    7  A    between atoms: O_8  and  C_9
REMARK    8  A    between atoms: C_16  and  C_37
REMARK    9  A    between atoms: C_17  and  O_36
REMARK   10  A    between atoms: C_28  and  C_35
REMARK   11  A    between atoms: C_31  and  O_34
REMARK                            x       y       z     vdW  Elec       q    Type
REMARK                         _______ _______ _______ _____ _____    ______ ____
ROOT
ATOM      1  C   UNL     1       0.243   1.111   7.237  0.00  0.00    +0.001 C 
ATOM      2  C   UNL     1       1.550   1.933   7.122  0.00  0.00    +0.005 C 
ATOM      3  C   UNL     1       1.950   2.339   8.549  0.00  0.00    +0.005 C 
ATOM      4  C   UNL     1       0.954   1.628   9.504  0.00  0.00    +0.001 C 
ATOM      5  C   UNL     1      -0.302   1.455   8.631  0.00  0.00    +0.000 C 
ATOM      6  C   UNL     1      -1.276   0.440   9.170  0.00  0.00    +0.121 C 
ATOM      7  C   UNL     1      -0.650  -0.869   9.610  0.00  0.00    +0.036 C 
ATOM      8  C   UNL     1       0.591  -0.701  10.468  0.00  0.00    +0.001 C 
ATOM      9  C   UNL     1       1.567   0.277   9.853  0.00  0.00    -0.004 C 
ATOM     10  C   UNL     1       2.820   0.455  10.707  0.00  0.00    +0.004 C 
ATOM     11  C   UNL     1       2.456   0.763  12.159  0.00  0.00    +0.004 C 
ATOM     12  C   UNL     1       1.607  -0.379  12.712  0.00  0.00    -0.002 C 
ATOM     13  C   UNL     1       0.286  -0.466  11.940  0.00  0.00    -0.026 C 
ATOM     14  C   UNL     1      -0.501  -1.668  12.484  0.00  0.00    +0.010 C 
ATOM     15  C   UNL     1      -0.761  -1.514  13.979  0.00  0.00    +0.032 C 
ATOM     16  C   UNL     1       0.550  -1.367  14.749  0.00  0.00    +0.115 C 
ATOM     17  C   UNL     1       1.354  -0.186  14.203  0.00  0.00    +0.035 C 
ATOM     18  C   UNL     1      -0.534   0.800  12.165  0.00  0.00    +0.012 C 
ATOM     19  C   UNL     1      -1.022   2.812   8.550  0.00  0.00    +0.014 C 
ENDROOT
BRANCH   1  21
ATOM     20  C   UNL     1      -0.520   0.694   4.892  0.00  0.00    +0.008 C 
ATOM     21  C   UNL     1      -0.732   1.554   6.139  0.00  0.00    -0.010 C 
BRANCH  21  22
ATOM     22  C   UNL     1      -0.478   3.023   5.795  0.00  0.00    +0.014 C 
BRANCH  22  23
ATOM     23  C   UNL     1      -1.573   3.522   4.849  0.00  0.00    +0.121 C 
BRANCH  23  24
ATOM     24  C   UNL     1      -1.324   4.968   4.510  0.00  0.00    +0.307 C 
ATOM     25  O   UNL     1      -0.368   5.542   4.976  0.00  0.00    -0.251 OA
BRANCH  24  26
ATOM     26  O   UNL     1      -2.163   5.620   3.690  0.00  0.00    -0.468 OA
ATOM     27  C   UNL     1      -1.861   7.011   3.407  0.00  0.00    +0.280 C 
ENDBRANCH  24  26
ENDBRANCH  23  24
ENDBRANCH  22  23
ENDBRANCH  21  22
ENDBRANCH   1  21
BRANCH  16  28
ATOM     28  O   UNL     1       1.317  -2.566  14.628  0.00  0.00    -0.392 OA
ATOM     29  H   UNL     1       0.873  -3.353  14.972  0.00  0.00    +0.210 HD
ENDBRANCH  16  28
BRANCH   6  30
ATOM     30  O   UNL     1      -2.265   0.153   8.168  0.00  0.00    -0.391 OA
ATOM     31  H   UNL     1      -2.928  -0.495   8.444  0.00  0.00    +0.210 HD
ENDBRANCH   6  30
TORSDOF 7
