REMARK  Name = ZINC09192960
REMARK  7 active torsions:
REMARK  status: ('A' for Active; 'I' for Inactive)
REMARK    1  A    between atoms: C_1  and  O_2
REMARK    2  A    between atoms: O_2  and  C_3
REMARK    3  A    between atoms: C_7  and  C_9
REMARK    4  A    between atoms: C_16  and  N_34
REMARK    5  A    between atoms: C_17  and  C_32
REMARK    6  A    between atoms: C_18  and  C_20
REMARK    7  A    between atoms: C_23  and  C_26
REMARK                            x       y       z     vdW  Elec       q    Type
REMARK                         _______ _______ _______ _____ _____    ______ ____
ROOT
ATOM      1  C   UNL     1      -2.664  -4.491  -0.104  0.00  0.00    +0.074 A 
ATOM      2  C   UNL     1      -3.383  -5.109   0.863  0.00  0.00    +0.054 A 
ATOM      3  C   UNL     1      -3.252  -6.500   0.684  0.00  0.00    +0.245 A 
ATOM      4  N   UNL     1      -2.486  -6.710  -0.349  0.00  0.00    -0.135 NA
ATOM      5  N   UNL     1      -2.100  -5.468  -0.875  0.00  0.00    -0.273 N 
ATOM      6  H   UNL     1      -1.531  -5.327  -1.649  0.00  0.00    +0.189 HD
ATOM      7  O   UNL     1      -3.862  -7.393   1.509  0.00  0.00    -0.421 OA
ATOM      8  C   UNL     1      -4.375  -6.923   2.663  0.00  0.00    +0.201 C 
ATOM      9  C   UNL     1      -4.559  -5.615   2.942  0.00  0.00    +0.098 C 
ATOM     10  C   UNL     1      -4.209  -4.513   1.974  0.00  0.00    +0.102 C 
ENDROOT
BRANCH   1  15
ATOM     11  C   UNL     1      -2.090  -0.843   0.607  0.00  0.00    +0.121 A 
ATOM     12  C   UNL     1      -2.256  -0.294  -0.658  0.00  0.00    +0.045 A 
ATOM     13  C   UNL     1      -2.553  -1.107  -1.736  0.00  0.00    +0.004 A 
ATOM     14  C   UNL     1      -2.686  -2.470  -1.562  0.00  0.00    +0.010 A 
ATOM     15  C   UNL     1      -2.521  -3.030  -0.295  0.00  0.00    +0.004 A 
ATOM     16  C   UNL     1      -2.216  -2.210   0.791  0.00  0.00    +0.055 A 
BRANCH  11  18
ATOM     17  C   UNL     1      -1.682   1.360   1.401  0.00  0.00    +0.277 C 
ATOM     18  O   UNL     1      -1.797  -0.040   1.663  0.00  0.00    -0.495 OA
ENDBRANCH  11  18
ENDBRANCH   1  15
BRANCH  10  19
ATOM     19  C   UNL     1      -5.470  -3.915   1.406  0.00  0.00    -0.035 A 
ATOM     20  C   UNL     1      -6.331  -4.701   0.662  0.00  0.00    +0.005 A 
ATOM     21  C   UNL     1      -7.488  -4.159   0.140  0.00  0.00    +0.009 A 
ATOM     22  C   UNL     1      -7.787  -2.816   0.363  0.00  0.00    -0.018 A 
ATOM     23  C   UNL     1      -6.917  -2.029   1.113  0.00  0.00    +0.009 A 
ATOM     24  C   UNL     1      -5.766  -2.583   1.636  0.00  0.00    +0.005 A 
BRANCH  22  25
ATOM     25  C   UNL     1      -9.029  -2.227  -0.197  0.00  0.00    -0.018 A 
ATOM     26  C   UNL     1      -9.903  -3.016  -0.943  0.00  0.00    +0.008 A 
ATOM     27  C   UNL     1     -11.056  -2.463  -1.460  0.00  0.00    +0.001 A 
ATOM     28  C   UNL     1     -11.346  -1.129  -1.240  0.00  0.00    +0.000 A 
ATOM     29  C   UNL     1     -10.482  -0.341  -0.501  0.00  0.00    +0.001 A 
ATOM     30  C   UNL     1      -9.329  -0.885   0.027  0.00  0.00    +0.008 A 
ENDBRANCH  22  25
ENDBRANCH  10  19
BRANCH   8  31
ATOM     31  N   UNL     1      -4.736  -7.837   3.622  0.00  0.00    -0.328 N 
ATOM     32  H   UNL     1      -4.618  -8.785   3.456  0.00  0.00    +0.145 HD
ATOM     33  H   UNL     1      -5.108  -7.534   4.465  0.00  0.00    +0.145 HD
ENDBRANCH   8  31
BRANCH   9  34
ATOM     34  C   UNL     1      -5.112  -5.258   4.214  0.00  0.00    +0.101 C 
ATOM     35  N   UNL     1      -5.551  -4.975   5.223  0.00  0.00    -0.191 NA
ENDBRANCH   9  34
TORSDOF 6
