REMARK  Name = ZINC09761204
REMARK  11 active torsions:
REMARK  status: ('A' for Active; 'I' for Inactive)
REMARK    1  A    between atoms: C_1  and  C_2
REMARK    2  A    between atoms: C_2  and  O_3
REMARK    3  A    between atoms: O_3  and  C_4
REMARK    4  A    between atoms: C_4  and  C_6
REMARK    5  A    between atoms: C_7  and  N_36
REMARK    6  A    between atoms: N_8  and  C_26
REMARK    7  A    between atoms: C_11  and  C_13
REMARK    8  A    between atoms: C_16  and  S_19
REMARK    9  A    between atoms: S_19  and  C_20
REMARK   10  A    between atoms: C_29  and  S_32
REMARK   11  A    between atoms: S_32  and  N_35
REMARK                            x       y       z     vdW  Elec       q    Type
REMARK                         _______ _______ _______ _____ _____    ______ ____
ROOT
ATOM      1  C   UNL     1       6.157   2.353   1.155  0.00  0.00    +0.084 C 
ATOM      2  C   UNL     1       6.986   1.309   0.878  0.00  0.00    +0.103 C 
ATOM      3  N   UNL     1       7.495   1.151  -0.389  0.00  0.00    -0.261 N 
ATOM      4  C   UNL     1       7.521   2.204  -1.266  0.00  0.00    +0.024 C 
ATOM      5  C   UNL     1       6.726   3.278  -1.076  0.00  0.00    +0.025 C 
ATOM      6  C   UNL     1       5.776   3.342   0.093  0.00  0.00    +0.094 C 
ATOM      7  C   UNL     1       6.760   4.370  -1.961  0.00  0.00    +0.162 C 
ATOM      8  O   UNL     1       6.025   5.319  -1.766  0.00  0.00    -0.292 OA
ATOM      9  C   UNL     1       7.687   4.387  -3.145  0.00  0.00    +0.080 C 
ATOM     10  C   UNL     1       8.921   3.538  -2.824  0.00  0.00    +0.014 C 
ATOM     11  C   UNL     1       8.457   2.130  -2.448  0.00  0.00    +0.052 C 
ENDROOT
BRANCH   6  12
ATOM     12  C   UNL     1       4.380   3.039  -0.386  0.00  0.00    -0.035 A 
ATOM     13  C   UNL     1       3.385   3.992  -0.262  0.00  0.00    +0.005 A 
ATOM     14  C   UNL     1       2.105   3.717  -0.700  0.00  0.00    +0.015 A 
ATOM     15  C   UNL     1       1.816   2.482  -1.267  0.00  0.00    +0.008 A 
ATOM     16  C   UNL     1       2.817   1.525  -1.386  0.00  0.00    +0.015 A 
ATOM     17  C   UNL     1       4.096   1.808  -0.951  0.00  0.00    +0.005 A 
BRANCH  15  18
ATOM     18  S   UNL     1       0.184   2.127  -1.827  0.00  0.00    -0.129 S 
ATOM     19  C   UNL     1       0.299   0.436  -2.472  0.00  0.00    +0.090 C 
ENDBRANCH  15  18
ENDBRANCH   6  12
BRANCH   3  20
ATOM     20  C   UNL     1       7.990  -0.096  -0.787  0.00  0.00    +0.040 A 
ATOM     21  C   UNL     1       7.320  -0.835  -1.753  0.00  0.00    +0.026 A 
ATOM     22  C   UNL     1       7.815  -2.063  -2.148  0.00  0.00    +0.030 A 
ATOM     23  C   UNL     1       8.970  -2.561  -1.575  0.00  0.00    +0.105 A 
ATOM     24  C   UNL     1       9.637  -1.831  -0.608  0.00  0.00    +0.030 A 
ATOM     25  C   UNL     1       9.150  -0.600  -0.213  0.00  0.00    +0.026 A 
BRANCH  23  26
ATOM     26  S   UNL     1       9.594  -4.131  -2.076  0.00  0.00    +0.056 S 
ATOM     27  O   UNL     1       9.091  -4.369  -3.384  0.00  0.00    -0.153 OA
ATOM     28  O   UNL     1      10.984  -4.128  -1.783  0.00  0.00    -0.153 OA
BRANCH  26  29
ATOM     29  N   UNL     1       8.905  -5.269  -1.090  0.00  0.00    -0.204 NA
ATOM     30  H   UNL     1       8.747  -6.167  -1.422  0.00  0.00    +0.144 HD
ATOM     31  H   UNL     1       8.659  -5.038  -0.180  0.00  0.00    +0.144 HD
ENDBRANCH  26  29
ENDBRANCH  23  26
ENDBRANCH   3  20
BRANCH   2  32
ATOM     32  N   UNL     1       7.313   0.414   1.864  0.00  0.00    -0.346 N 
ATOM     33  H   UNL     1       7.452  -0.520   1.644  0.00  0.00    +0.143 HD
ATOM     34  H   UNL     1       7.405   0.716   2.781  0.00  0.00    +0.143 HD
ENDBRANCH   2  32
BRANCH   1  35
ATOM     35  C   UNL     1       5.651   2.506   2.454  0.00  0.00    +0.339 C 
ATOM     36  O   UNL     1       5.881   1.661   3.301  0.00  0.00    -0.245 OA
BRANCH  35  37
ATOM     37  O   UNL     1       4.910   3.591   2.766  0.00  0.00    -0.462 OA
BRANCH  37  39
ATOM     38  C   UNL     1       3.614   4.968   4.271  0.00  0.00    +0.048 C 
ATOM     39  C   UNL     1       4.427   3.682   4.108  0.00  0.00    +0.229 C 
ENDBRANCH  37  39
ENDBRANCH  35  37
ENDBRANCH   1  35
TORSDOF 9
