REMARK  Name = ZINC09276111
REMARK  12 active torsions:
REMARK  status: ('A' for Active; 'I' for Inactive)
REMARK    1  A    between atoms: C_1  and  C_2
REMARK    2  A    between atoms: N_5  and  S_8
REMARK    3  A    between atoms: S_8  and  C_11
REMARK    4  A    between atoms: C_14  and  C_17
REMARK    5  A    between atoms: C_17  and  N_19
REMARK    6  A    between atoms: N_21  and  C_32
REMARK    7  A    between atoms: C_25  and  C_29
REMARK    8  A    between atoms: C_29  and  C_30
REMARK    9  A    between atoms: C_29  and  C_31
REMARK   10  A    between atoms: C_32  and  C_33
REMARK   11  A    between atoms: C_33  and  O_35
REMARK   12  A    between atoms: O_35  and  C_36
REMARK                            x       y       z     vdW  Elec       q    Type
REMARK                         _______ _______ _______ _____ _____    ______ ____
ROOT
ATOM      1  C   UNL     1      -4.244   0.641  -0.188  0.00  0.00    +0.269 C 
ATOM      2  O   UNL     1      -4.776   0.813  -1.271  0.00  0.00    -0.268 OA
ENDROOT
BRANCH   1   3
ATOM      3  N   UNL     1      -2.919   0.767  -0.066  0.00  0.00    -0.152 NA
ATOM      4  C   UNL     1      -2.181   1.079  -1.126  0.00  0.00    +0.167 A 
ATOM      5  N   UNL     1      -0.833   1.249  -1.195  0.00  0.00    -0.310 N 
ATOM      6  C   UNL     1      -0.237   1.581  -2.397  0.00  0.00    +0.058 A 
ATOM      7  C   UNL     1       1.125   1.790  -2.666  0.00  0.00    +0.027 A 
ATOM      8  C   UNL     1       1.550   2.110  -3.933  0.00  0.00    +0.006 A 
ATOM      9  C   UNL     1       0.654   2.232  -4.982  0.00  0.00    -0.044 A 
ATOM     10  C   UNL     1      -0.694   2.027  -4.746  0.00  0.00    +0.021 A 
ATOM     11  C   UNL     1      -1.121   1.706  -3.479  0.00  0.00    +0.039 A 
ATOM     12  S   UNL     1      -2.705   1.368  -2.753  0.00  0.00    -0.052 S 
BRANCH   9  13
ATOM     13  C   UNL     1       1.141   2.584  -6.364  0.00  0.00    +0.013 C 
ATOM     14  C   UNL     1       1.844   3.943  -6.326  0.00  0.00    +0.012 C 
ATOM     15  C   UNL     1       2.123   1.515  -6.846  0.00  0.00    +0.012 C 
ENDBRANCH   9  13
BRANCH   5  16
ATOM     16  C   UNL     1      -0.013   1.086   0.008  0.00  0.00    +0.244 C 
BRANCH  16  17
ATOM     17  C   UNL     1      -0.717   1.711   1.185  0.00  0.00    +0.327 C 
ATOM     18  O   UNL     1      -1.708   2.380   1.011  0.00  0.00    -0.249 OA
BRANCH  17  19
ATOM     19  O   UNL     1      -0.243   1.524   2.427  0.00  0.00    -0.467 OA
ATOM     20  C   UNL     1      -0.971   2.156   3.512  0.00  0.00    +0.280 C 
ENDBRANCH  17  19
ENDBRANCH  16  17
ENDBRANCH   5  16
ENDBRANCH   1   3
BRANCH   1  24
ATOM     21  C   UNL     1      -6.605  -0.359   3.202  0.00  0.00    +0.106 A 
ATOM     22  C   UNL     1      -7.211  -0.164   1.974  0.00  0.00    +0.029 A 
ATOM     23  C   UNL     1      -6.450   0.161   0.870  0.00  0.00    +0.015 A 
ATOM     24  C   UNL     1      -5.067   0.293   0.994  0.00  0.00    +0.039 A 
ATOM     25  C   UNL     1      -4.461   0.090   2.234  0.00  0.00    +0.015 A 
ATOM     26  C   UNL     1      -5.233  -0.230   3.332  0.00  0.00    +0.029 A 
BRANCH  21  27
ATOM     27  S   UNL     1      -7.583  -0.774   4.608  0.00  0.00    +0.061 S 
ATOM     28  O   UNL     1      -6.844  -0.368   5.752  0.00  0.00    -0.153 OA
ATOM     29  O   UNL     1      -8.897  -0.300   4.342  0.00  0.00    -0.153 OA
BRANCH  27  34
ATOM     30  C   UNL     1      -6.640  -6.189   2.974  0.00  0.00    +0.007 C 
ATOM     31  C   UNL     1      -7.227  -5.105   3.881  0.00  0.00    -0.012 C 
ATOM     32  C   UNL     1      -6.091  -4.269   4.476  0.00  0.00    +0.020 C 
ATOM     33  C   UNL     1      -6.680  -3.207   5.410  0.00  0.00    +0.110 C 
ATOM     34  N   UNL     1      -7.679  -2.426   4.668  0.00  0.00    -0.177 NA
ATOM     35  C   UNL     1      -8.767  -3.138   3.985  0.00  0.00    +0.110 C 
ATOM     36  C   UNL     1      -8.152  -4.201   3.062  0.00  0.00    +0.020 C 
ENDBRANCH  27  34
ENDBRANCH  21  27
ENDBRANCH   1  24
TORSDOF 8
