REMARK  Name = ZINC64007166
REMARK  6 active torsions:
REMARK  status: ('A' for Active; 'I' for Inactive)
REMARK    1  A    between atoms: C_1  and  C_2
REMARK    2  A    between atoms: C_2  and  C_3
REMARK    3  A    between atoms: C_6  and  C_9
REMARK    4  A    between atoms: C_24  and  C_26
REMARK    5  A    between atoms: C_26  and  S_27
REMARK    6  A    between atoms: S_27  and  C_28
REMARK                            x       y       z     vdW  Elec       q    Type
REMARK                         _______ _______ _______ _____ _____    ______ ____
ROOT
ATOM      1  C   UNL     1       2.698  -1.856  -4.763  0.00  0.00    +0.133 C 
ATOM      2  C   UNL     1       3.051  -3.338  -4.593  0.00  0.00    +0.131 C 
ATOM      3  C   UNL     1       4.008  -3.688  -5.726  0.00  0.00    -0.035 C 
ATOM      4  C   UNL     1       3.461  -4.710  -6.375  0.00  0.00    -0.001 A 
ATOM      5  C   UNL     1       3.941  -5.521  -7.506  0.00  0.00    +0.010 A 
ATOM      6  C   UNL     1       3.105  -6.502  -7.937  0.00  0.00    +0.001 A 
ATOM      7  C   UNL     1       1.854  -6.753  -7.364  0.00  0.00    +0.002 A 
ATOM      8  C   UNL     1       1.335  -6.060  -6.320  0.00  0.00    +0.026 A 
ATOM      9  C   UNL     1       2.125  -5.006  -5.775  0.00  0.00    +0.043 A 
ATOM     10  N   UNL     1       1.879  -4.199  -4.758  0.00  0.00    -0.375 N 
ATOM     11  C   UNL     1       5.263  -2.897  -6.002  0.00  0.00    +0.052 C 
ATOM     12  C   UNL     1       4.846  -1.416  -6.069  0.00  0.00    +0.113 C 
ATOM     13  N   UNL     1       3.953  -1.110  -4.947  0.00  0.00    -0.291 N 
ATOM     14  C   UNL     1       4.284  -0.136  -4.076  0.00  0.00    +0.226 C 
ATOM     15  O   UNL     1       3.606   0.051  -3.088  0.00  0.00    -0.275 OA
ATOM     16  H   UNL     1       1.074  -4.171  -4.217  0.00  0.00    +0.160 HD
ENDROOT
BRANCH   1  20
ATOM     17  C   UNL     1       0.677  -0.444  -1.274  0.00  0.00    -0.048 A 
ATOM     18  C   UNL     1       1.516  -1.539  -1.191  0.00  0.00    +0.004 A 
ATOM     19  C   UNL     1       2.170  -1.996  -2.320  0.00  0.00    +0.006 A 
ATOM     20  C   UNL     1       1.984  -1.358  -3.532  0.00  0.00    -0.025 A 
ATOM     21  C   UNL     1       1.145  -0.263  -3.615  0.00  0.00    +0.006 A 
ATOM     22  C   UNL     1       0.488   0.192  -2.487  0.00  0.00    +0.004 A 
BRANCH  17  24
ATOM     23  C   UNL     1      -1.385  -0.654   0.087  0.00  0.00    +0.009 C 
ATOM     24  C   UNL     1      -0.035   0.055  -0.043  0.00  0.00    +0.032 C 
ENDBRANCH  17  24
ENDBRANCH   1  20
BRANCH  14  25
ATOM     25  C   UNL     1       5.498   0.720  -4.329  0.00  0.00    +0.164 C 
BRANCH  25  26
ATOM     26  S   UNL     1       5.676   1.929  -2.989  0.00  0.00    -0.155 S 
ATOM     27  C   UNL     1       7.162   2.867  -3.438  0.00  0.00    +0.085 C 
ENDBRANCH  25  26
ENDBRANCH  14  25
TORSDOF 4
