REMARK  Name = ZINC10756815
REMARK  4 active torsions:
REMARK  status: ('A' for Active; 'I' for Inactive)
REMARK    1  A    between atoms: C_3  and  S_6
REMARK    2  A    between atoms: S_6  and  N_9
REMARK    3  A    between atoms: C_13  and  C_16
REMARK    4  A    between atoms: C_22  and  C_24
REMARK                            x       y       z     vdW  Elec       q    Type
REMARK                         _______ _______ _______ _____ _____    ______ ____
ROOT
ATOM      1  C   UNL     1      -1.187   1.624   0.017  0.00  0.00    +0.225 C 
ATOM      2  O   UNL     1      -1.204   2.836   0.023  0.00  0.00    -0.275 OA
ATOM      3  N   UNL     1      -0.011   0.966   0.007  0.00  0.00    -0.238 N 
ATOM      4  C   UNL     1       1.180   1.675  -0.000  0.00  0.00    +0.314 A 
ATOM      5  N   UNL     1       1.305   2.980   0.006  0.00  0.00    -0.092 NA
ATOM      6  N   UNL     1       2.553   3.291  -0.004  0.00  0.00    -0.106 NA
ATOM      7  C   UNL     1       3.274   2.195  -0.018  0.00  0.00    +0.250 A 
ATOM      8  O   UNL     1       2.419   1.150  -0.009  0.00  0.00    -0.405 OA
ATOM      9  H   UNL     1       0.002  -0.004   0.002  0.00  0.00    +0.159 HD
ENDROOT
BRANCH   7  10
ATOM     10  C   UNL     1       4.750   2.119  -0.032  0.00  0.00    +0.039 A 
ATOM     11  C   UNL     1       5.387   0.877  -0.039  0.00  0.00    +0.014 A 
ATOM     12  C   UNL     1       6.765   0.812  -0.058  0.00  0.00    +0.021 A 
ATOM     13  C   UNL     1       7.516   1.975  -0.058  0.00  0.00    +0.041 A 
ATOM     14  C   UNL     1       6.889   3.210  -0.046  0.00  0.00    +0.021 A 
ATOM     15  C   UNL     1       5.512   3.288  -0.033  0.00  0.00    +0.014 A 
ATOM     16 CL   UNL     1       9.249   1.885  -0.074  0.00  0.00    -0.084 Cl
ENDBRANCH   7  10
BRANCH   1  21
ATOM     17  N   UNL     1      -4.910   1.069  -0.104  0.00  0.00    -0.175 NA
ATOM     18  C   UNL     1      -5.051   0.130  -1.225  0.00  0.00    +0.109 C 
ATOM     19  C   UNL     1      -3.857  -0.830  -1.218  0.00  0.00    +0.018 C 
ATOM     20  C   UNL     1      -2.558  -0.022  -1.235  0.00  0.00    +0.015 C 
ATOM     21  C   UNL     1      -2.482   0.853   0.018  0.00  0.00    +0.091 C 
ATOM     22  C   UNL     1      -3.660   1.832   0.025  0.00  0.00    +0.122 C 
BRANCH  17  23
ATOM     23  S   UNL     1      -6.135   1.264   0.993  0.00  0.00    +0.067 S 
ATOM     24  O   UNL     1      -5.964   2.552   1.568  0.00  0.00    -0.152 OA
ATOM     25  O   UNL     1      -7.333   0.876   0.337  0.00  0.00    -0.152 OA
BRANCH  23  28
ATOM     26  C   UNL     1      -5.085  -0.824   4.311  0.00  0.00    +0.010 A 
ATOM     27  C   UNL     1      -5.159   0.239   3.432  0.00  0.00    +0.036 A 
ATOM     28  C   UNL     1      -5.867   0.096   2.285  0.00  0.00    +0.143 A 
ATOM     29  S   UNL     1      -6.466  -1.580   2.428  0.00  0.00    -0.077 S 
ATOM     30  C   UNL     1      -5.723  -1.979   4.002  0.00  0.00    +0.047 A 
ENDBRANCH  23  28
ENDBRANCH  17  23
ENDBRANCH   1  21
TORSDOF 4
