REMARK  Name = ZINC13815721
REMARK  16 active torsions:
REMARK  status: ('A' for Active; 'I' for Inactive)
REMARK    1  A    between atoms: C_1  and  C_2
REMARK    2  A    between atoms: C_2  and  C_3
REMARK    3  A    between atoms: C_2  and  C_4
REMARK    4  A    between atoms: C_4  and  C_5
REMARK    5  A    between atoms: C_5  and  C_6
REMARK    6  A    between atoms: C_6  and  C_7
REMARK    7  A    between atoms: C_6  and  C_14
REMARK    8  A    between atoms: C_6  and  O_41
REMARK    9  A    between atoms: C_7  and  C_9
REMARK   10  A    between atoms: C_7  and  O_13
REMARK   11  A    between atoms: C_9  and  O_11
REMARK   12  A    between atoms: O_11  and  C_12
REMARK   13  A    between atoms: C_14  and  O_16
REMARK   14  A    between atoms: O_16  and  C_17
REMARK   15  A    between atoms: C_35  and  O_36
REMARK   16  A    between atoms: O_36  and  C_37
REMARK                            x       y       z     vdW  Elec       q    Type
REMARK                         _______ _______ _______ _____ _____    ______ ____
ROOT
ATOM      1  C   UNL     1      -0.618   3.166  -3.526  0.00  0.00    +0.250 C 
ATOM      2  C   UNL     1      -0.080   2.127  -2.512  0.00  0.00    +0.092 C 
ATOM      3  C   UNL     1      -0.163   0.749  -3.023  0.00  0.00    -0.031 A 
ATOM      4  C   UNL     1       0.985   0.343  -3.737  0.00  0.00    +0.054 A 
ATOM      5  C   UNL     1       0.946  -0.829  -4.461  0.00  0.00    +0.167 A 
ATOM      6  C   UNL     1      -0.218  -1.613  -4.487  0.00  0.00    +0.167 A 
ATOM      7  C   UNL     1      -1.318  -1.248  -3.739  0.00  0.00    +0.053 A 
ATOM      8  C   UNL     1      -1.255  -0.072  -2.972  0.00  0.00    -0.039 A 
ATOM      9  C   UNL     1      -2.459   0.162  -2.115  0.00  0.00    +0.051 C 
ATOM     10  C   UNL     1      -2.146   0.773  -0.789  0.00  0.00    +0.090 C 
ATOM     11  N   UNL     1      -1.944   2.202  -0.783  0.00  0.00    -0.292 NA
ATOM     12  C   UNL     1      -0.619   2.632  -1.222  0.00  0.00    +0.054 C 
ATOM     13  C   UNL     1       0.294   2.338  -0.011  0.00  0.00    +0.028 C 
ATOM     14  C   UNL     1      -0.612   2.744   1.179  0.00  0.00    +0.017 C 
ATOM     15  C   UNL     1      -2.050   2.693   0.623  0.00  0.00    +0.085 C 
ATOM     16  C   UNL     1      -0.668   4.149  -1.413  0.00  0.00    +0.041 C 
ATOM     17  C   UNL     1      -0.666   4.439  -2.699  0.00  0.00    +0.136 C 
ATOM     18  O   UNL     1      -0.013  -2.672  -5.302  0.00  0.00    -0.453 OA
ATOM     19  C   UNL     1       1.419  -2.766  -5.456  0.00  0.00    +0.466 C 
ATOM     20  O   UNL     1       1.883  -1.417  -5.241  0.00  0.00    -0.453 OA
ENDROOT
BRANCH  17  21
ATOM     21  O   UNL     1      -0.702   5.696  -3.210  0.00  0.00    -0.496 OA
ATOM     22  C   UNL     1      -0.745   6.776  -2.275  0.00  0.00    +0.276 C 
ENDBRANCH  17  21
BRANCH   1  23
ATOM     23  O   UNL     1      -1.944   2.796  -3.988  0.00  0.00    -0.451 OA
BRANCH  23  24
ATOM     24  C   UNL     1      -2.283   3.172  -5.231  0.00  0.00    +0.343 C 
ATOM     25  O   UNL     1      -1.498   3.790  -5.911  0.00  0.00    -0.247 OA
BRANCH  24  26
ATOM     26  C   UNL     1      -3.643   2.824  -5.779  0.00  0.00    +0.199 C 
BRANCH  26  27
ATOM     27  O   UNL     1      -4.044   1.546  -5.282  0.00  0.00    -0.375 OA
ATOM     28  H   UNL     1      -4.145   1.384  -4.199  0.00  0.00    +0.211 HD
ENDBRANCH  26  27
BRANCH  26  29
ATOM     29  C   UNL     1      -3.581   2.781  -7.308  0.00  0.00    +0.050 C 
BRANCH  29  30
ATOM     30  C   UNL     1      -2.593   1.698  -7.747  0.00  0.00    +0.006 C 
BRANCH  30  32
ATOM     31  C   UNL     1      -1.351   0.746  -9.695  0.00  0.00    +0.007 C 
ATOM     32  C   UNL     1      -2.430   1.743  -9.268  0.00  0.00    -0.017 C 
ATOM     33  C   UNL     1      -3.758   1.375  -9.934  0.00  0.00    +0.007 C 
ENDBRANCH  30  32
ENDBRANCH  29  30
ENDBRANCH  26  29
BRANCH  26  34
ATOM     34  C   UNL     1      -4.656   3.883  -5.340  0.00  0.00    +0.265 C 
BRANCH  34  35
ATOM     35  C   UNL     1      -6.001   3.575  -5.947  0.00  0.00    +0.339 C 
ATOM     36  O   UNL     1      -6.476   4.319  -6.772  0.00  0.00    -0.248 OA
BRANCH  35  37
ATOM     37  O   UNL     1      -6.670   2.473  -5.572  0.00  0.00    -0.466 OA
ATOM     38  C   UNL     1      -7.959   2.239  -6.198  0.00  0.00    +0.280 C 
ENDBRANCH  35  37
ENDBRANCH  34  35
BRANCH  34  39
ATOM     39  O   UNL     1      -4.220   5.171  -5.779  0.00  0.00    -0.378 OA
ATOM     40  H   UNL     1      -4.824   6.063  -5.555  0.00  0.00    +0.211 HD
ENDBRANCH  34  39
ENDBRANCH  26  34
ENDBRANCH  24  26
ENDBRANCH  23  24
ENDBRANCH   1  23
TORSDOF 12
