REMARK  Name = ZINC04004962
REMARK  6 active torsions:
REMARK  status: ('A' for Active; 'I' for Inactive)
REMARK    1  A    between atoms: C_1  and  C_2
REMARK    2  A    between atoms: C_7  and  N_12
REMARK    3  A    between atoms: C_9  and  C_11
REMARK    4  A    between atoms: C_13  and  C_15
REMARK    5  A    between atoms: N_25  and  C_28
REMARK    6  A    between atoms: C_28  and  C_29
REMARK                            x       y       z     vdW  Elec       q    Type
REMARK                         _______ _______ _______ _____ _____    ______ ____
ROOT
ATOM      1  C   UNL     1      -2.262  -4.289   1.743  0.00  0.00    +0.039 A 
ATOM      2  C   UNL     1      -3.299  -3.498   1.240  0.00  0.00    +0.014 A 
ATOM      3  C   UNL     1      -4.595  -3.966   1.245  0.00  0.00    +0.016 A 
ATOM      4  C   UNL     1      -4.869  -5.233   1.754  0.00  0.00    +0.063 A 
ATOM      5  C   UNL     1      -3.831  -6.032   2.262  0.00  0.00    +0.056 A 
ATOM      6  C   UNL     1      -2.529  -5.559   2.250  0.00  0.00    +0.039 A 
ATOM      7  N   UNL     1      -4.139  -7.290   2.762  0.00  0.00    -0.307 N 
ATOM      8  H   UNL     1      -3.433  -7.852   3.116  0.00  0.00    +0.170 HD
ATOM      9  C   UNL     1      -5.407  -7.736   2.761  0.00  0.00    +0.330 A 
ATOM     10  O   UNL     1      -5.634  -8.844   3.209  0.00  0.00    -0.246 OA
ATOM     11  N   UNL     1      -6.433  -7.012   2.288  0.00  0.00    -0.258 N 
ATOM     12  C   UNL     1      -6.242  -5.775   1.779  0.00  0.00    +0.264 A 
ATOM     13  O   UNL     1      -7.177  -5.125   1.353  0.00  0.00    -0.267 OA
ENDROOT
BRANCH   1  15
ATOM     14  N   UNL     1      -0.612  -2.548   1.244  0.00  0.00    -0.308 N 
ATOM     15  C   UNL     1      -0.873  -3.776   1.733  0.00  0.00    +0.244 C 
ATOM     16  O   UNL     1       0.031  -4.463   2.165  0.00  0.00    -0.270 OA
ATOM     17  H   UNL     1      -1.333  -2.000   0.898  0.00  0.00    +0.149 HD
BRANCH  14  23
ATOM     18  C   UNL     1      -0.019   1.526   0.010  0.00  0.00    +0.008 C 
ATOM     19  C   UNL     1       0.002  -0.004   0.002  0.00  0.00    -0.009 C 
ATOM     20  C   UNL     1       0.718  -0.497  -1.257  0.00  0.00    +0.003 C 
ATOM     21  C   UNL     1       0.739  -2.027  -1.265  0.00  0.00    +0.002 C 
ATOM     22  C   UNL     1       1.479  -2.534  -0.026  0.00  0.00    +0.022 C 
ATOM     23  C   UNL     1       0.763  -2.041   1.233  0.00  0.00    +0.076 C 
ATOM     24  C   UNL     1       0.742  -0.511   1.242  0.00  0.00    +0.009 C 
ATOM     25  C   UNL     1       0.026  -0.018   2.500  0.00  0.00    +0.009 C 
ENDBRANCH  14  23
ENDBRANCH   1  15
BRANCH  11  26
ATOM     26  C   UNL     1      -7.786  -7.573   2.324  0.00  0.00    +0.161 C 
BRANCH  26  27
ATOM     27  C   UNL     1      -8.458  -7.198   3.647  0.00  0.00    +0.138 C 
ATOM     28  C   UNL     1      -9.837  -7.885   3.746  0.00  0.00    +0.035 C 
ATOM     29  C   UNL     1     -10.710  -6.779   4.400  0.00  0.00    +0.031 C 
ATOM     30  C   UNL     1     -10.081  -5.505   3.782  0.00  0.00    +0.160 C 
ATOM     31  O   UNL     1      -8.672  -5.783   3.699  0.00  0.00    -0.375 OA
ENDBRANCH  26  27
ENDBRANCH  11  26
TORSDOF 4
