REMARK  Name = ZINC47154209
REMARK  4 active torsions:
REMARK  status: ('A' for Active; 'I' for Inactive)
REMARK    1  A    between atoms: C_1  and  C_2
REMARK    2  A    between atoms: C_6  and  N_8
REMARK    3  A    between atoms: C_12  and  C_13
REMARK    4  A    between atoms: C_17  and  N_19
REMARK                            x       y       z     vdW  Elec       q    Type
REMARK                         _______ _______ _______ _____ _____    ______ ____
ROOT
ATOM      1  N   UNL     1      -1.210  -3.075   2.244  0.00  0.00    -0.215 N 
ATOM      2  C   UNL     1      -0.736  -4.309   2.291  0.00  0.00    +0.263 C 
ATOM      3  O   UNL     1      -0.474  -4.928   1.276  0.00  0.00    -0.269 OA
ATOM      4  C   UNL     1      -0.539  -4.901   3.629  0.00  0.00    +0.078 C 
ATOM      5  C   UNL     1      -0.073  -6.129   3.966  0.00  0.00    +0.028 C 
ATOM      6  S   UNL     1      -1.077  -3.565   4.686  0.00  0.00    -0.049 S 
ATOM      7  C   UNL     1      -1.495  -2.388   3.410  0.00  0.00    +0.165 C 
ATOM      8  N   UNL     1      -1.959  -1.177   3.544  0.00  0.00    -0.279 NA
ATOM      9  H   UNL     1      -2.115  -0.813   4.429  0.00  0.00    +0.189 HD
ENDROOT
BRANCH   1  15
ATOM     10  C   UNL     1      -0.087   0.487  -0.954  0.00  0.00    +0.044 C 
ATOM     11  C   UNL     1      -0.889  -0.729  -0.571  0.00  0.00    -0.049 A 
ATOM     12  C   UNL     1      -1.835  -1.236  -1.443  0.00  0.00    +0.003 A 
ATOM     13  C   UNL     1      -2.573  -2.352  -1.095  0.00  0.00    +0.002 A 
ATOM     14  C   UNL     1      -2.368  -2.964   0.127  0.00  0.00    +0.024 A 
ATOM     15  C   UNL     1      -1.420  -2.457   1.005  0.00  0.00    +0.044 A 
ATOM     16  C   UNL     1      -0.675  -1.340   0.649  0.00  0.00    +0.027 A 
ENDBRANCH   1  15
BRANCH   5  17
ATOM     17  C   UNL     1      -0.147  -6.586   5.361  0.00  0.00    -0.022 A 
ATOM     18  C   UNL     1      -0.853  -5.838   6.310  0.00  0.00    +0.008 A 
ATOM     19  C   UNL     1      -0.916  -6.273   7.617  0.00  0.00    +0.003 A 
ATOM     20  C   UNL     1      -0.285  -7.446   7.991  0.00  0.00    +0.033 A 
ATOM     21  C   UNL     1       0.416  -8.192   7.059  0.00  0.00    +0.127 A 
ATOM     22  C   UNL     1       0.484  -7.774   5.747  0.00  0.00    +0.040 A 
BRANCH  21  23
ATOM     23  N   UNL     1       1.089  -9.444   7.470  0.00  0.00    +0.056 N 
ATOM     24  O   UNL     1       1.026  -9.815   8.619  0.00  0.00    -0.126 OA
ATOM     25  O   UNL     1       1.701 -10.097   6.657  0.00  0.00    -0.126 OA
ENDBRANCH  21  23
ENDBRANCH   5  17
TORSDOF 3
