REMARK  Name = ZINC09674067
REMARK  9 active torsions:
REMARK  status: ('A' for Active; 'I' for Inactive)
REMARK    1  A    between atoms: C_1  and  C_2
REMARK    2  A    between atoms: C_5  and  C_36
REMARK    3  A    between atoms: C_9  and  C_10
REMARK    4  A    between atoms: C_9  and  N_75
REMARK    5  A    between atoms: C_10  and  C_11
REMARK    6  A    between atoms: C_11  and  N_12
REMARK    7  A    between atoms: C_13  and  C_15
REMARK    8  A    between atoms: N_17  and  C_30
REMARK    9  A    between atoms: N_28  and  C_29
REMARK                            x       y       z     vdW  Elec       q    Type
REMARK                         _______ _______ _______ _____ _____    ______ ____
ROOT
ATOM      1  C   UNL     1       2.829   3.450  -0.008  0.00  0.00    +0.063 A 
ATOM      2  C   UNL     1       1.564   2.931   0.030  0.00  0.00    +0.103 A 
ATOM      3  N   UNL     1       1.363   1.593   0.029  0.00  0.00    -0.310 N 
ATOM      4  C   UNL     1       2.377   0.712  -0.019  0.00  0.00    +0.276 A 
ATOM      5  O   UNL     1       2.137  -0.483  -0.022  0.00  0.00    -0.265 OA
ATOM      6  C   UNL     1       3.718   1.155  -0.067  0.00  0.00    +0.116 A 
ATOM      7  C   UNL     1       3.966   2.525  -0.063  0.00  0.00    +0.026 A 
ATOM      8  C   UNL     1       5.421   2.692  -0.119  0.00  0.00    +0.009 A 
ATOM      9  C   UNL     1       6.266   3.803  -0.141  0.00  0.00    +0.010 A 
ATOM     10  C   UNL     1       7.620   3.628  -0.197  0.00  0.00    +0.001 A 
ATOM     11  C   UNL     1       8.164   2.351  -0.232  0.00  0.00    +0.002 A 
ATOM     12  C   UNL     1       7.350   1.241  -0.210  0.00  0.00    +0.026 A 
ATOM     13  C   UNL     1       5.967   1.395  -0.154  0.00  0.00    +0.050 A 
ATOM     14  N   UNL     1       4.928   0.490  -0.122  0.00  0.00    -0.339 N 
ATOM     15  C   UNL     1       5.084  -0.966  -0.143  0.00  0.00    +0.149 C 
ENDROOT
BRANCH   3  16
ATOM     16  C   UNL     1      -0.011   1.085   0.077  0.00  0.00    +0.090 C 
ATOM     17  C   UNL     1      -0.690   1.572   1.358  0.00  0.00    +0.025 C 
ATOM     18  C   UNL     1      -2.124   1.042   1.408  0.00  0.00    +0.002 C 
ATOM     19  C   UNL     1      -2.900   1.555   0.193  0.00  0.00    +0.000 C 
ATOM     20  C   UNL     1      -2.221   1.068  -1.089  0.00  0.00    +0.002 C 
ATOM     21  C   UNL     1      -0.786   1.598  -1.138  0.00  0.00    +0.025 C 
ENDBRANCH   3  16
BRANCH   1  23
ATOM     22  N   UNL     1       1.992   5.744  -0.095  0.00  0.00    -0.311 N 
ATOM     23  C   UNL     1       3.044   4.906  -0.002  0.00  0.00    +0.246 C 
ATOM     24  O   UNL     1       4.172   5.354   0.087  0.00  0.00    -0.270 OA
ATOM     25  H   UNL     1       1.089   5.390  -0.092  0.00  0.00    +0.149 HD
BRANCH  22  26
ATOM     26  C   UNL     1       2.213   7.188  -0.201  0.00  0.00    +0.102 C 
BRANCH  26  27
ATOM     27  C   UNL     1       0.864   7.904  -0.293  0.00  0.00    +0.000 C 
BRANCH  27  28
ATOM     28  C   UNL     1       1.095   9.413  -0.403  0.00  0.00    -0.077 C 
BRANCH  28  36
ATOM     29  C   UNL     1      -3.094   9.812  -0.549  0.00  0.00    +0.005 C 
ATOM     30  C   UNL     1      -2.297  10.372  -1.729  0.00  0.00    -0.031 C 
ATOM     31  C   UNL     1      -2.180  11.893  -1.592  0.00  0.00    +0.003 C 
ATOM     32  C   UNL     1      -1.410  12.224  -0.310  0.00  0.00    -0.031 C 
ATOM     33  C   UNL     1      -0.034  11.554  -0.360  0.00  0.00    -0.076 C 
ATOM     34  C   UNL     1      -0.896   9.756  -1.738  0.00  0.00    -0.076 C 
ATOM     35  C   UNL     1      -1.236  13.739  -0.196  0.00  0.00    +0.005 C 
ATOM     36  N   UNL     1      -0.217  10.091  -0.468  0.00  0.00    +0.380 N 
ATOM     37  H   UNL     1      -0.797   9.769   0.315  0.00  0.00    -0.082 HD
ENDBRANCH  28  36
ENDBRANCH  27  28
ENDBRANCH  26  27
ENDBRANCH  22  26
ENDBRANCH   1  23
TORSDOF 6
