REMARK  Name = ZINC59057839
REMARK  10 active torsions:
REMARK  status: ('A' for Active; 'I' for Inactive)
REMARK    1  A    between atoms: C_1  and  C_2
REMARK    2  A    between atoms: C_5  and  C_36
REMARK    3  A    between atoms: N_8  and  C_10
REMARK    4  A    between atoms: C_10  and  C_11
REMARK    5  A    between atoms: C_14  and  C_17
REMARK    6  A    between atoms: C_17  and  N_18
REMARK    7  A    between atoms: C_19  and  C_21
REMARK    8  A    between atoms: C_26  and  N_27
REMARK    9  A    between atoms: N_27  and  C_28
REMARK   10  A    between atoms: C_29  and  C_31
REMARK                            x       y       z     vdW  Elec       q    Type
REMARK                         _______ _______ _______ _____ _____    ______ ____
ROOT
ATOM      1  N   UNL     1       7.216  -0.116   0.536  0.00  0.00    -0.307 N 
ATOM      2  C   UNL     1       8.422   0.387   0.208  0.00  0.00    +0.246 C 
ATOM      3  O   UNL     1       9.372   0.219   0.948  0.00  0.00    -0.270 OA
ATOM      4  H   UNL     1       6.458   0.017  -0.055  0.00  0.00    +0.149 HD
ENDROOT
BRANCH   2   5
ATOM      5  C   UNL     1       8.591   1.139  -1.049  0.00  0.00    +0.058 A 
ATOM      6  C   UNL     1       7.501   1.339  -1.900  0.00  0.00    +0.015 A 
ATOM      7  C   UNL     1       7.665   2.043  -3.073  0.00  0.00    +0.001 A 
ATOM      8  C   UNL     1       8.906   2.555  -3.415  0.00  0.00    +0.002 A 
ATOM      9  C   UNL     1       9.992   2.366  -2.584  0.00  0.00    +0.024 A 
ATOM     10  C   UNL     1       9.845   1.665  -1.395  0.00  0.00    +0.048 A 
BRANCH  10  11
ATOM     11  N   UNL     1      10.938   1.478  -0.553  0.00  0.00    -0.269 N 
ATOM     12  C   UNL     1      11.229   2.457   0.497  0.00  0.00    +0.138 C 
ATOM     13  C   UNL     1      11.727   0.396  -0.705  0.00  0.00    +0.257 C 
ATOM     14  O   UNL     1      12.630   0.186   0.085  0.00  0.00    -0.269 OA
BRANCH  13  15
ATOM     15  C   UNL     1      11.500  -0.527  -1.819  0.00  0.00    +0.074 A 
ATOM     16  C   UNL     1      12.124  -1.734  -2.096  0.00  0.00    +0.021 A 
ATOM     17  C   UNL     1      11.693  -2.384  -3.227  0.00  0.00    +0.008 A 
ATOM     18  C   UNL     1      10.715  -1.820  -3.979  0.00  0.00    +0.046 A 
ATOM     19  S   UNL     1      10.344  -0.395  -3.170  0.00  0.00    -0.092 S 
ENDBRANCH  13  15
ENDBRANCH  10  11
ENDBRANCH   2   5
BRANCH   1  20
ATOM     20  C   UNL     1       7.049  -0.864   1.784  0.00  0.00    +0.139 C 
BRANCH  20  24
ATOM     21  C   UNL     1       2.988  -2.139   2.150  0.00  0.00    -0.064 A 
ATOM     22  C   UNL     1       3.913  -2.949   1.517  0.00  0.00    +0.002 A 
ATOM     23  C   UNL     1       5.226  -2.536   1.399  0.00  0.00    +0.005 A 
ATOM     24  C   UNL     1       5.616  -1.313   1.913  0.00  0.00    -0.030 A 
ATOM     25  C   UNL     1       4.691  -0.503   2.545  0.00  0.00    +0.005 A 
ATOM     26  C   UNL     1       3.377  -0.914   2.660  0.00  0.00    +0.002 A 
BRANCH  21  27
ATOM     27  C   UNL     1       1.556  -2.589   2.280  0.00  0.00    -0.043 C 
BRANCH  27  33
ATOM     28  C   UNL     1      -0.024   1.338  -0.180  0.00  0.00    +0.005 C 
ATOM     29  C   UNL     1       0.024  -0.191  -0.167  0.00  0.00    -0.031 C 
ATOM     30  C   UNL     1      -1.403  -0.747  -0.172  0.00  0.00    +0.003 C 
ATOM     31  C   UNL     1      -1.345  -2.275  -0.081  0.00  0.00    -0.031 C 
ATOM     32  C   UNL     1      -0.571  -2.676   1.177  0.00  0.00    -0.075 C 
ATOM     33  N   UNL     1       0.793  -2.136   1.109  0.00  0.00    +0.383 N 
ATOM     34  C   UNL     1       0.749  -0.669   1.093  0.00  0.00    -0.075 C 
ATOM     35  C   UNL     1      -2.767  -2.836  -0.007  0.00  0.00    +0.005 C 
ATOM     36  H   UNL     1       1.243  -2.467   0.268  0.00  0.00    -0.081 HD
ENDBRANCH  27  33
ENDBRANCH  21  27
ENDBRANCH  20  24
ENDBRANCH   1  20
TORSDOF 7
