REMARK  Name = ZINC40985543
REMARK  9 active torsions:
REMARK  status: ('A' for Active; 'I' for Inactive)
REMARK    1  A    between atoms: C_1  and  C_2
REMARK    2  A    between atoms: C_2  and  S_3
REMARK    3  A    between atoms: S_3  and  C_4
REMARK    4  A    between atoms: C_7  and  C_11
REMARK    5  A    between atoms: N_13  and  C_14
REMARK    6  A    between atoms: C_14  and  C_15
REMARK    7  A    between atoms: C_15  and  C_17
REMARK    8  A    between atoms: C_15  and  N_24
REMARK    9  A    between atoms: C_20  and  C_23
REMARK                            x       y       z     vdW  Elec       q    Type
REMARK                         _______ _______ _______ _____ _____    ______ ____
ROOT
ATOM      1  C   UNL     1      -0.697  -8.780  -1.575  0.00  0.00    -0.020 C 
ENDROOT
BRANCH   1   2
ATOM      2  N   UNL     1      -1.967  -8.042  -1.612  0.00  0.00    +0.385 N 
ATOM      3  C   UNL     1      -1.707  -6.621  -1.638  0.00  0.00    -0.078 C 
ATOM      4  C   UNL     1      -2.753  -5.848  -0.816  0.00  0.00    -0.019 C 
ATOM      5  C   UNL     1      -4.183  -6.386  -1.017  0.00  0.00    -0.002 C 
ATOM      6  C   UNL     1      -4.500  -6.713  -2.453  0.00  0.00    -0.002 C 
ATOM      7  C   UNL     1      -4.150  -8.196  -2.727  0.00  0.00    -0.019 C 
ATOM      8  C   UNL     1      -2.707  -8.383  -2.840  0.00  0.00    -0.078 C 
ATOM      9  H   UNL     1      -2.522  -8.275  -0.802  0.00  0.00    -0.081 HD
ENDBRANCH   1   2
BRANCH   1  10
ATOM     10  C   UNL     1      -0.970 -10.257  -1.704  0.00  0.00    -0.059 A 
ATOM     11  C   UNL     1      -2.054 -10.819  -1.056  0.00  0.00    +0.002 A 
ATOM     12  C   UNL     1      -2.304 -12.173  -1.175  0.00  0.00    +0.003 A 
ATOM     13  C   UNL     1      -1.471 -12.965  -1.942  0.00  0.00    -0.050 A 
ATOM     14  C   UNL     1      -0.388 -12.403  -2.592  0.00  0.00    +0.003 A 
ATOM     15  C   UNL     1      -0.140 -11.048  -2.476  0.00  0.00    +0.002 A 
ATOM     16  C   UNL     1      -1.744 -14.441  -2.071  0.00  0.00    +0.044 C 
ENDBRANCH   1  10
BRANCH   1  17
ATOM     17  C   UNL     1       0.012  -8.507  -0.247  0.00  0.00    +0.094 C 
BRANCH  17  20
ATOM     18  C   UNL     1       2.182  -8.948   0.770  0.00  0.00    +0.248 C 
ATOM     19  O   UNL     1       1.849  -8.256   1.712  0.00  0.00    -0.270 OA
ATOM     20  N   UNL     1       1.335  -9.136  -0.262  0.00  0.00    -0.312 N 
ATOM     21  H   UNL     1       1.601  -9.688  -1.013  0.00  0.00    +0.149 HD
BRANCH  18  25
ATOM     22  C   UNL     1       5.937 -10.732   0.727  0.00  0.00    +0.190 A 
ATOM     23  N   UNL     1       5.117 -10.930  -0.298  0.00  0.00    -0.229 NA
ATOM     24  C   UNL     1       3.917 -10.381  -0.322  0.00  0.00    +0.129 A 
ATOM     25  C   UNL     1       3.514  -9.581   0.755  0.00  0.00    +0.092 A 
ATOM     26  C   UNL     1       4.411  -9.396   1.818  0.00  0.00    +0.146 A 
ATOM     27  N   UNL     1       5.592  -9.985   1.768  0.00  0.00    -0.209 NA
ATOM     28 CL   UNL     1       3.972  -8.415   3.182  0.00  0.00    -0.061 Cl
BRANCH  22  29
ATOM     29  S   UNL     1       7.529 -11.488   0.707  0.00  0.00    -0.086 S 
BRANCH  29  31
ATOM     30  C   UNL     1       8.912 -13.103  -1.013  0.00  0.00    +0.016 C 
ATOM     31  C   UNL     1       7.566 -12.390  -0.866  0.00  0.00    +0.074 C 
ENDBRANCH  29  31
ENDBRANCH  22  29
ENDBRANCH  18  25
ENDBRANCH  17  20
ENDBRANCH   1  17
TORSDOF 7
