REMARK  Name = ZINC19742373
REMARK  4 active torsions:
REMARK  status: ('A' for Active; 'I' for Inactive)
REMARK    1  A    between atoms: C_1  and  C_2
REMARK    2  A    between atoms: C_3  and  C_18
REMARK    3  A    between atoms: N_9  and  C_12
REMARK    4  A    between atoms: C_20  and  C_23
REMARK                            x       y       z     vdW  Elec       q    Type
REMARK                         _______ _______ _______ _____ _____    ______ ____
ROOT
ATOM      1  C   UNL     1       1.327   4.195   4.803  0.00  0.00    +0.066 C 
ATOM      2  C   UNL     1       1.997   3.218   5.734  0.00  0.00    +0.049 A 
ATOM      3  C   UNL     1       1.933   1.853   5.467  0.00  0.00    +0.047 A 
ATOM      4  C   UNL     1       2.568   0.963   6.339  0.00  0.00    -0.027 A 
ATOM      5  C   UNL     1       3.232   1.473   7.434  0.00  0.00    -0.008 A 
ATOM      6  C   UNL     1       3.244   2.845   7.635  0.00  0.00    +0.116 A 
ATOM      7  N   UNL     1       2.635   3.661   6.798  0.00  0.00    -0.259 NA
ATOM      8  C   UNL     1       3.947   0.583   8.414  0.00  0.00    +0.142 C 
ATOM      9  N   UNL     1       3.482  -0.802   8.279  0.00  0.00    -0.325 N 
ATOM     10  C   UNL     1       3.578  -1.241   6.878  0.00  0.00    +0.110 C 
ATOM     11  C   UNL     1       2.504  -0.515   6.064  0.00  0.00    +0.055 C 
ENDROOT
BRANCH   9  12
ATOM     12  C   UNL     1       4.196  -1.652   9.118  0.00  0.00    +0.033 A 
ATOM     13  C   UNL     1       3.540  -2.451  10.054  0.00  0.00    +0.040 A 
ATOM     14  C   UNL     1       4.284  -3.284  10.862  0.00  0.00    +0.084 A 
ATOM     15  N   UNL     1       5.600  -3.323  10.766  0.00  0.00    -0.367 N 
ATOM     16  C   UNL     1       6.258  -2.579   9.897  0.00  0.00    +0.084 A 
ATOM     17  C   UNL     1       5.587  -1.723   9.048  0.00  0.00    +0.040 A 
ATOM     18  H   UNL     1       6.180  -3.989  11.421  0.00  0.00    +0.165 HD
ENDBRANCH   9  12
BRANCH   3  19
ATOM     19  C   UNL     1       1.209   1.351   4.272  0.00  0.00    +0.204 A 
ATOM     20  N   UNL     1       0.562   2.101   3.352  0.00  0.00    -0.191 NA
ATOM     21  C   UNL     1       0.072   1.249   2.486  0.00  0.00    +0.232 A 
ATOM     22  O   UNL     1       0.433   0.027   2.888  0.00  0.00    -0.337 OA
ATOM     23  N   UNL     1       1.082   0.101   3.910  0.00  0.00    -0.056 NA
BRANCH  21  24
ATOM     24  C   UNL     1      -0.741   1.585   1.262  0.00  0.00    +0.095 C 
ATOM     25  C   UNL     1      -0.013   1.086   0.008  0.00  0.00    +0.024 C 
ATOM     26  C   UNL     1      -0.763   1.598  -1.224  0.00  0.00    +0.096 C 
ATOM     27  C   UNL     1      -2.231   1.312  -1.084  0.00  0.00    +0.213 C 
ATOM     28  O   UNL     1      -2.921   1.351  -2.080  0.00  0.00    -0.276 OA
ATOM     29  N   UNL     1      -2.816   1.020   0.078  0.00  0.00    -0.315 N 
ATOM     30  C   UNL     1      -2.103   0.896   1.344  0.00  0.00    +0.117 C 
ATOM     31  H   UNL     1      -3.905   0.870   0.043  0.00  0.00    +0.149 HD
ENDBRANCH  21  24
ENDBRANCH   3  19
TORSDOF 3
