REMARK  Name = ZINC06284104
REMARK  7 active torsions:
REMARK  status: ('A' for Active; 'I' for Inactive)
REMARK    1  A    between atoms: C_1  and  C_2
REMARK    2  A    between atoms: C_2  and  C_3
REMARK    3  A    between atoms: C_6  and  C_8
REMARK    4  A    between atoms: C_10  and  C_31
REMARK    5  A    between atoms: C_11  and  N_30
REMARK    6  A    between atoms: N_12  and  C_20
REMARK    7  A    between atoms: C_22  and  N_27
REMARK                            x       y       z     vdW  Elec       q    Type
REMARK                         _______ _______ _______ _____ _____    ______ ____
ROOT
ATOM      1  C   UNL     1      -5.178   0.390   0.026  0.00  0.00    +0.104 C 
ATOM      2  C   UNL     1      -4.328   0.362   1.262  0.00  0.00    +0.077 C 
ATOM      3  C   UNL     1      -3.010   0.685   1.215  0.00  0.00    +0.107 C 
ATOM      4  N   UNL     1      -2.428   1.040   0.019  0.00  0.00    -0.259 N 
ATOM      5  C   UNL     1      -3.022   0.705  -1.170  0.00  0.00    +0.025 C 
ATOM      6  C   UNL     1      -4.328   0.374  -1.219  0.00  0.00    +0.026 C 
ATOM      7  C   UNL     1      -4.938   0.008  -2.432  0.00  0.00    +0.162 C 
ATOM      8  O   UNL     1      -6.120  -0.273  -2.443  0.00  0.00    -0.292 OA
ATOM      9  C   UNL     1      -4.155  -0.043  -3.715  0.00  0.00    +0.080 C 
ATOM     10  C   UNL     1      -2.690  -0.356  -3.394  0.00  0.00    +0.014 C 
ATOM     11  C   UNL     1      -2.171   0.703  -2.418  0.00  0.00    +0.052 C 
ENDROOT
BRANCH   4  12
ATOM     12  C   UNL     1      -1.224   1.754   0.017  0.00  0.00    +0.060 A 
ATOM     13  C   UNL     1      -0.013   1.076   0.008  0.00  0.00    +0.058 A 
ATOM     14  C   UNL     1       1.174   1.783   0.000  0.00  0.00    +0.128 A 
ATOM     15  C   UNL     1       1.156   3.166   0.008  0.00  0.00    +0.034 A 
ATOM     16  C   UNL     1      -0.048   3.846   0.023  0.00  0.00    +0.024 A 
ATOM     17  C   UNL     1      -1.239   3.144   0.031  0.00  0.00    +0.063 A 
ATOM     18 CL   UNL     1      -2.750   3.998   0.049  0.00  0.00    -0.082 Cl
BRANCH  14  19
ATOM     19  N   UNL     1       2.465   1.060  -0.016  0.00  0.00    +0.056 N 
ATOM     20  O   UNL     1       2.481  -0.158  -0.024  0.00  0.00    -0.126 OA
ATOM     21  O   UNL     1       3.512   1.683  -0.023  0.00  0.00    -0.126 OA
ENDBRANCH  14  19
ENDBRANCH   4  12
BRANCH   1  25
ATOM     22  C   UNL     1      -7.114   4.104   0.056  0.00  0.00    -0.010 A 
ATOM     23  C   UNL     1      -7.931   3.023   0.033  0.00  0.00    +0.011 A 
ATOM     24  C   UNL     1      -7.370   1.760   0.021  0.00  0.00    +0.012 A 
ATOM     25  C   UNL     1      -6.020   1.640   0.034  0.00  0.00    +0.003 A 
ATOM     26  S   UNL     1      -5.498   3.347   0.070  0.00  0.00    -0.097 S 
BRANCH  22  28
ATOM     27  C   UNL     1      -7.615   6.042   1.520  0.00  0.00    +0.009 C 
ATOM     28  C   UNL     1      -7.477   5.567   0.072  0.00  0.00    +0.039 C 
ENDBRANCH  22  28
ENDBRANCH   1  25
BRANCH   3  29
ATOM     29  N   UNL     1      -2.256   0.659   2.364  0.00  0.00    -0.345 N 
ATOM     30  H   UNL     1      -1.314   0.890   2.331  0.00  0.00    +0.144 HD
ATOM     31  H   UNL     1      -2.665   0.409   3.207  0.00  0.00    +0.144 HD
ENDBRANCH   3  29
BRANCH   2  32
ATOM     32  C   UNL     1      -4.917  -0.013   2.513  0.00  0.00    +0.099 C 
ATOM     33  N   UNL     1      -5.384  -0.310   3.505  0.00  0.00    -0.191 NA
ENDBRANCH   2  32
TORSDOF 6
