REMARK  Name = ZINC65919928
REMARK  5 active torsions:
REMARK  status: ('A' for Active; 'I' for Inactive)
REMARK    1  A    between atoms: C_1  and  C_2
REMARK    2  A    between atoms: N_4  and  C_5
REMARK    3  A    between atoms: C_12  and  C_15
REMARK    4  A    between atoms: N_17  and  N_18
REMARK    5  A    between atoms: N_21  and  C_22
REMARK                            x       y       z     vdW  Elec       q    Type
REMARK                         _______ _______ _______ _____ _____    ______ ____
ROOT
ATOM      1  C   UNL     1       0.020  -2.136  -1.177  0.00  0.00    +0.036 C 
ATOM      2  C   UNL     1       1.283  -2.633  -0.470  0.00  0.00    +0.029 C 
ATOM      3  C   UNL     1       1.304  -4.163  -0.479  0.00  0.00    -0.008 C 
ATOM      4  C   UNL     1       0.068  -4.694   0.252  0.00  0.00    +0.007 C 
ATOM      5  C   UNL     1      -1.195  -4.197  -0.455  0.00  0.00    -0.008 C 
ATOM      6  C   UNL     1      -1.215  -2.667  -0.447  0.00  0.00    +0.029 C 
ATOM      7  C   UNL     1      -1.201  -4.699  -1.900  0.00  0.00    +0.020 C 
ATOM      8  C   UNL     1       0.034  -4.168  -2.631  0.00  0.00    +0.051 C 
ATOM      9  C   UNL     1       1.297  -4.665  -1.924  0.00  0.00    +0.020 C 
ATOM     10  C   UNL     1       0.013  -2.639  -2.622  0.00  0.00    +0.042 C 
ENDROOT
BRANCH   1  14
ATOM     11  C   UNL     1      -0.018   1.503   0.010  0.00  0.00    +0.109 C 
ATOM     12  C   UNL     1       0.002  -0.004   0.002  0.00  0.00    +0.210 C 
ATOM     13  O   UNL     1       0.020  -0.616   1.049  0.00  0.00    -0.276 OA
ATOM     14  N   UNL     1       0.000  -0.672  -1.169  0.00  0.00    -0.310 N 
ATOM     15  H   UNL     1      -0.015  -0.182  -2.006  0.00  0.00    +0.149 HD
ENDBRANCH   1  14
BRANCH   8  16
ATOM     16  C   UNL     1       0.027  -4.663  -4.054  0.00  0.00    +0.235 C 
ATOM     17  O   UNL     1       0.008  -3.870  -4.971  0.00  0.00    -0.274 OA
ATOM     18  N   UNL     1       0.043  -5.987  -4.308  0.00  0.00    -0.233 N 
ATOM     19  H   UNL     1       0.058  -6.621  -3.574  0.00  0.00    +0.173 HD
BRANCH  18  20
ATOM     20  N   UNL     1       0.036  -6.447  -5.631  0.00  0.00    -0.218 N 
ATOM     21  C   UNL     1       0.052  -7.770  -5.885  0.00  0.00    +0.316 C 
ATOM     22  O   UNL     1       0.047  -8.169  -7.033  0.00  0.00    -0.251 OA
ATOM     23  N   UNL     1       0.074  -8.651  -4.865  0.00  0.00    -0.295 N 
ATOM     24  H   UNL     1       0.021  -5.812  -6.365  0.00  0.00    +0.174 HD
ATOM     25  H   UNL     1       0.078  -8.333  -3.949  0.00  0.00    +0.151 HD
BRANCH  23  26
ATOM     26  C   UNL     1       0.091 -10.090  -5.141  0.00  0.00    +0.074 C 
ATOM     27  C   UNL     1      -1.352 -10.619  -5.280  0.00  0.00    +0.022 C 
ATOM     28  C   UNL     1      -1.308 -12.022  -4.625  0.00  0.00    +0.002 C 
ATOM     29  C   UNL     1      -0.357 -11.807  -3.421  0.00  0.00    +0.002 C 
ATOM     30  C   UNL     1       0.723 -10.846  -3.959  0.00  0.00    +0.022 C 
ENDBRANCH  23  26
ENDBRANCH  18  20
ENDBRANCH   8  16
TORSDOF 4
