REMARK  Name = ZINC09581930
REMARK  11 active torsions:
REMARK  status: ('A' for Active; 'I' for Inactive)
REMARK    1  A    between atoms: C_1  and  C_2
REMARK    2  A    between atoms: C_5  and  C_30
REMARK    3  A    between atoms: C_6  and  C_8
REMARK    4  A    between atoms: C_8  and  N_10
REMARK    5  A    between atoms: N_12  and  C_24
REMARK    6  A    between atoms: C_16  and  S_20
REMARK    7  A    between atoms: S_20  and  N_23
REMARK    8  A    between atoms: C_24  and  C_25
REMARK    9  A    between atoms: C_25  and  C_26
REMARK   10  A    between atoms: C_26  and  O_28
REMARK   11  A    between atoms: O_28  and  C_29
REMARK                            x       y       z     vdW  Elec       q    Type
REMARK                         _______ _______ _______ _____ _____    ______ ____
ROOT
ATOM      1  N   UNL     1       1.036   2.121  -0.703  0.00  0.00    -0.152 NA
ATOM      2  C   UNL     1       0.984   3.430  -0.923  0.00  0.00    +0.167 A 
ATOM      3  N   UNL     1       2.014   4.286  -1.165  0.00  0.00    -0.321 N 
ATOM      4  C   UNL     1       1.763   5.630  -1.373  0.00  0.00    +0.058 A 
ATOM      5  C   UNL     1       2.684   6.657  -1.635  0.00  0.00    +0.029 A 
ATOM      6  C   UNL     1       2.259   7.952  -1.817  0.00  0.00    +0.030 A 
ATOM      7  C   UNL     1       0.916   8.283  -1.749  0.00  0.00    +0.106 A 
ATOM      8  C   UNL     1      -0.013   7.290  -1.493  0.00  0.00    +0.045 A 
ATOM      9  C   UNL     1       0.411   5.995  -1.310  0.00  0.00    +0.041 A 
ATOM     10  S   UNL     1      -0.412   4.458  -0.977  0.00  0.00    -0.052 S 
ENDROOT
BRANCH   7  11
ATOM     11  S   UNL     1       0.397   9.950  -1.987  0.00  0.00    +0.056 S 
ATOM     12  O   UNL     1       1.411  10.586  -2.752  0.00  0.00    -0.153 OA
ATOM     13  O   UNL     1      -0.958   9.896  -2.414  0.00  0.00    -0.153 OA
BRANCH  11  14
ATOM     14  N   UNL     1       0.396  10.680  -0.501  0.00  0.00    -0.204 NA
ATOM     15  H   UNL     1       0.571  11.631  -0.427  0.00  0.00    +0.144 HD
ATOM     16  H   UNL     1       0.220  10.156   0.297  0.00  0.00    +0.144 HD
ENDBRANCH  11  14
ENDBRANCH   7  11
BRANCH   1  17
ATOM     17  C   UNL     1      -0.090   1.436  -0.481  0.00  0.00    +0.270 C 
ATOM     18  O   UNL     1      -1.165   2.011  -0.485  0.00  0.00    -0.268 OA
BRANCH  17  24
ATOM     19  C   UNL     1       2.531  -2.806  -0.254  0.00  0.00    +0.044 C 
ATOM     20  C   UNL     1       1.224  -2.067  -0.126  0.00  0.00    -0.050 A 
ATOM     21  C   UNL     1       0.074  -2.753   0.221  0.00  0.00    +0.003 A 
ATOM     22  C   UNL     1      -1.129  -2.081   0.341  0.00  0.00    +0.004 A 
ATOM     23  C   UNL     1      -1.189  -0.721   0.115  0.00  0.00    -0.038 A 
ATOM     24  C   UNL     1      -0.033  -0.024  -0.236  0.00  0.00    +0.042 A 
ATOM     25  C   UNL     1       1.177  -0.708  -0.360  0.00  0.00    +0.016 A 
ATOM     26  C   UNL     1      -2.500   0.009   0.246  0.00  0.00    +0.044 C 
ENDBRANCH  17  24
ENDBRANCH   1  17
BRANCH   3  27
ATOM     27  C   UNL     1       3.389   3.783  -1.207  0.00  0.00    +0.135 C 
BRANCH  27  28
ATOM     28  C   UNL     1       3.737   3.366  -2.637  0.00  0.00    +0.142 C 
BRANCH  28  29
ATOM     29  C   UNL     1       5.151   2.848  -2.679  0.00  0.00    +0.309 C 
ATOM     30  O   UNL     1       5.814   2.817  -1.669  0.00  0.00    -0.251 OA
BRANCH  29  31
ATOM     31  O   UNL     1       5.676   2.422  -3.839  0.00  0.00    -0.468 OA
ATOM     32  C   UNL     1       7.044   1.938  -3.805  0.00  0.00    +0.280 C 
ENDBRANCH  29  31
ENDBRANCH  28  29
ENDBRANCH  27  28
ENDBRANCH   3  27
TORSDOF 8
