REMARK  Name = ZINC03340589
REMARK  5 active torsions:
REMARK  status: ('A' for Active; 'I' for Inactive)
REMARK    1  A    between atoms: C_4  and  N_7
REMARK    2  A    between atoms: C_8  and  C_27
REMARK    3  A    between atoms: C_11  and  S_12
REMARK    4  A    between atoms: S_12  and  C_13
REMARK    5  A    between atoms: C_13  and  C_14
REMARK                            x       y       z     vdW  Elec       q    Type
REMARK                         _______ _______ _______ _____ _____    ______ ____
ROOT
ATOM      1  N   UNL     1       1.733   4.259  -1.036  0.00  0.00    -0.271 N 
ATOM      2  C   UNL     1       1.451   3.435   0.021  0.00  0.00    +0.183 A 
ATOM      3  N   UNL     1       1.197   4.195   1.048  0.00  0.00    -0.129 NA
ATOM      4  N   UNL     1       1.305   5.433   0.721  0.00  0.00    -0.122 NA
ATOM      5  C   UNL     1       1.629   5.533  -0.548  0.00  0.00    +0.197 A 
ENDROOT
BRANCH   2   6
ATOM      6  C   UNL     1       1.433   1.928  -0.001  0.00  0.00    +0.278 C 
ATOM      7  C   UNL     1      -0.017   1.427   0.010  0.00  0.00    +0.281 C 
ATOM      8  O   UNL     1       0.002  -0.004   0.002  0.00  0.00    -0.484 OA
ATOM      9  C   UNL     1       0.861  -0.609   0.868  0.00  0.00    +0.162 A 
ATOM     10  C   UNL     1       0.686  -1.951   1.174  0.00  0.00    +0.049 A 
ATOM     11  C   UNL     1       1.551  -2.579   2.049  0.00  0.00    +0.004 A 
ATOM     12  C   UNL     1       2.593  -1.874   2.621  0.00  0.00    +0.004 A 
ATOM     13  C   UNL     1       2.772  -0.536   2.322  0.00  0.00    +0.049 A 
ATOM     14  C   UNL     1       1.906   0.101   1.445  0.00  0.00    +0.163 A 
ATOM     15  O   UNL     1       2.091   1.420   1.165  0.00  0.00    -0.474 OA
ENDBRANCH   2   6
BRANCH   1  19
ATOM     16  C   UNL     1       2.703   3.124  -4.928  0.00  0.00    +0.000 A 
ATOM     17  C   UNL     1       1.531   3.816  -4.683  0.00  0.00    +0.002 A 
ATOM     18  C   UNL     1       1.207   4.193  -3.394  0.00  0.00    +0.026 A 
ATOM     19  C   UNL     1       2.059   3.877  -2.345  0.00  0.00    +0.050 A 
ATOM     20  C   UNL     1       3.237   3.187  -2.595  0.00  0.00    +0.026 A 
ATOM     21  C   UNL     1       3.553   2.808  -3.885  0.00  0.00    +0.002 A 
ENDBRANCH   1  19
BRANCH   5  22
ATOM     22  S   UNL     1       1.882   7.025  -1.451  0.00  0.00    -0.076 S 
BRANCH  22  23
ATOM     23  C   UNL     1       1.569   8.239  -0.145  0.00  0.00    +0.173 C 
BRANCH  23  24
ATOM     24  C   UNL     1       1.733   9.630  -0.702  0.00  0.00    +0.231 C 
ATOM     25  O   UNL     1       2.031   9.784  -1.868  0.00  0.00    -0.274 OA
ATOM     26  N   UNL     1       1.548  10.701   0.094  0.00  0.00    -0.260 N 
ATOM     27  C   UNL     1       1.185  10.540   1.510  0.00  0.00    +0.209 C 
ATOM     28  C   UNL     1       0.129  11.555   1.865  0.00  0.00    +0.235 C 
ATOM     29  O   UNL     1      -0.673  11.303   2.740  0.00  0.00    -0.274 OA
ATOM     30  N   UNL     1       0.064  12.736   1.224  0.00  0.00    -0.283 N 
ATOM     31  C   UNL     1       0.944  13.031   0.177  0.00  0.00    +0.055 A 
ATOM     32  C   UNL     1       1.700  12.006  -0.400  0.00  0.00    +0.058 A 
ATOM     33  C   UNL     1       2.563  12.281  -1.442  0.00  0.00    +0.025 A 
ATOM     34  C   UNL     1       2.689  13.579  -1.906  0.00  0.00    +0.002 A 
ATOM     35  C   UNL     1       1.950  14.597  -1.332  0.00  0.00    +0.002 A 
ATOM     36  C   UNL     1       1.078  14.328  -0.293  0.00  0.00    +0.025 A 
ATOM     37  H   UNL     1      -0.601  13.391   1.490  0.00  0.00    +0.155 HD
ENDBRANCH  23  24
ENDBRANCH  22  23
ENDBRANCH   5  22
TORSDOF 5
