REMARK  Name = ZINC63153135
REMARK  6 active torsions:
REMARK  status: ('A' for Active; 'I' for Inactive)
REMARK    1  A    between atoms: C_1  and  C_2
REMARK    2  A    between atoms: C_4  and  C_12
REMARK    3  A    between atoms: N_14  and  C_15
REMARK    4  A    between atoms: C_15  and  C_16
REMARK    5  A    between atoms: C_19  and  C_21
REMARK    6  A    between atoms: C_24  and  C_27
REMARK                            x       y       z     vdW  Elec       q    Type
REMARK                         _______ _______ _______ _____ _____    ______ ____
ROOT
ATOM      1  C   UNL     1      -2.468  -0.323  -0.956  0.00  0.00    +0.243 C 
ATOM      2  O   UNL     1      -2.280   0.440  -1.885  0.00  0.00    -0.270 OA
ATOM      3  N   UNL     1      -3.651  -0.958  -0.833  0.00  0.00    -0.307 N 
ATOM      4  H   UNL     1      -3.829  -1.504  -0.052  0.00  0.00    +0.149 HD
ENDROOT
BRANCH   1   7
ATOM      5  C   UNL     1      -1.804  -2.845   0.928  0.00  0.00    +0.035 C 
ATOM      6  C   UNL     1      -1.493  -1.391   1.287  0.00  0.00    +0.112 C 
ATOM      7  C   UNL     1      -1.407  -0.551   0.031  0.00  0.00    +0.045 C 
ATOM      8  C   UNL     1      -0.126  -0.047   0.007  0.00  0.00    +0.008 A 
ATOM      9  C   UNL     1       0.560   0.799  -0.901  0.00  0.00    +0.010 A 
ATOM     10  C   UNL     1       1.846   1.142  -0.672  0.00  0.00    +0.001 A 
ATOM     11  C   UNL     1       2.558   0.692   0.451  0.00  0.00    +0.002 A 
ATOM     12  C   UNL     1       1.997  -0.116   1.377  0.00  0.00    +0.026 A 
ATOM     13  C   UNL     1       0.599  -0.539   1.204  0.00  0.00    +0.043 A 
ATOM     14  N   UNL     1      -0.177  -1.299   1.928  0.00  0.00    -0.377 N 
ATOM     15  H   UNL     1       0.076  -1.734   2.757  0.00  0.00    +0.160 HD
ENDBRANCH   1   7
BRANCH   3  16
ATOM     16  C   UNL     1      -4.666  -0.823  -1.881  0.00  0.00    +0.147 C 
BRANCH  16  17
ATOM     17  C   UNL     1      -5.885  -1.626  -1.504  0.00  0.00    +0.007 A 
ATOM     18  C   UNL     1      -6.966  -1.215  -0.798  0.00  0.00    +0.013 A 
ATOM     19  C   UNL     1      -7.985  -2.107  -0.557  0.00  0.00    +0.017 A 
ATOM     20  C   UNL     1      -7.805  -3.381  -1.074  0.00  0.00    +0.034 A 
ATOM     21  S   UNL     1      -6.217  -3.231  -1.870  0.00  0.00    -0.090 S 
BRANCH  20  22
ATOM     22  C   UNL     1      -8.692  -4.544  -0.993  0.00  0.00    +0.061 C 
ATOM     23  C   UNL     1      -8.302  -5.867  -1.637  0.00  0.00    +0.127 C 
ATOM     24  S   UNL     1      -9.530  -6.989  -0.836  0.00  0.00    -0.128 S 
ATOM     25  C   UNL     1     -10.691  -5.654  -0.308  0.00  0.00    +0.160 C 
ATOM     26  N   UNL     1      -9.806  -4.474  -0.376  0.00  0.00    -0.273 NA
ATOM     27  C   UNL     1     -11.187  -5.887   1.121  0.00  0.00    +0.044 C 
ENDBRANCH  20  22
ENDBRANCH  16  17
ENDBRANCH   3  16
TORSDOF 4
