REMARK  Name = ZINC16849861
REMARK  7 active torsions:
REMARK  status: ('A' for Active; 'I' for Inactive)
REMARK    1  A    between atoms: C_1  and  C_2
REMARK    2  A    between atoms: C_2  and  C_3
REMARK    3  A    between atoms: C_2  and  N_4
REMARK    4  A    between atoms: N_4  and  C_5
REMARK    5  A    between atoms: C_11  and  C_13
REMARK    6  A    between atoms: C_13  and  N_14
REMARK    7  A    between atoms: N_23  and  C_24
REMARK                            x       y       z     vdW  Elec       q    Type
REMARK                         _______ _______ _______ _____ _____    ______ ____
ROOT
ATOM      1  N   UNL     1       5.203  -4.192  -0.445  0.00  0.00    -0.290 N 
ATOM      2  C   UNL     1       5.183  -4.752  -1.681  0.00  0.00    +0.204 A 
ATOM      3  N   UNL     1       5.101  -6.035  -1.878  0.00  0.00    -0.218 NA
ATOM      4  C   UNL     1       5.029  -6.905  -0.859  0.00  0.00    +0.165 A 
ATOM      5  C   UNL     1       5.043  -6.419   0.458  0.00  0.00    +0.103 A 
ATOM      6  C   UNL     1       5.141  -4.974   0.658  0.00  0.00    +0.265 A 
ATOM      7  O   UNL     1       5.162  -4.490   1.777  0.00  0.00    -0.267 OA
ATOM      8  C   UNL     1       4.957  -7.532   1.315  0.00  0.00    +0.150 A 
ATOM      9  N   UNL     1       4.895  -8.610   0.583  0.00  0.00    -0.177 NA
ATOM     10  N   UNL     1       4.937  -8.258  -0.772  0.00  0.00    -0.242 N 
ENDROOT
BRANCH  10  11
ATOM     11  C   UNL     1       4.891  -9.188  -1.903  0.00  0.00    +0.132 C 
ATOM     12  C   UNL     1       3.568  -9.971  -1.865  0.00  0.00    +0.051 C 
ATOM     13  C   UNL     1       3.676 -11.153  -2.870  0.00  0.00    +0.168 C 
ATOM     14  S   UNL     1       5.405 -11.706  -2.556  0.00  0.00    -0.029 S 
ATOM     15  O   UNL     1       5.392 -12.729  -1.570  0.00  0.00    -0.174 OA
ATOM     16  O   UNL     1       6.049 -11.941  -3.801  0.00  0.00    -0.174 OA
ATOM     17  C   UNL     1       6.085 -10.169  -1.811  0.00  0.00    +0.192 C 
ENDBRANCH  10  11
BRANCH   1  18
ATOM     18  C   UNL     1       5.297  -2.737  -0.304  0.00  0.00    +0.222 C 
BRANCH  18  20
ATOM     19  N   UNL     1       3.752  -0.811  -0.152  0.00  0.00    -0.267 N 
ATOM     20  C   UNL     1       3.912  -2.144  -0.276  0.00  0.00    +0.240 C 
ATOM     21  O   UNL     1       2.942  -2.866  -0.365  0.00  0.00    -0.273 OA
BRANCH  19  22
ATOM     22  C   UNL     1       2.469  -0.270  -0.020  0.00  0.00    +0.037 A 
ATOM     23  C   UNL     1       1.785  -0.387   1.183  0.00  0.00    +0.023 A 
ATOM     24  C   UNL     1       0.518   0.148   1.310  0.00  0.00    +0.002 A 
ATOM     25  C   UNL     1      -0.070   0.799   0.241  0.00  0.00    +0.000 A 
ATOM     26  C   UNL     1       0.608   0.917  -0.958  0.00  0.00    +0.002 A 
ATOM     27  C   UNL     1       1.875   0.384  -1.092  0.00  0.00    +0.023 A 
ENDBRANCH  19  22
BRANCH  19  29
ATOM     28  C   UNL     1       4.886   0.960  -1.401  0.00  0.00    +0.028 C 
ATOM     29  C   UNL     1       4.922   0.070  -0.157  0.00  0.00    +0.075 C 
ATOM     30  C   UNL     1       4.905   0.947   1.098  0.00  0.00    +0.028 C 
ENDBRANCH  19  29
ENDBRANCH  18  20
ENDBRANCH   1  18
TORSDOF 5
