REMARK  Name = ZINC65723317
REMARK  5 active torsions:
REMARK  status: ('A' for Active; 'I' for Inactive)
REMARK    1  A    between atoms: C_1  and  C_2
REMARK    2  A    between atoms: C_4  and  C_27
REMARK    3  A    between atoms: C_12  and  C_14
REMARK    4  A    between atoms: C_14  and  N_15
REMARK    5  A    between atoms: C_22  and  N_24
REMARK                            x       y       z     vdW  Elec       q    Type
REMARK                         _______ _______ _______ _____ _____    ______ ____
ROOT
ATOM      1  C   UNL     1      -0.041   1.509  -0.027  0.00  0.00    +0.028 C 
ATOM      2  C   UNL     1       0.002  -0.020  -0.009  0.00  0.00    +0.080 C 
ATOM      3  C   UNL     1       0.774  -0.533  -1.231  0.00  0.00    +0.040 C 
ATOM      4  C   UNL     1       2.169   0.094  -1.233  0.00  0.00    +0.108 C 
ATOM      5  C   UNL     1       2.837  -0.103   0.102  0.00  0.00    -0.014 A 
ATOM      6  C   UNL     1       4.216  -0.009   0.182  0.00  0.00    +0.006 A 
ATOM      7  C   UNL     1       4.858  -0.181   1.393  0.00  0.00    +0.000 A 
ATOM      8  C   UNL     1       4.126  -0.449   2.535  0.00  0.00    +0.002 A 
ATOM      9  C   UNL     1       2.751  -0.546   2.464  0.00  0.00    +0.024 A 
ATOM     10  C   UNL     1       2.103  -0.374   1.246  0.00  0.00    +0.040 A 
ATOM     11  N   UNL     1       0.706  -0.484   1.194  0.00  0.00    -0.267 N 
ATOM     12  C   UNL     1       0.021  -1.007   2.231  0.00  0.00    +0.240 C 
ATOM     13  O   UNL     1       0.606  -1.326   3.244  0.00  0.00    -0.273 OA
ENDROOT
BRANCH   4  14
ATOM     14  C   UNL     1       3.004  -0.554  -2.307  0.00  0.00    +0.218 C 
ATOM     15  O   UNL     1       2.863  -1.732  -2.557  0.00  0.00    -0.275 OA
ATOM     16  N   UNL     1       3.908   0.176  -2.990  0.00  0.00    -0.329 N 
ATOM     17  H   UNL     1       3.970   1.133  -2.842  0.00  0.00    +0.145 HD
ATOM     18  H   UNL     1       4.496  -0.255  -3.630  0.00  0.00    +0.145 HD
ENDBRANCH   4  14
BRANCH  12  19
ATOM     19  C   UNL     1      -1.471  -1.194   2.130  0.00  0.00    +0.218 C 
BRANCH  19  20
ATOM     20  N   UNL     1      -1.992  -1.661   3.417  0.00  0.00    -0.338 N 
ATOM     21  C   UNL     1      -2.202  -2.971   3.751  0.00  0.00    +0.087 A 
ATOM     22  C   UNL     1      -2.685  -3.053   5.001  0.00  0.00    +0.027 A 
ATOM     23  C   UNL     1      -2.792  -1.684   5.509  0.00  0.00    +0.002 A 
ATOM     24  C   UNL     1      -2.338  -0.848   4.473  0.00  0.00    +0.050 A 
ATOM     25  C   UNL     1      -2.319   0.529   4.667  0.00  0.00    +0.028 A 
ATOM     26  C   UNL     1      -2.740   1.057   5.868  0.00  0.00    +0.035 A 
ATOM     27  C   UNL     1      -3.184   0.228   6.889  0.00  0.00    +0.127 A 
ATOM     28  C   UNL     1      -3.218  -1.128   6.717  0.00  0.00    +0.042 A 
BRANCH  27  29
ATOM     29  N   UNL     1      -3.631   0.817   8.171  0.00  0.00    +0.056 N 
ATOM     30  O   UNL     1      -3.608   2.015   8.326  0.00  0.00    -0.126 OA
ATOM     31  O   UNL     1      -4.019   0.099   9.063  0.00  0.00    -0.126 OA
ENDBRANCH  27  29
ENDBRANCH  19  20
ENDBRANCH  12  19
TORSDOF 4
