REMARK  Name = ZINC33642267
REMARK  6 active torsions:
REMARK  status: ('A' for Active; 'I' for Inactive)
REMARK    1  A    between atoms: C_1  and  C_2
REMARK    2  A    between atoms: C_4  and  N_37
REMARK    3  A    between atoms: C_7  and  N_8
REMARK    4  A    between atoms: C_20  and  C_26
REMARK    5  A    between atoms: C_26  and  C_28
REMARK    6  A    between atoms: C_32  and  N_34
REMARK                            x       y       z     vdW  Elec       q    Type
REMARK                         _______ _______ _______ _____ _____    ______ ____
ROOT
ATOM      1  N   UNL     1       0.026  -0.013   2.419  0.00  0.00    -0.210 N 
ATOM      2  C   UNL     1      -1.110   0.339   3.089  0.00  0.00    +0.232 C 
ATOM      3  O   UNL     1      -2.225  -0.108   2.923  0.00  0.00    -0.274 OA
ATOM      4  C   UNL     1      -0.693   1.403   4.081  0.00  0.00    +0.116 C 
ATOM      5  C   UNL     1      -1.198   1.403   5.468  0.00  0.00    +0.129 C 
ATOM      6  C   UNL     1      -2.379   0.832   6.069  0.00  0.00    -0.001 C 
ATOM      7  C   UNL     1      -2.507   0.911   7.411  0.00  0.00    +0.019 C 
ATOM      8  C   UNL     1      -1.470   1.538   8.232  0.00  0.00    +0.130 C 
ATOM      9  N   UNL     1      -0.303   1.896   7.753  0.00  0.00    -0.191 NA
ATOM     10  N   UNL     1      -0.079   1.614   6.401  0.00  0.00    -0.237 N 
ATOM     11  C   UNL     1       1.173   1.416   5.632  0.00  0.00    +0.176 C 
ATOM     12  C   UNL     1       0.726   0.752   4.384  0.00  0.00    +0.119 C 
ATOM     13  C   UNL     1       1.172   0.377   3.068  0.00  0.00    +0.232 C 
ATOM     14  O   UNL     1       2.302   0.402   2.631  0.00  0.00    -0.274 OA
ENDROOT
BRANCH   1  21
ATOM     15  C   UNL     1      -0.018   1.503   0.010  0.00  0.00    +0.046 C 
ATOM     16  C   UNL     1       0.002  -0.004   0.002  0.00  0.00    -0.026 A 
ATOM     17  C   UNL     1       0.006  -0.689  -1.198  0.00  0.00    +0.038 A 
ATOM     18  C   UNL     1       0.024  -2.071  -1.206  0.00  0.00    +0.127 A 
ATOM     19  C   UNL     1       0.040  -2.773  -0.014  0.00  0.00    +0.034 A 
ATOM     20  C   UNL     1       0.035  -2.094   1.188  0.00  0.00    +0.026 A 
ATOM     21  C   UNL     1       0.023  -0.705   1.200  0.00  0.00    +0.047 A 
BRANCH  18  22
ATOM     22  N   UNL     1       0.028  -2.802  -2.493  0.00  0.00    +0.056 N 
ATOM     23  O   UNL     1       0.014  -2.190  -3.536  0.00  0.00    -0.126 OA
ATOM     24  O   UNL     1       0.044  -4.011  -2.502  0.00  0.00    -0.126 OA
ENDBRANCH  18  22
ENDBRANCH   1  21
BRANCH  11  25
ATOM     25  C   UNL     1       1.808   2.742   5.301  0.00  0.00    +0.186 C 
ATOM     26  O   UNL     1       1.177   3.768   5.441  0.00  0.00    -0.290 OA
BRANCH  25  27
ATOM     27  C   UNL     1       3.195   2.792   4.810  0.00  0.00    +0.022 A 
ATOM     28  C   UNL     1       3.924   1.610   4.643  0.00  0.00    +0.011 A 
ATOM     29  C   UNL     1       5.222   1.665   4.182  0.00  0.00    +0.003 A 
ATOM     30  C   UNL     1       5.804   2.885   3.885  0.00  0.00    +0.033 A 
ATOM     31  C   UNL     1       5.089   4.059   4.048  0.00  0.00    +0.127 A 
ATOM     32  C   UNL     1       3.788   4.020   4.503  0.00  0.00    +0.044 A 
BRANCH  31  33
ATOM     33  N   UNL     1       5.721   5.358   3.728  0.00  0.00    +0.056 N 
ATOM     34  O   UNL     1       6.861   5.393   3.325  0.00  0.00    -0.126 OA
ATOM     35  O   UNL     1       5.098   6.384   3.870  0.00  0.00    -0.126 OA
ENDBRANCH  31  33
ENDBRANCH  25  27
ENDBRANCH  11  25
TORSDOF 5
