REMARK  Name = ZINC02135727
REMARK  7 active torsions:
REMARK  status: ('A' for Active; 'I' for Inactive)
REMARK    1  A    between atoms: C_1  and  C_2
REMARK    2  A    between atoms: C_7  and  C_8
REMARK    3  A    between atoms: C_17  and  C_19
REMARK    4  A    between atoms: C_19  and  C_20
REMARK    5  A    between atoms: C_20  and  S_21
REMARK    6  A    between atoms: S_21  and  C_22
REMARK    7  A    between atoms: N_25  and  C_28
REMARK                            x       y       z     vdW  Elec       q    Type
REMARK                         _______ _______ _______ _____ _____    ______ ____
ROOT
ATOM      1  C   UNL     1      -1.001  -6.561  -6.474  0.00  0.00    +0.044 C 
ATOM      2  C   UNL     1      -1.178  -5.810  -5.179  0.00  0.00    -0.046 A 
ATOM      3  C   UNL     1      -1.956  -4.667  -5.147  0.00  0.00    +0.004 A 
ATOM      4  C   UNL     1      -2.119  -3.979  -3.958  0.00  0.00    +0.005 A 
ATOM      5  C   UNL     1      -1.506  -4.430  -2.810  0.00  0.00    -0.027 A 
ATOM      6  C   UNL     1      -0.721  -5.579  -2.831  0.00  0.00    +0.039 A 
ATOM      7  C   UNL     1      -0.564  -6.267  -4.032  0.00  0.00    -0.026 A 
ATOM      8  C   UNL     1       0.281  -7.514  -4.078  0.00  0.00    +0.046 C 
ATOM      9  N   UNL     1      -0.208  -5.837  -1.558  0.00  0.00    -0.286 N 
ATOM     10  C   UNL     1      -0.602  -4.917  -0.656  0.00  0.00    +0.211 C 
ATOM     11  O   UNL     1      -0.311  -4.886   0.521  0.00  0.00    -0.277 OA
ATOM     12  C   UNL     1      -1.473  -3.936  -1.392  0.00  0.00    +0.050 C 
ATOM     13  C   UNL     1      -2.879  -3.869  -0.783  0.00  0.00    +0.088 C 
ATOM     14  C   UNL     1      -2.845  -2.620   0.141  0.00  0.00    +0.073 C 
ATOM     15  C   UNL     1      -1.413  -2.063   0.004  0.00  0.00    -0.057 C 
ATOM     16  C   UNL     1      -3.818  -1.662  -0.506  0.00  0.00    +0.224 C 
ATOM     17  O   UNL     1      -4.086  -0.553  -0.097  0.00  0.00    -0.275 OA
ATOM     18  N   UNL     1      -4.332  -2.249  -1.611  0.00  0.00    -0.239 N 
ATOM     19  C   UNL     1      -3.877  -3.484  -1.851  0.00  0.00    +0.225 C 
ATOM     20  O   UNL     1      -4.214  -4.186  -2.781  0.00  0.00    -0.275 OA
ATOM     21  H   UNL     1       0.365  -6.591  -1.347  0.00  0.00    +0.155 HD
ATOM     22  N   UNL     1      -0.951  -2.584  -1.284  0.00  0.00    +0.394 N 
ATOM     23  H   UNL     1      -1.310  -2.003  -2.051  0.00  0.00    -0.083 HD
ATOM     24  H   UNL     1       0.075  -2.596  -1.315  0.00  0.00    -0.083 HD
ENDROOT
BRANCH  18  25
ATOM     25  C   UNL     1      -5.314  -1.585  -2.471  0.00  0.00    +0.084 C 
ATOM     26  C   UNL     1      -4.668  -0.328  -3.089  0.00  0.00    +0.023 C 
ATOM     27  C   UNL     1      -5.446   0.054  -4.319  0.00  0.00    +0.002 C 
ATOM     28  C   UNL     1      -6.533   1.106  -4.026  0.00  0.00    +0.000 C 
ATOM     29  C   UNL     1      -7.291   0.833  -2.713  0.00  0.00    +0.000 C 
ATOM     30  C   UNL     1      -7.613  -0.626  -2.528  0.00  0.00    +0.002 C 
ATOM     31  C   UNL     1      -6.496  -1.270  -1.682  0.00  0.00    +0.023 C 
ENDBRANCH  18  25
BRANCH  15  32
ATOM     32  C   UNL     1      -1.433  -0.534   0.013  0.00  0.00    -0.004 C 
BRANCH  32  33
ATOM     33  C   UNL     1       0.002  -0.004   0.002  0.00  0.00    +0.067 C 
BRANCH  33  34
ATOM     34  S   UNL     1      -0.022   1.810   0.012  0.00  0.00    -0.164 S 
ATOM     35  C   UNL     1       1.731   2.272  -0.002  0.00  0.00    +0.084 C 
ENDBRANCH  33  34
ENDBRANCH  32  33
ENDBRANCH  15  32
TORSDOF 4
