REMARK  Name = ZINC22929606
REMARK  7 active torsions:
REMARK  status: ('A' for Active; 'I' for Inactive)
REMARK    1  A    between atoms: C_4  and  C_7
REMARK    2  A    between atoms: C_7  and  N_8
REMARK    3  A    between atoms: N_11  and  C_14
REMARK    4  A    between atoms: C_14  and  C_16
REMARK    5  A    between atoms: C_14  and  C_23
REMARK    6  A    between atoms: N_27  and  C_28
REMARK    7  A    between atoms: C_28  and  C_29
REMARK                            x       y       z     vdW  Elec       q    Type
REMARK                         _______ _______ _______ _____ _____    ______ ____
ROOT
ATOM      1  C   UNL     1       6.568  -0.989   4.811  0.00  0.00    +0.160 C 
ENDROOT
BRANCH   1   5
ATOM      2  N   UNL     1       5.589   1.426   1.482  0.00  0.00    +0.384 N 
ATOM      3  C   UNL     1       6.937   0.847   1.542  0.00  0.00    -0.063 C 
ATOM      4  C   UNL     1       7.256   0.444   2.984  0.00  0.00    +0.067 C 
ATOM      5  N   UNL     1       6.263  -0.534   3.448  0.00  0.00    -0.293 NA
ATOM      6  C   UNL     1       4.905   0.023   3.370  0.00  0.00    +0.067 C 
ATOM      7  C   UNL     1       4.606   0.429   1.925  0.00  0.00    -0.063 C 
ATOM      8  H   UNL     1       5.544   2.234   2.085  0.00  0.00    -0.081 HD
BRANCH   2   9
ATOM      9  C   UNL     1       5.290   1.829   0.102  0.00  0.00    -0.043 C 
BRANCH   9  13
ATOM     10  C   UNL     1       7.930   4.976  -1.069  0.00  0.00    +0.000 A 
ATOM     11  C   UNL     1       8.288   3.658  -1.284  0.00  0.00    +0.000 A 
ATOM     12  C   UNL     1       7.434   2.640  -0.905  0.00  0.00    +0.002 A 
ATOM     13  C   UNL     1       6.222   2.939  -0.311  0.00  0.00    -0.064 A 
ATOM     14  C   UNL     1       5.865   4.257  -0.095  0.00  0.00    +0.002 A 
ATOM     15  C   UNL     1       6.719   5.276  -0.475  0.00  0.00    +0.000 A 
ENDBRANCH   9  13
ENDBRANCH   2   9
ENDBRANCH   1   5
BRANCH   1  16
ATOM     16  C   UNL     1       7.853  -1.775   4.802  0.00  0.00    +0.012 A 
ATOM     17  C   UNL     1       8.249  -2.440   3.657  0.00  0.00    +0.008 A 
ATOM     18  C   UNL     1       9.428  -3.162   3.648  0.00  0.00    +0.000 A 
ATOM     19  C   UNL     1      10.213  -3.220   4.785  0.00  0.00    +0.003 A 
ATOM     20  C   UNL     1       9.819  -2.555   5.931  0.00  0.00    +0.039 A 
ATOM     21  C   UNL     1       8.641  -1.828   5.939  0.00  0.00    +0.128 A 
ATOM     22  F   UNL     1       8.257  -1.174   7.058  0.00  0.00    -0.205 F 
ENDBRANCH   1  16
BRANCH   1  23
ATOM     23  C   UNL     1       5.447  -1.863   5.311  0.00  0.00    +0.173 A 
ATOM     24  N   UNL     1       4.901  -2.874   4.680  0.00  0.00    -0.111 NA
ATOM     25  N   UNL     1       3.980  -3.364   5.436  0.00  0.00    -0.023 NA
ATOM     26  N   UNL     1       3.924  -2.692   6.532  0.00  0.00    -0.043 NA
ATOM     27  N   UNL     1       4.817  -1.761   6.496  0.00  0.00    -0.220 N 
BRANCH  27  28
ATOM     28  C   UNL     1       5.090  -0.777   7.546  0.00  0.00    +0.221 C 
BRANCH  28  29
ATOM     29  C   UNL     1       4.235   0.444   7.325  0.00  0.00    +0.126 A 
ATOM     30  C   UNL     1       3.005   0.645   7.830  0.00  0.00    +0.046 A 
ATOM     31  C   UNL     1       2.575   1.912   7.373  0.00  0.00    +0.041 A 
ATOM     32  C   UNL     1       3.569   2.409   6.615  0.00  0.00    +0.195 A 
ATOM     33  O   UNL     1       4.574   1.519   6.594  0.00  0.00    -0.466 OA
ENDBRANCH  28  29
ENDBRANCH  27  28
ENDBRANCH   1  23
TORSDOF 7
