REMARK  Name = ZINC12288509
REMARK  8 active torsions:
REMARK  status: ('A' for Active; 'I' for Inactive)
REMARK    1  A    between atoms: C_1  and  O_2
REMARK    2  A    between atoms: O_2  and  C_3
REMARK    3  A    between atoms: C_3  and  C_5
REMARK    4  A    between atoms: C_5  and  N_6
REMARK    5  A    between atoms: C_9  and  N_31
REMARK    6  A    between atoms: N_15  and  C_16
REMARK    7  A    between atoms: C_16  and  C_18
REMARK    8  A    between atoms: C_22  and  N_24
REMARK                            x       y       z     vdW  Elec       q    Type
REMARK                         _______ _______ _______ _____ _____    ______ ____
ROOT
ATOM      1  N   UNL     1       3.224   6.286  -0.489  0.00  0.00    -0.310 N 
ATOM      2  C   UNL     1       2.835   7.532  -0.944  0.00  0.00    +0.060 A 
ATOM      3  C   UNL     1       3.642   8.640  -1.246  0.00  0.00    +0.059 A 
ATOM      4  C   UNL     1       3.084   9.817  -1.686  0.00  0.00    +0.128 A 
ATOM      5  C   UNL     1       1.714   9.947  -1.845  0.00  0.00    +0.034 A 
ATOM      6  C   UNL     1       0.895   8.870  -1.555  0.00  0.00    +0.019 A 
ATOM      7  C   UNL     1       1.452   7.693  -1.114  0.00  0.00    +0.039 A 
ATOM      8  S   UNL     1       0.797   6.112  -0.642  0.00  0.00    -0.052 S 
ATOM      9  C   UNL     1       2.292   5.324  -0.252  0.00  0.00    +0.167 A 
ATOM     10  N   UNL     1       2.481   4.082   0.179  0.00  0.00    -0.152 NA
ENDROOT
BRANCH   4  11
ATOM     11  N   UNL     1       3.963  10.967  -1.996  0.00  0.00    +0.056 N 
ATOM     12  O   UNL     1       5.169  10.865  -1.860  0.00  0.00    -0.126 OA
ATOM     13  O   UNL     1       3.480  12.015  -2.386  0.00  0.00    -0.126 OA
ENDBRANCH   4  11
BRANCH  10  14
ATOM     14  C   UNL     1       1.433   3.271   0.362  0.00  0.00    +0.269 C 
ATOM     15  O   UNL     1       0.306   3.672   0.133  0.00  0.00    -0.268 OA
BRANCH  14  16
ATOM     16  C   UNL     1       1.644   1.886   0.843  0.00  0.00    +0.041 A 
ATOM     17  C   UNL     1       2.934   1.426   1.107  0.00  0.00    +0.013 A 
ATOM     18  C   UNL     1       3.128   0.135   1.555  0.00  0.00    +0.003 A 
ATOM     19  C   UNL     1       2.046  -0.706   1.744  0.00  0.00    +0.024 A 
ATOM     20  C   UNL     1       0.758  -0.255   1.484  0.00  0.00    +0.045 A 
ATOM     21  C   UNL     1       0.554   1.039   1.034  0.00  0.00    +0.037 A 
BRANCH  20  22
ATOM     22  N   UNL     1      -0.336  -1.111   1.678  0.00  0.00    -0.210 N 
ATOM     23  C   UNL     1      -1.223  -0.941   2.666  0.00  0.00    +0.227 C 
ATOM     24  O   UNL     1      -1.194  -0.054   3.491  0.00  0.00    -0.275 OA
ATOM     25  C   UNL     1      -2.272  -2.029   2.586  0.00  0.00    +0.106 C 
ATOM     26  C   UNL     1      -1.826  -2.873   1.375  0.00  0.00    +0.106 C 
ATOM     27  C   UNL     1      -0.576  -2.169   0.893  0.00  0.00    +0.227 C 
ATOM     28  O   UNL     1       0.102  -2.510  -0.053  0.00  0.00    -0.275 OA
ENDBRANCH  20  22
ENDBRANCH  14  16
ENDBRANCH  10  14
BRANCH   1  29
ATOM     29  C   UNL     1       4.644   5.999  -0.266  0.00  0.00    +0.244 C 
BRANCH  29  30
ATOM     30  C   UNL     1       4.798   5.164   0.979  0.00  0.00    +0.327 C 
ATOM     31  O   UNL     1       3.843   4.956   1.689  0.00  0.00    -0.249 OA
BRANCH  30  33
ATOM     32  C   UNL     1       6.071   3.857   2.512  0.00  0.00    +0.280 C 
ATOM     33  O   UNL     1       5.997   4.652   1.299  0.00  0.00    -0.467 OA
ENDBRANCH  30  33
ENDBRANCH  29  30
ENDBRANCH   1  29
TORSDOF 7
