REMARK  Name = ZINC09430623
REMARK  9 active torsions:
REMARK  status: ('A' for Active; 'I' for Inactive)
REMARK    1  A    between atoms: C_1  and  C_2
REMARK    2  A    between atoms: C_8  and  N_10
REMARK    3  A    between atoms: C_11  and  C_13
REMARK    4  A    between atoms: C_16  and  C_19
REMARK    5  A    between atoms: C_19  and  N_20
REMARK    6  A    between atoms: N_20  and  S_21
REMARK    7  A    between atoms: S_21  and  C_24
REMARK    8  A    between atoms: C_31  and  C_37
REMARK    9  A    between atoms: C_34  and  C_36
REMARK                            x       y       z     vdW  Elec       q    Type
REMARK                         _______ _______ _______ _____ _____    ______ ____
ROOT
ATOM      1  C   UNL     1       5.519  -3.079   4.235  0.00  0.00    +0.109 C 
ENDROOT
BRANCH   1   5
ATOM      2  C   UNL     1       4.093   0.611   2.480  0.00  0.00    +0.075 C 
ATOM      3  C   UNL     1       4.984  -0.296   1.628  0.00  0.00    +0.013 C 
ATOM      4  C   UNL     1       4.983  -1.709   2.216  0.00  0.00    +0.005 C 
ATOM      5  C   UNL     1       5.519  -1.666   3.648  0.00  0.00    +0.005 C 
ATOM      6  C   UNL     1       4.628  -0.759   4.499  0.00  0.00    +0.005 C 
ATOM      7  C   UNL     1       4.629   0.653   3.912  0.00  0.00    +0.013 C 
BRANCH   2   9
ATOM      8  N   UNL     1       2.008  -0.058   1.329  0.00  0.00    -0.312 N 
ATOM      9  C   UNL     1       2.686   0.070   2.486  0.00  0.00    +0.216 C 
ATOM     10  O   UNL     1       2.164  -0.249   3.533  0.00  0.00    -0.276 OA
ATOM     11  H   UNL     1       2.426   0.197   0.491  0.00  0.00    +0.149 HD
BRANCH   8  18
ATOM     12  C   UNL     1      -0.148   1.455   0.126  0.00  0.00    +0.009 C 
ATOM     13  C   UNL     1      -0.107  -0.074   0.101  0.00  0.00    +0.006 C 
ATOM     14  C   UNL     1       0.614  -0.544  -1.163  0.00  0.00    +0.005 C 
ATOM     15  C   UNL     1       0.655  -2.074  -1.188  0.00  0.00    +0.000 C 
ATOM     16  C   UNL     1       1.403  -2.584   0.045  0.00  0.00    +0.002 C 
ATOM     17  C   UNL     1       0.682  -2.113   1.310  0.00  0.00    +0.022 C 
ATOM     18  C   UNL     1       0.641  -0.584   1.335  0.00  0.00    +0.076 C 
ENDBRANCH   8  18
ENDBRANCH   2   9
ENDBRANCH   1   5
BRANCH   1  19
ATOM     19  N   UNL     1       6.142  -3.057   5.561  0.00  0.00    -0.190 NA
ATOM     20  H   UNL     1       6.665  -2.289   5.838  0.00  0.00    +0.148 HD
BRANCH  19  21
ATOM     21  S   UNL     1       5.954  -4.344   6.586  0.00  0.00    +0.058 S 
ATOM     22  O   UNL     1       6.689  -4.037   7.763  0.00  0.00    -0.153 OA
ATOM     23  O   UNL     1       4.565  -4.644   6.611  0.00  0.00    -0.153 OA
BRANCH  21  24
ATOM     24  C   UNL     1       6.754  -5.726   5.840  0.00  0.00    +0.106 A 
ATOM     25  C   UNL     1       6.050  -6.557   4.988  0.00  0.00    +0.030 A 
ATOM     26  C   UNL     1       6.673  -7.639   4.403  0.00  0.00    +0.026 A 
ATOM     27  C   UNL     1       8.018  -7.903   4.665  0.00  0.00    +0.040 A 
ATOM     28  C   UNL     1       8.715  -7.064   5.519  0.00  0.00    -0.022 A 
ATOM     29  C   UNL     1       8.088  -5.977   6.099  0.00  0.00    +0.034 A 
ATOM     30  C   UNL     1      10.137  -7.565   5.633  0.00  0.00    +0.059 C 
ATOM     31  C   UNL     1      10.182  -8.810   4.732  0.00  0.00    +0.083 C 
ATOM     32  N   UNL     1       8.830  -8.934   4.181  0.00  0.00    -0.268 N 
ATOM     33  C   UNL     1       8.427  -9.902   3.334  0.00  0.00    +0.217 C 
ATOM     34  O   UNL     1       7.313  -9.864   2.856  0.00  0.00    -0.276 OA
ATOM     35  C   UNL     1       9.361 -11.030   2.979  0.00  0.00    +0.109 C 
ATOM     36  C   UNL     1      11.200  -8.614   3.606  0.00  0.00    +0.029 C 
ENDBRANCH  21  24
ENDBRANCH  19  21
ENDBRANCH   1  19
TORSDOF 6
