REMARK  Name = ZINC13064564
REMARK  15 active torsions:
REMARK  status: ('A' for Active; 'I' for Inactive)
REMARK    1  A    between atoms: C_1  and  C_2
REMARK    2  A    between atoms: C_2  and  C_3
REMARK    3  A    between atoms: C_3  and  C_5
REMARK    4  A    between atoms: C_3  and  N_71
REMARK    5  A    between atoms: N_9  and  C_10
REMARK    6  A    between atoms: C_10  and  C_11
REMARK    7  A    between atoms: C_10  and  C_12
REMARK    8  A    between atoms: C_10  and  C_13
REMARK    9  A    between atoms: C_13  and  C_14
REMARK   10  A    between atoms: C_15  and  C_16
REMARK   11  A    between atoms: C_15  and  N_71
REMARK   12  A    between atoms: C_22  and  C_23
REMARK   13  A    between atoms: C_22  and  N_71
REMARK   14  A    between atoms: C_27  and  C_36
REMARK   15  A    between atoms: C_28  and  C_35
REMARK                            x       y       z     vdW  Elec       q    Type
REMARK                         _______ _______ _______ _____ _____    ______ ____
ROOT
ATOM      1  N   UNL     1      -6.417   4.232  -1.248  0.00  0.00    +0.392 N 
ATOM      2  H   UNL     1      -6.057   3.300  -1.485  0.00  0.00    -0.080 HD
ENDROOT
BRANCH   1   3
ATOM      3  C   UNL     1      -7.563   4.542  -2.127  0.00  0.00    +0.003 C 
BRANCH   3   4
ATOM      4  C   UNL     1      -7.267   4.015  -3.508  0.00  0.00    +0.139 A 
ATOM      5  N   UNL     1      -6.126   4.093  -4.147  0.00  0.00    -0.115 NA
ATOM      6  N   UNL     1      -6.273   3.528  -5.296  0.00  0.00    -0.023 NA
ATOM      7  N   UNL     1      -7.479   3.091  -5.405  0.00  0.00    -0.043 NA
ATOM      8  N   UNL     1      -8.122   3.368  -4.321  0.00  0.00    -0.225 N 
BRANCH   8   9
ATOM      9  C   UNL     1      -9.521   3.041  -4.032  0.00  0.00    +0.061 C 
ATOM     10  C   UNL     1      -9.581   2.034  -2.882  0.00  0.00    +0.036 C 
ATOM     11  C   UNL     1     -10.270   4.315  -3.634  0.00  0.00    +0.036 C 
BRANCH   9  12
ATOM     12  C   UNL     1     -10.171   2.434  -5.276  0.00  0.00    +0.026 C 
ATOM     13  C   UNL     1     -11.632   2.094  -4.973  0.00  0.00    +0.006 C 
ENDBRANCH   9  12
ENDBRANCH   8   9
ENDBRANCH   3   4
BRANCH   3  15
ATOM     14  C   UNL     1      -8.260   6.561  -0.832  0.00  0.00    +0.002 C 
ATOM     15  C   UNL     1      -7.790   6.054  -2.196  0.00  0.00    -0.011 C 
ENDBRANCH   3  15
ENDBRANCH   1   3
BRANCH   1  16
ATOM     16  C   UNL     1      -5.342   5.227  -1.448  0.00  0.00    -0.042 C 
BRANCH  16  17
ATOM     17  C   UNL     1      -4.056   4.666  -0.898  0.00  0.00    -0.064 A 
ATOM     18  C   UNL     1      -3.667   4.966   0.394  0.00  0.00    +0.002 A 
ATOM     19  C   UNL     1      -2.490   4.447   0.900  0.00  0.00    +0.000 A 
ATOM     20  C   UNL     1      -1.696   3.637   0.109  0.00  0.00    +0.000 A 
ATOM     21  C   UNL     1      -2.081   3.342  -1.185  0.00  0.00    +0.000 A 
ATOM     22  C   UNL     1      -3.262   3.856  -1.689  0.00  0.00    +0.002 A 
ENDBRANCH  16  17
ENDBRANCH   1  16
BRANCH   1  23
ATOM     23  C   UNL     1      -6.850   4.233   0.166  0.00  0.00    -0.036 C 
BRANCH  23  24
ATOM     24  C   UNL     1      -7.532   2.923   0.462  0.00  0.00    +0.001 A 
ATOM     25  C   UNL     1      -6.816   1.887   0.964  0.00  0.00    +0.017 A 
ATOM     26  C   UNL     1      -7.508   0.625   1.237  0.00  0.00    -0.001 A 
ATOM     27  C   UNL     1      -6.819  -0.484   1.739  0.00  0.00    +0.013 A 
ATOM     28  C   UNL     1      -7.494  -1.646   1.982  0.00  0.00    -0.047 A 
ATOM     29  C   UNL     1      -8.857  -1.737   1.736  0.00  0.00    -0.046 A 
ATOM     30  C   UNL     1      -9.556  -0.657   1.242  0.00  0.00    +0.030 A 
ATOM     31  C   UNL     1      -8.889   0.536   0.981  0.00  0.00    +0.049 A 
ATOM     32  N   UNL     1      -9.562   1.630   0.481  0.00  0.00    -0.322 N 
ATOM     33  H   UNL     1     -10.515   1.568   0.309  0.00  0.00    +0.169 HD
ATOM     34  C   UNL     1      -8.917   2.783   0.229  0.00  0.00    +0.251 A 
ATOM     35  O   UNL     1      -9.544   3.730  -0.213  0.00  0.00    -0.268 OA
ATOM     36  C   UNL     1      -9.581  -3.030   2.013  0.00  0.00    +0.044 C 
ATOM     37  C   UNL     1      -6.752  -2.841   2.523  0.00  0.00    +0.044 C 
ENDBRANCH  23  24
ENDBRANCH   1  23
TORSDOF 9
