REMARK  Name = ZINC38705663
REMARK  13 active torsions:
REMARK  status: ('A' for Active; 'I' for Inactive)
REMARK    1  A    between atoms: C_1  and  C_2
REMARK    2  A    between atoms: C_2  and  O_3
REMARK    3  A    between atoms: O_3  and  C_4
REMARK    4  A    between atoms: C_8  and  C_10
REMARK    5  A    between atoms: C_13  and  C_31
REMARK    6  A    between atoms: N_20  and  C_21
REMARK    7  A    between atoms: C_21  and  C_22
REMARK    8  A    between atoms: C_22  and  C_23
REMARK    9  A    between atoms: C_26  and  O_29
REMARK   10  A    between atoms: O_29  and  C_30
REMARK   11  A    between atoms: C_32  and  C_39
REMARK   12  A    between atoms: C_34  and  C_38
REMARK   13  A    between atoms: C_36  and  O_37
REMARK                            x       y       z     vdW  Elec       q    Type
REMARK                         _______ _______ _______ _____ _____    ______ ____
ROOT
ATOM      1  C   UNL     1       2.285  -4.291   3.781  0.00  0.00    +0.141 C 
ATOM      2  C   UNL     1       3.625  -4.830   3.362  0.00  0.00    +0.035 A 
ATOM      3  C   UNL     1       4.883  -4.564   2.809  0.00  0.00    +0.102 A 
ATOM      4  N   UNL     1       5.550  -5.701   2.781  0.00  0.00    -0.173 NA
ATOM      5  N   UNL     1       4.838  -6.658   3.260  0.00  0.00    -0.272 N 
ATOM      6  H   UNL     1       5.126  -7.581   3.338  0.00  0.00    +0.189 HD
ATOM      7  C   UNL     1       3.617  -6.182   3.645  0.00  0.00    +0.126 A 
ATOM      8  C   UNL     1       2.317  -6.528   4.231  0.00  0.00    +0.265 C 
ATOM      9  O   UNL     1       1.992  -7.643   4.590  0.00  0.00    -0.268 OA
ATOM     10  N   UNL     1       1.534  -5.435   4.315  0.00  0.00    -0.285 N 
ENDROOT
BRANCH   3  11
ATOM     11  C   UNL     1       5.376  -3.245   2.341  0.00  0.00    +0.047 A 
ATOM     12  C   UNL     1       5.956  -3.122   1.081  0.00  0.00    -0.037 A 
ATOM     13  C   UNL     1       6.413  -1.893   0.650  0.00  0.00    +0.007 A 
ATOM     14  C   UNL     1       6.296  -0.781   1.465  0.00  0.00    -0.047 A 
ATOM     15  C   UNL     1       5.722  -0.892   2.717  0.00  0.00    +0.049 A 
ATOM     16  C   UNL     1       5.254  -2.119   3.160  0.00  0.00    +0.127 A 
ATOM     17  C   UNL     1       6.798   0.556   0.986  0.00  0.00    +0.044 C 
ATOM     18  C   UNL     1       6.086  -4.330   0.190  0.00  0.00    +0.044 C 
BRANCH  16  19
ATOM     19  O   UNL     1       4.683  -2.228   4.388  0.00  0.00    -0.506 OA
ATOM     20  H   UNL     1       5.318  -2.354   5.107  0.00  0.00    +0.292 HD
ENDBRANCH  16  19
ENDBRANCH   3  11
BRANCH   1  25
ATOM     21  C   UNL     1       0.695  -1.810   1.416  0.00  0.00    +0.121 A 
ATOM     22  C   UNL     1       0.242  -2.646   0.405  0.00  0.00    +0.045 A 
ATOM     23  C   UNL     1       0.453  -4.008   0.490  0.00  0.00    +0.004 A 
ATOM     24  C   UNL     1       1.114  -4.539   1.583  0.00  0.00    +0.006 A 
ATOM     25  C   UNL     1       1.565  -3.709   2.591  0.00  0.00    -0.019 A 
ATOM     26  C   UNL     1       1.362  -2.345   2.508  0.00  0.00    +0.051 A 
BRANCH  21  27
ATOM     27  O   UNL     1       0.489  -0.469   1.333  0.00  0.00    -0.492 OA
BRANCH  27  29
ATOM     28  C   UNL     1      -0.341   1.533   0.264  0.00  0.00    +0.048 C 
ATOM     29  C   UNL     1      -0.205   0.011   0.180  0.00  0.00    +0.225 C 
ENDBRANCH  27  29
ENDBRANCH  21  27
ENDBRANCH   1  25
BRANCH  10  30
ATOM     30  C   UNL     1       0.170  -5.393   4.847  0.00  0.00    +0.114 C 
BRANCH  30  31
ATOM     31  C   UNL     1      -0.827  -5.652   3.716  0.00  0.00    +0.054 C 
BRANCH  31  32
ATOM     32  C   UNL     1      -2.230  -5.609   4.263  0.00  0.00    -0.046 A 
ATOM     33  C   UNL     1      -2.820  -6.764   4.742  0.00  0.00    +0.007 A 
ATOM     34  C   UNL     1      -4.106  -6.727   5.244  0.00  0.00    +0.046 A 
ATOM     35  C   UNL     1      -4.807  -5.530   5.268  0.00  0.00    +0.120 A 
ATOM     36  C   UNL     1      -4.213  -4.372   4.787  0.00  0.00    +0.046 A 
ATOM     37  C   UNL     1      -2.924  -4.413   4.290  0.00  0.00    +0.007 A 
BRANCH  35  38
ATOM     38  O   UNL     1      -6.072  -5.492   5.760  0.00  0.00    -0.495 OA
ATOM     39  C   UNL     1      -6.733  -4.224   5.753  0.00  0.00    +0.277 C 
ENDBRANCH  35  38
ENDBRANCH  31  32
ENDBRANCH  30  31
ENDBRANCH  10  30
TORSDOF 9
