REMARK  Name = ZINC35188701
REMARK  8 active torsions:
REMARK  status: ('A' for Active; 'I' for Inactive)
REMARK    1  A    between atoms: C_9  and  C_12
REMARK    2  A    between atoms: C_12  and  N_13
REMARK    3  A    between atoms: N_16  and  C_17
REMARK    4  A    between atoms: C_17  and  C_18
REMARK    5  A    between atoms: C_23  and  C_26
REMARK    6  A    between atoms: C_26  and  N_27
REMARK    7  A    between atoms: N_30  and  C_31
REMARK    8  A    between atoms: C_31  and  C_32
REMARK                            x       y       z     vdW  Elec       q    Type
REMARK                         _______ _______ _______ _____ _____    ______ ____
ROOT
ATOM      1  C   UNL     1      10.600  -1.369  -1.911  0.00  0.00    +0.006 C 
ATOM      2  C   UNL     1      10.570   0.076  -1.407  0.00  0.00    +0.005 C 
ATOM      3  C   UNL     1      11.031   0.117   0.051  0.00  0.00    +0.001 C 
ATOM      4  C   UNL     1      12.457  -0.429   0.150  0.00  0.00    +0.005 C 
ATOM      5  C   UNL     1      12.487  -1.873  -0.354  0.00  0.00    +0.006 C 
ATOM      6  C   UNL     1      12.026  -1.914  -1.812  0.00  0.00    +0.010 C 
ENDROOT
BRANCH   1   7
ATOM      7  C   UNL     1       9.665  -2.227  -1.057  0.00  0.00    +0.109 C 
BRANCH   7  11
ATOM      8  N   UNL     1       6.008  -1.981  -0.760  0.00  0.00    -0.296 N 
ATOM      9  C   UNL     1       7.280  -2.393  -0.587  0.00  0.00    +0.300 C 
ATOM     10  O   UNL     1       7.522  -3.319   0.163  0.00  0.00    -0.253 OA
ATOM     11  N   UNL     1       8.283  -1.779  -1.245  0.00  0.00    -0.299 N 
ATOM     12  H   UNL     1       5.815  -1.243  -1.358  0.00  0.00    +0.150 HD
ATOM     13  H   UNL     1       8.089  -1.040  -1.843  0.00  0.00    +0.150 HD
BRANCH   8  14
ATOM     14  C   UNL     1       4.918  -2.649  -0.045  0.00  0.00    +0.153 C 
BRANCH  14  23
ATOM     15  C   UNL     1      -0.017   1.378   0.010  0.00  0.00    +0.004 A 
ATOM     16  C   UNL     1       1.170   2.088   0.002  0.00  0.00    +0.004 A 
ATOM     17  C   UNL     1       2.378   1.418  -0.012  0.00  0.00    +0.049 A 
ATOM     18  C   UNL     1       2.404   0.031  -0.019  0.00  0.00    +0.163 A 
ATOM     19  C   UNL     1       1.212  -0.683  -0.014  0.00  0.00    +0.162 A 
ATOM     20  C   UNL     1       0.002  -0.004   0.002  0.00  0.00    +0.049 A 
ATOM     21  O   UNL     1       1.214  -2.043  -0.029  0.00  0.00    -0.485 OA
ATOM     22  C   UNL     1       2.441  -2.689   0.330  0.00  0.00    +0.275 C 
ATOM     23  C   UNL     1       3.587  -1.993  -0.416  0.00  0.00    +0.228 C 
ATOM     24  O   UNL     1       3.602  -0.615  -0.030  0.00  0.00    -0.480 OA
ENDBRANCH  14  23
ENDBRANCH   8  14
ENDBRANCH   7  11
ENDBRANCH   1   7
BRANCH   5  25
ATOM     25  C   UNL     1      13.913  -2.418  -0.255  0.00  0.00    +0.109 C 
BRANCH  25  26
ATOM     26  N   UNL     1      14.311  -2.491   1.153  0.00  0.00    -0.299 N 
ATOM     27  C   UNL     1      15.536  -2.945   1.485  0.00  0.00    +0.300 C 
ATOM     28  O   UNL     1      16.311  -3.295   0.616  0.00  0.00    -0.253 OA
ATOM     29  N   UNL     1      15.902  -3.012   2.780  0.00  0.00    -0.296 N 
ATOM     30  H   UNL     1      13.693  -2.212   1.847  0.00  0.00    +0.150 HD
ATOM     31  H   UNL     1      15.284  -2.733   3.474  0.00  0.00    +0.150 HD
BRANCH  29  32
ATOM     32  C   UNL     1      17.234  -3.506   3.141  0.00  0.00    +0.153 C 
BRANCH  32  33
ATOM     33  C   UNL     1      17.393  -3.479   4.662  0.00  0.00    +0.228 C 
ATOM     34  C   UNL     1      18.822  -3.891   5.040  0.00  0.00    +0.275 C 
ATOM     35  O   UNL     1      18.932  -3.869   6.467  0.00  0.00    -0.485 OA
ATOM     36  C   UNL     1      17.926  -4.460   7.167  0.00  0.00    +0.162 A 
ATOM     37  C   UNL     1      18.128  -4.798   8.497  0.00  0.00    +0.049 A 
ATOM     38  C   UNL     1      17.114  -5.395   9.222  0.00  0.00    +0.004 A 
ATOM     39  C   UNL     1      15.896  -5.657   8.624  0.00  0.00    +0.004 A 
ATOM     40  C   UNL     1      15.688  -5.325   7.299  0.00  0.00    +0.049 A 
ATOM     41  C   UNL     1      16.702  -4.727   6.565  0.00  0.00    +0.163 A 
ATOM     42  O   UNL     1      16.485  -4.412   5.259  0.00  0.00    -0.480 OA
ENDBRANCH  32  33
ENDBRANCH  29  32
ENDBRANCH  25  26
ENDBRANCH   5  25
TORSDOF 8
