REMARK  Name = ZINC13059013
REMARK  11 active torsions:
REMARK  status: ('A' for Active; 'I' for Inactive)
REMARK    1  A    between atoms: C_1  and  C_2
REMARK    2  A    between atoms: C_2  and  C_4
REMARK    3  A    between atoms: C_2  and  S_20
REMARK    4  A    between atoms: N_6  and  C_7
REMARK    5  A    between atoms: C_10  and  S_13
REMARK    6  A    between atoms: S_13  and  N_16
REMARK    7  A    between atoms: N_16  and  C_17
REMARK    8  A    between atoms: C_17  and  C_18
REMARK    9  A    between atoms: C_17  and  C_19
REMARK   10  A    between atoms: S_20  and  C_21
REMARK   11  A    between atoms: N_25  and  C_26
REMARK                            x       y       z     vdW  Elec       q    Type
REMARK                         _______ _______ _______ _____ _____    ______ ____
ROOT
ATOM      1  C   UNL     1      -0.032   1.519   0.015  0.00  0.00    +0.029 C 
ATOM      2  C   UNL     1      -0.000  -0.010   0.003  0.00  0.00    +0.137 C 
ENDROOT
BRANCH   2   3
ATOM      3  C   UNL     1       0.708  -0.488  -1.238  0.00  0.00    +0.230 C 
ATOM      4  O   UNL     1       1.867  -0.839  -1.178  0.00  0.00    -0.274 OA
ATOM      5  N   UNL     1       0.053  -0.526  -2.415  0.00  0.00    -0.285 N 
ATOM      6  H   UNL     1      -0.892  -0.310  -2.452  0.00  0.00    +0.155 HD
BRANCH   5   7
ATOM      7  C   UNL     1       0.736  -0.877  -3.585  0.00  0.00    +0.034 A 
ATOM      8  C   UNL     1       0.406  -0.273  -4.791  0.00  0.00    +0.025 A 
ATOM      9  C   UNL     1       1.082  -0.621  -5.944  0.00  0.00    +0.030 A 
ATOM     10  C   UNL     1       2.086  -1.571  -5.898  0.00  0.00    +0.105 A 
ATOM     11  C   UNL     1       2.416  -2.175  -4.699  0.00  0.00    +0.030 A 
ATOM     12  C   UNL     1       1.748  -1.827  -3.542  0.00  0.00    +0.025 A 
BRANCH  10  13
ATOM     13  S   UNL     1       2.946  -2.013  -7.371  0.00  0.00    +0.059 S 
ATOM     14  O   UNL     1       3.467  -3.318  -7.161  0.00  0.00    -0.153 OA
ATOM     15  O   UNL     1       2.080  -1.704  -8.455  0.00  0.00    -0.153 OA
BRANCH  13  16
ATOM     16  N   UNL     1       4.248  -0.999  -7.501  0.00  0.00    -0.187 NA
ATOM     17  H   UNL     1       4.300  -0.368  -8.237  0.00  0.00    +0.148 HD
BRANCH  16  18
ATOM     18  C   UNL     1       5.321  -1.053  -6.505  0.00  0.00    +0.070 C 
ATOM     19  C   UNL     1       6.442  -1.963  -7.012  0.00  0.00    +0.025 C 
ATOM     20  C   UNL     1       5.873   0.355  -6.273  0.00  0.00    +0.025 C 
ENDBRANCH  16  18
ENDBRANCH  13  16
ENDBRANCH  10  13
ENDBRANCH   5   7
ENDBRANCH   2   3
BRANCH   2  21
ATOM     21  S   UNL     1       0.882  -0.609   1.471  0.00  0.00    -0.075 S 
BRANCH  21  22
ATOM     22  C   UNL     1      -0.136  -0.101   2.817  0.00  0.00    +0.175 A 
ATOM     23  N   UNL     1      -1.271   0.555   2.717  0.00  0.00    -0.226 NA
ATOM     24  C   UNL     1      -1.767   0.769   3.943  0.00  0.00    +0.064 A 
ATOM     25  C   UNL     1      -0.918   0.233   4.842  0.00  0.00    +0.047 A 
ATOM     26  N   UNL     1       0.118  -0.327   4.140  0.00  0.00    -0.291 N 
ATOM     27  C   UNL     1      -1.122   0.268   6.335  0.00  0.00    +0.056 C 
ATOM     28  C   UNL     1      -2.181   1.331   6.654  0.00  0.00    +0.007 C 
ATOM     29  C   UNL     1      -3.403   1.117   5.758  0.00  0.00    +0.007 C 
ATOM     30  C   UNL     1      -3.047   1.478   4.311  0.00  0.00    +0.057 C 
BRANCH  26  31
ATOM     31  C   UNL     1       1.225  -1.000   4.676  0.00  0.00    +0.049 A 
ATOM     32  C   UNL     1       1.050  -2.201   5.349  0.00  0.00    +0.026 A 
ATOM     33  C   UNL     1       2.143  -2.861   5.877  0.00  0.00    +0.002 A 
ATOM     34  C   UNL     1       3.410  -2.326   5.736  0.00  0.00    +0.000 A 
ATOM     35  C   UNL     1       3.587  -1.129   5.066  0.00  0.00    +0.002 A 
ATOM     36  C   UNL     1       2.499  -0.468   4.531  0.00  0.00    +0.026 A 
ENDBRANCH  26  31
ENDBRANCH  21  22
ENDBRANCH   2  21
TORSDOF 8
