REMARK  Name = ZINC09688608
REMARK  4 active torsions:
REMARK  status: ('A' for Active; 'I' for Inactive)
REMARK    1  A    between atoms: C_6  and  S_7
REMARK    2  A    between atoms: S_7  and  N_10
REMARK    3  A    between atoms: C_13  and  C_16
REMARK    4  A    between atoms: N_18  and  C_19
REMARK                            x       y       z     vdW  Elec       q    Type
REMARK                         _______ _______ _______ _____ _____    ______ ____
ROOT
ATOM      1  N   UNL     1      -4.445   5.543   1.631  0.00  0.00    -0.177 NA
ATOM      2  C   UNL     1      -5.542   4.876   2.346  0.00  0.00    +0.110 C 
ATOM      3  C   UNL     1      -4.979   4.258   3.635  0.00  0.00    +0.030 C 
ATOM      4  C   UNL     1      -4.269   5.344   4.447  0.00  0.00    +0.077 C 
ATOM      5  C   UNL     1      -3.101   5.909   3.634  0.00  0.00    +0.030 C 
ATOM      6  C   UNL     1      -3.639   6.541   2.347  0.00  0.00    +0.110 C 
ENDROOT
BRANCH   4   7
ATOM      7  C   UNL     1      -3.748   4.751   5.730  0.00  0.00    +0.216 C 
ATOM      8  O   UNL     1      -2.559   4.778   5.972  0.00  0.00    -0.276 OA
ATOM      9  N   UNL     1      -4.602   4.192   6.610  0.00  0.00    -0.312 N 
ATOM     10  H   UNL     1      -5.552   4.170   6.417  0.00  0.00    +0.149 HD
BRANCH   9  11
ATOM     11  C   UNL     1      -4.095   3.615   7.858  0.00  0.00    +0.073 C 
ATOM     12  C   UNL     1      -3.640   2.176   7.607  0.00  0.00    +0.022 C 
ATOM     13  C   UNL     1      -3.111   1.574   8.910  0.00  0.00    +0.002 C 
ATOM     14  C   UNL     1      -4.220   1.582   9.964  0.00  0.00    +0.000 C 
ATOM     15  C   UNL     1      -4.675   3.022  10.214  0.00  0.00    +0.002 C 
ATOM     16  C   UNL     1      -5.204   3.624   8.911  0.00  0.00    +0.022 C 
ENDBRANCH   9  11
ENDBRANCH   4   7
BRANCH   1  17
ATOM     17  S   UNL     1      -4.129   5.183   0.046  0.00  0.00    +0.061 S 
ATOM     18  O   UNL     1      -3.464   6.313  -0.503  0.00  0.00    -0.153 OA
ATOM     19  O   UNL     1      -5.335   4.668  -0.502  0.00  0.00    -0.153 OA
BRANCH  17  25
ATOM     20  C   UNL     1      -3.412   2.550   0.030  0.00  0.00    +0.031 A 
ATOM     21  C   UNL     1      -2.506   1.507   0.021  0.00  0.00    +0.031 A 
ATOM     22  C   UNL     1      -1.147   1.775   0.016  0.00  0.00    +0.087 A 
ATOM     23  C   UNL     1      -0.695   3.095   0.024  0.00  0.00    +0.159 A 
ATOM     24  C   UNL     1      -1.612   4.135   0.037  0.00  0.00    +0.077 A 
ATOM     25  C   UNL     1      -2.966   3.860   0.035  0.00  0.00    +0.109 A 
ATOM     26  O   UNL     1       0.660   3.057   0.011  0.00  0.00    -0.408 OA
ATOM     27  C   UNL     1       1.065   1.778   0.001  0.00  0.00    +0.419 A 
ATOM     28  O   UNL     1       2.223   1.408  -0.011  0.00  0.00    -0.223 OA
ATOM     29  N   UNL     1      -0.011   0.966   0.007  0.00  0.00    -0.288 N 
ATOM     30  H   UNL     1       0.002  -0.004   0.002  0.00  0.00    +0.172 HD
ENDBRANCH  17  25
ENDBRANCH   1  17
TORSDOF 4
