REMARK  Name = ZINC40815040
REMARK  6 active torsions:
REMARK  status: ('A' for Active; 'I' for Inactive)
REMARK    1  A    between atoms: C_1  and  C_2
REMARK    2  A    between atoms: C_6  and  C_7
REMARK    3  A    between atoms: N_9  and  C_10
REMARK    4  A    between atoms: N_24  and  N_25
REMARK    5  A    between atoms: N_25  and  S_26
REMARK    6  A    between atoms: S_26  and  C_29
REMARK                            x       y       z     vdW  Elec       q    Type
REMARK                         _______ _______ _______ _____ _____    ______ ____
ROOT
ATOM      1  C   UNL     1      -0.008   1.502   0.010  0.00  0.00    +0.048 C 
ATOM      2  C   UNL     1       0.019  -0.004   0.002  0.00  0.00    +0.009 A 
ATOM      3  C   UNL     1       0.037  -0.838  -1.122  0.00  0.00    +0.042 A 
ATOM      4  C   UNL     1       0.059  -2.137  -0.673  0.00  0.00    +0.115 A 
ATOM      5  O   UNL     1       0.058  -2.112   0.658  0.00  0.00    -0.454 OA
ATOM      6  C   UNL     1       0.038  -0.831   1.091  0.00  0.00    +0.193 A 
ATOM      7  C   UNL     1       0.077  -3.325  -1.601  0.00  0.00    +0.075 C 
ATOM      8  C   UNL     1      -0.441  -2.904  -2.978  0.00  0.00    +0.014 C 
ATOM      9  C   UNL     1       0.327  -1.682  -3.494  0.00  0.00    +0.058 C 
ATOM     10  C   UNL     1       0.037  -0.511  -2.567  0.00  0.00    +0.071 C 
ATOM     11  N   UNL     1      -0.194   0.686  -3.009  0.00  0.00    -0.170 NA
ENDROOT
BRANCH   6  12
ATOM     12  C   UNL     1       0.033  -0.400   2.493  0.00  0.00    +0.284 C 
ATOM     13  O   UNL     1       0.011   0.786   2.766  0.00  0.00    -0.266 OA
ATOM     14  N   UNL     1       0.053  -1.318   3.480  0.00  0.00    -0.278 N 
ATOM     15  H   UNL     1      -0.010  -2.262   3.266  0.00  0.00    +0.155 HD
BRANCH  14  16
ATOM     16  C   UNL     1       0.165  -0.910   4.810  0.00  0.00    +0.042 A 
ATOM     17  C   UNL     1       0.751   0.298   5.120  0.00  0.00    +0.024 A 
ATOM     18  C   UNL     1       0.868   0.714   6.442  0.00  0.00    +0.002 A 
ATOM     19  C   UNL     1       0.408  -0.059   7.465  0.00  0.00    +0.008 A 
ATOM     20  C   UNL     1      -0.196  -1.298   7.192  0.00  0.00    -0.016 A 
ATOM     21  C   UNL     1      -0.326  -1.729   5.849  0.00  0.00    +0.003 A 
ATOM     22  C   UNL     1      -0.935  -2.964   5.577  0.00  0.00    +0.010 A 
ATOM     23  C   UNL     1      -1.397  -3.728   6.605  0.00  0.00    +0.001 A 
ATOM     24  C   UNL     1      -1.276  -3.302   7.926  0.00  0.00    +0.001 A 
ATOM     25  C   UNL     1      -0.679  -2.116   8.228  0.00  0.00    +0.008 A 
ENDBRANCH  14  16
ENDBRANCH   6  12
BRANCH  11  26
ATOM     26  N   UNL     1      -0.181   0.938  -4.387  0.00  0.00    -0.136 N 
ATOM     27  H   UNL     1       0.000   0.217  -5.011  0.00  0.00    +0.197 HD
BRANCH  26  28
ATOM     28  S   UNL     1      -0.476   2.466  -4.952  0.00  0.00    +0.086 S 
ATOM     29  O   UNL     1      -0.253   2.431  -6.355  0.00  0.00    -0.149 OA
ATOM     30  O   UNL     1      -1.714   2.876  -4.388  0.00  0.00    -0.149 OA
BRANCH  28  31
ATOM     31  C   UNL     1       0.761   3.521  -4.272  0.00  0.00    +0.110 A 
ATOM     32  C   UNL     1       0.546   4.144  -3.057  0.00  0.00    +0.029 A 
ATOM     33  C   UNL     1       1.516   4.971  -2.523  0.00  0.00    +0.002 A 
ATOM     34  C   UNL     1       2.702   5.175  -3.205  0.00  0.00    +0.000 A 
ATOM     35  C   UNL     1       2.917   4.551  -4.419  0.00  0.00    +0.002 A 
ATOM     36  C   UNL     1       1.948   3.720  -4.951  0.00  0.00    +0.029 A 
ENDBRANCH  28  31
ENDBRANCH  26  28
ENDBRANCH  11  26
TORSDOF 5
