REMARK  Name = ZINC35452717
REMARK  10 active torsions:
REMARK  status: ('A' for Active; 'I' for Inactive)
REMARK    1  A    between atoms: C_1  and  C_2
REMARK    2  A    between atoms: C_4  and  C_31
REMARK    3  A    between atoms: C_6  and  N_8
REMARK    4  A    between atoms: C_9  and  C_11
REMARK    5  A    between atoms: C_11  and  N_12
REMARK    6  A    between atoms: N_12  and  C_13
REMARK    7  A    between atoms: N_12  and  S_14
REMARK    8  A    between atoms: S_14  and  C_17
REMARK    9  A    between atoms: C_22  and  C_23
REMARK   10  A    between atoms: C_27  and  C_30
REMARK                            x       y       z     vdW  Elec       q    Type
REMARK                         _______ _______ _______ _____ _____    ______ ____
ROOT
ATOM      1  S   UNL     1       1.670  -1.518   6.679  0.00  0.00    +0.061 S 
ATOM      2  O   UNL     1       1.430  -1.256   8.055  0.00  0.00    -0.153 OA
ATOM      3  O   UNL     1       2.606  -2.494   6.242  0.00  0.00    -0.153 OA
ENDROOT
BRANCH   1   4
ATOM      4  C   UNL     1       2.161   0.011   5.953  0.00  0.00    +0.112 A 
ATOM      5  C   UNL     1       1.232   0.782   5.278  0.00  0.00    +0.076 A 
ATOM      6  C   UNL     1       1.617   1.983   4.708  0.00  0.00    +0.145 A 
ATOM      7  C   UNL     1       2.940   2.410   4.817  0.00  0.00    +0.076 A 
ATOM      8  C   UNL     1       3.864   1.634   5.495  0.00  0.00    +0.032 A 
ATOM      9  C   UNL     1       3.471   0.437   6.066  0.00  0.00    -0.022 A 
ATOM     10  C   UNL     1       4.474  -0.407   6.809  0.00  0.00    +0.046 C 
ATOM     11  N   UNL     1       3.317   3.628   4.234  0.00  0.00    -0.280 N 
ATOM     12  C   UNL     1       2.355   4.501   3.862  0.00  0.00    +0.258 C 
ATOM     13  O   UNL     1       2.656   5.548   3.327  0.00  0.00    -0.271 OA
ATOM     14  C   UNL     1       0.906   4.170   4.114  0.00  0.00    +0.256 C 
ATOM     15  O   UNL     1       0.717   2.754   4.042  0.00  0.00    -0.478 OA
ATOM     16  C   UNL     1       0.504   4.666   5.504  0.00  0.00    +0.062 C 
ATOM     17  H   UNL     1       4.253   3.841   4.099  0.00  0.00    +0.155 HD
ENDBRANCH   1   4
BRANCH   1  18
ATOM     18  N   UNL     1       0.211  -1.930   6.014  0.00  0.00    -0.171 NA
ATOM     19  C   UNL     1      -1.024  -1.339   6.535  0.00  0.00    +0.132 C 
BRANCH  18  20
ATOM     20  C   UNL     1       0.155  -2.885   4.905  0.00  0.00    +0.205 C 
BRANCH  20  22
ATOM     21  N   UNL     1      -0.158  -2.817   2.452  0.00  0.00    -0.284 N 
ATOM     22  C   UNL     1       0.002  -2.138   3.605  0.00  0.00    +0.233 C 
ATOM     23  O   UNL     1       0.022  -0.925   3.597  0.00  0.00    -0.274 OA
ATOM     24  H   UNL     1      -0.246  -3.783   2.466  0.00  0.00    +0.155 HD
BRANCH  21  30
ATOM     25  C   UNL     1       0.915  -2.634  -2.342  0.00  0.00    +0.044 C 
ATOM     26  C   UNL     1       0.316  -2.016  -1.105  0.00  0.00    -0.048 A 
ATOM     27  C   UNL     1      -0.273  -0.767  -1.173  0.00  0.00    +0.006 A 
ATOM     28  C   UNL     1      -0.824  -0.196  -0.040  0.00  0.00    -0.048 A 
ATOM     29  C   UNL     1      -0.787  -0.874   1.163  0.00  0.00    +0.026 A 
ATOM     30  C   UNL     1      -0.197  -2.128   1.234  0.00  0.00    +0.034 A 
ATOM     31  C   UNL     1       0.351  -2.700   0.094  0.00  0.00    +0.026 A 
ATOM     32  C   UNL     1      -1.464   1.165  -0.118  0.00  0.00    +0.044 C 
ENDBRANCH  21  30
ENDBRANCH  20  22
ENDBRANCH  18  20
ENDBRANCH   1  18
TORSDOF 5
