REMARK  Name = ZINC13500140
REMARK  11 active torsions:
REMARK  status: ('A' for Active; 'I' for Inactive)
REMARK    1  A    between atoms: C_1  and  C_2
REMARK    2  A    between atoms: C_2  and  C_3
REMARK    3  A    between atoms: C_3  and  C_4
REMARK    4  A    between atoms: C_4  and  C_6
REMARK    5  A    between atoms: C_4  and  N_69
REMARK    6  A    between atoms: N_10  and  C_11
REMARK    7  A    between atoms: C_11  and  C_12
REMARK    8  A    between atoms: C_18  and  C_19
REMARK    9  A    between atoms: C_18  and  N_69
REMARK   10  A    between atoms: C_23  and  C_31
REMARK   11  A    between atoms: C_32  and  N_69
REMARK                            x       y       z     vdW  Elec       q    Type
REMARK                         _______ _______ _______ _____ _____    ______ ____
ROOT
ATOM      1  N   UNL     1       2.242   7.694  -2.218  0.00  0.00    +0.391 N 
ATOM      2  H   UNL     1       3.263   7.698  -2.115  0.00  0.00    -0.080 HD
ENDROOT
BRANCH   1   3
ATOM      3  C   UNL     1       1.903   7.681  -3.656  0.00  0.00    -0.067 C 
ATOM      4  C   UNL     1       2.211   6.290  -4.250  0.00  0.00    -0.015 C 
ATOM      5  C   UNL     1       2.778   6.596  -5.659  0.00  0.00    -0.002 C 
ATOM      6  C   UNL     1       3.625   7.871  -5.418  0.00  0.00    -0.002 C 
ATOM      7  C   UNL     1       2.802   8.685  -4.399  0.00  0.00    -0.015 C 
ENDBRANCH   1   3
BRANCH   1   8
ATOM      8  C   UNL     1       1.697   6.489  -1.559  0.00  0.00    +0.003 C 
BRANCH   8   9
ATOM      9  C   UNL     1       0.190   6.513  -1.574  0.00  0.00    +0.138 A 
ATOM     10  N   UNL     1      -0.580   7.513  -1.223  0.00  0.00    -0.115 NA
ATOM     11  N   UNL     1      -1.805   7.146  -1.377  0.00  0.00    -0.023 NA
ATOM     12  N   UNL     1      -1.836   5.939  -1.823  0.00  0.00    -0.044 NA
ATOM     13  N   UNL     1      -0.626   5.511  -1.952  0.00  0.00    -0.226 N 
BRANCH  13  14
ATOM     14  C   UNL     1      -0.216   4.188  -2.428  0.00  0.00    +0.182 C 
BRANCH  14  15
ATOM     15  C   UNL     1      -0.098   3.248  -1.256  0.00  0.00    -0.026 A 
ATOM     16  C   UNL     1      -1.193   2.508  -0.850  0.00  0.00    +0.005 A 
ATOM     17  C   UNL     1      -1.085   1.646   0.226  0.00  0.00    +0.000 A 
ATOM     18  C   UNL     1       0.117   1.527   0.898  0.00  0.00    +0.000 A 
ATOM     19  C   UNL     1       1.214   2.263   0.488  0.00  0.00    +0.000 A 
ATOM     20  C   UNL     1       1.106   3.124  -0.587  0.00  0.00    +0.005 A 
ENDBRANCH  14  15
ENDBRANCH  13  14
ENDBRANCH   8   9
BRANCH   8  21
ATOM     21  C   UNL     1       2.192   6.449  -0.112  0.00  0.00    -0.008 C 
BRANCH  21  23
ATOM     22  C   UNL     1       4.196   6.133   1.346  0.00  0.00    +0.004 C 
ATOM     23  C   UNL     1       3.713   6.290  -0.097  0.00  0.00    -0.005 C 
ENDBRANCH  21  23
ENDBRANCH   8  21
ENDBRANCH   1   8
BRANCH   1  24
ATOM     24  C   UNL     1       1.691   8.910  -1.581  0.00  0.00    -0.036 C 
BRANCH  24  25
ATOM     25  C   UNL     1       2.552  10.086  -1.961  0.00  0.00    +0.001 A 
ATOM     26  C   UNL     1       2.151  10.927  -2.947  0.00  0.00    +0.017 A 
ATOM     27  C   UNL     1       3.011  12.061  -3.292  0.00  0.00    -0.001 A 
ATOM     28  C   UNL     1       2.650  12.962  -4.300  0.00  0.00    +0.013 A 
ATOM     29  C   UNL     1       3.474  14.010  -4.598  0.00  0.00    -0.050 A 
ATOM     30  C   UNL     1       4.666  14.189  -3.909  0.00  0.00    +0.005 A 
ATOM     31  C   UNL     1       5.041  13.314  -2.913  0.00  0.00    +0.026 A 
ATOM     32  C   UNL     1       4.219  12.239  -2.592  0.00  0.00    +0.049 A 
ATOM     33  N   UNL     1       4.569  11.349  -1.599  0.00  0.00    -0.322 N 
ATOM     34  H   UNL     1       5.402  11.473  -1.118  0.00  0.00    +0.169 HD
ATOM     35  C   UNL     1       3.771  10.313  -1.286  0.00  0.00    +0.251 A 
ATOM     36  O   UNL     1       4.110   9.549  -0.399  0.00  0.00    -0.268 OA
ATOM     37  C   UNL     1       3.085  14.980  -5.683  0.00  0.00    +0.044 C 
ENDBRANCH  24  25
ENDBRANCH   1  24
TORSDOF 9
