REMARK  Name = ZINC64208446
REMARK  6 active torsions:
REMARK  status: ('A' for Active; 'I' for Inactive)
REMARK    1  A    between atoms: C_4  and  C_7
REMARK    2  A    between atoms: C_7  and  C_9
REMARK    3  A    between atoms: C_7  and  C_25
REMARK    4  A    between atoms: C_9  and  N_10
REMARK    5  A    between atoms: C_11  and  C_13
REMARK    6  A    between atoms: C_16  and  C_20
REMARK                            x       y       z     vdW  Elec       q    Type
REMARK                         _______ _______ _______ _____ _____    ______ ____
ROOT
ATOM      1  C   UNL     1       3.306  -0.762  -0.073  0.00  0.00    +0.064 C 
ENDROOT
BRANCH   1   2
ATOM      2  C   UNL     1       3.459  -1.603   1.167  0.00  0.00    -0.033 C 
ATOM      3  C   UNL     1       4.272  -1.359   2.220  0.00  0.00    -0.000 A 
ATOM      4  C   UNL     1       5.222  -0.279   2.513  0.00  0.00    +0.010 A 
ATOM      5  C   UNL     1       5.909  -0.308   3.678  0.00  0.00    +0.001 A 
ATOM      6  C   UNL     1       5.737  -1.341   4.610  0.00  0.00    +0.002 A 
ATOM      7  C   UNL     1       4.883  -2.367   4.411  0.00  0.00    +0.026 A 
ATOM      8  C   UNL     1       4.108  -2.438   3.221  0.00  0.00    +0.043 A 
ATOM      9  N   UNL     1       3.228  -3.315   2.803  0.00  0.00    -0.380 N 
ATOM     10  C   UNL     1       2.729  -2.888   1.491  0.00  0.00    +0.145 C 
ATOM     11  H   UNL     1       2.951  -4.111   3.282  0.00  0.00    +0.160 HD
ENDBRANCH   1   2
BRANCH   1  15
ATOM     12  C   UNL     1      -0.741   0.565  -0.407  0.00  0.00    +0.000 A 
ATOM     13  C   UNL     1       0.284   1.488  -0.311  0.00  0.00    +0.000 A 
ATOM     14  C   UNL     1       1.593   1.059  -0.203  0.00  0.00    +0.004 A 
ATOM     15  C   UNL     1       1.878  -0.294  -0.190  0.00  0.00    -0.039 A 
ATOM     16  C   UNL     1       0.853  -1.217  -0.284  0.00  0.00    +0.004 A 
ATOM     17  C   UNL     1      -0.456  -0.787  -0.394  0.00  0.00    +0.000 A 
ENDBRANCH   1  15
BRANCH   1  18
ATOM     18  C   UNL     1       3.671  -1.596  -1.303  0.00  0.00    +0.117 C 
BRANCH  18  19
ATOM     19  N   UNL     1       3.638  -0.747  -2.497  0.00  0.00    -0.311 N 
ATOM     20  C   UNL     1       3.928  -1.271  -3.704  0.00  0.00    +0.238 C 
ATOM     21  O   UNL     1       4.217  -2.450  -3.803  0.00  0.00    -0.271 OA
ATOM     22  H   UNL     1       3.408   0.192  -2.417  0.00  0.00    +0.149 HD
BRANCH  20  23
ATOM     23  C   UNL     1       3.896  -0.451  -4.856  0.00  0.00    +0.086 C 
ATOM     24  C   UNL     1       4.065  -0.998  -6.078  0.00  0.00    +0.020 C 
ATOM     25  N   UNL     1       4.115  -2.335  -6.253  0.00  0.00    -0.329 N 
ATOM     26  C   UNL     1       4.816  -2.825  -7.460  0.00  0.00    +0.196 C 
ATOM     27  S   UNL     1       4.520  -1.415  -8.613  0.00  0.00    -0.125 S 
ATOM     28  C   UNL     1       4.202  -0.137  -7.323  0.00  0.00    +0.122 C 
ATOM     29  H   UNL     1       3.711  -2.946  -5.617  0.00  0.00    +0.147 HD
BRANCH  26  30
ATOM     30  C   UNL     1       4.189  -4.095  -7.977  0.00  0.00    +0.135 A 
ATOM     31  C   UNL     1       4.831  -5.080  -8.629  0.00  0.00    +0.047 A 
ATOM     32  C   UNL     1       3.867  -6.071  -8.927  0.00  0.00    +0.041 A 
ATOM     33  C   UNL     1       2.693  -5.631  -8.438  0.00  0.00    +0.195 A 
ATOM     34  O   UNL     1       2.895  -4.436  -7.859  0.00  0.00    -0.465 OA
ENDBRANCH  26  30
ENDBRANCH  20  23
ENDBRANCH  18  19
ENDBRANCH   1  18
TORSDOF 6
