REMARK  Name = ZINC04664656
REMARK  4 active torsions:
REMARK  status: ('A' for Active; 'I' for Inactive)
REMARK    1  A    between atoms: C_1  and  C_2
REMARK    2  A    between atoms: C_4  and  O_9
REMARK    3  A    between atoms: O_9  and  C_10
REMARK    4  A    between atoms: C_13  and  C_18
REMARK                            x       y       z     vdW  Elec       q    Type
REMARK                         _______ _______ _______ _____ _____    ______ ____
ROOT
ATOM      1  C   UNL     1       5.647   1.020  -1.926  0.00  0.00    +0.202 C 
ATOM      2  C   UNL     1       4.613   1.215  -1.088  0.00  0.00    +0.075 C 
ATOM      3  C   UNL     1       3.134   1.110  -1.421  0.00  0.00    +0.095 C 
ATOM      4  C   UNL     1       2.490   1.048  -0.016  0.00  0.00    +0.211 C 
ATOM      5  O   UNL     1       3.455   1.714   0.817  0.00  0.00    -0.453 OA
ATOM      6  C   UNL     1       4.682   1.559   0.286  0.00  0.00    +0.339 C 
ATOM      7  O   UNL     1       5.720   1.697   0.907  0.00  0.00    -0.245 OA
ENDROOT
BRANCH   4   8
ATOM      8  C   UNL     1       1.175   1.783   0.000  0.00  0.00    -0.007 A 
ATOM      9  C   UNL     1      -0.013   1.076   0.008  0.00  0.00    +0.007 A 
ATOM     10  C   UNL     1      -1.219   1.751   0.017  0.00  0.00    +0.000 A 
ATOM     11  C   UNL     1      -1.238   3.133   0.029  0.00  0.00    +0.000 A 
ATOM     12  C   UNL     1      -0.050   3.840   0.022  0.00  0.00    +0.000 A 
ATOM     13  C   UNL     1       1.156   3.165   0.008  0.00  0.00    +0.007 A 
ENDBRANCH   4   8
BRANCH   1  14
ATOM     14  O   UNL     1       5.418   0.695  -3.214  0.00  0.00    -0.457 OA
BRANCH  14  18
ATOM     15  C   UNL     1       6.352   0.875  -7.795  0.00  0.00    +0.051 C 
ATOM     16  C   UNL     1       6.564   0.940  -6.304  0.00  0.00    +0.037 C 
ATOM     17  C   UNL     1       6.154   0.024  -5.430  0.00  0.00    +0.071 C 
ATOM     18  C   UNL     1       6.582   0.500  -4.061  0.00  0.00    +0.392 C 
ATOM     19  O   UNL     1       7.266   1.767  -4.273  0.00  0.00    -0.418 OA
ATOM     20  C   UNL     1       7.253   2.021  -5.595  0.00  0.00    +0.338 C 
ATOM     21  O   UNL     1       7.739   3.002  -6.121  0.00  0.00    -0.245 OA
ENDBRANCH  14  18
ENDBRANCH   1  14
TORSDOF 3
