REMARK  Name = ZINC13035745
REMARK  7 active torsions:
REMARK  status: ('A' for Active; 'I' for Inactive)
REMARK    1  A    between atoms: C_4  and  O_9
REMARK    2  A    between atoms: C_5  and  C_7
REMARK    3  A    between atoms: O_9  and  C_10
REMARK    4  A    between atoms: C_10  and  C_11
REMARK    5  A    between atoms: N_13  and  N_14
REMARK    6  A    between atoms: C_15  and  C_17
REMARK    7  A    between atoms: C_17  and  C_18
REMARK                            x       y       z     vdW  Elec       q    Type
REMARK                         _______ _______ _______ _____ _____    ______ ____
ROOT
ATOM      1  C   UNL     1      -4.801   1.314   0.032  0.00  0.00    +0.267 C 
ATOM      2  O   UNL     1      -4.633   0.113   0.024  0.00  0.00    -0.271 OA
ATOM      3  N   UNL     1      -6.050   1.820   0.040  0.00  0.00    -0.232 N 
ATOM      4  H   UNL     1      -6.184   2.780   0.046  0.00  0.00    +0.173 HD
ENDROOT
BRANCH   3   5
ATOM      5  N   UNL     1      -7.155   0.958   0.041  0.00  0.00    -0.234 N 
ATOM      6  C   UNL     1      -8.404   1.464   0.050  0.00  0.00    +0.229 C 
ATOM      7  O   UNL     1      -8.572   2.665   0.057  0.00  0.00    -0.274 OA
ATOM      8  H   UNL     1      -7.021  -0.003   0.035  0.00  0.00    +0.173 HD
BRANCH   6   9
ATOM      9  C   UNL     1      -9.592   0.537   0.050  0.00  0.00    +0.102 C 
BRANCH   9  10
ATOM     10  C   UNL     1     -10.882   1.361   0.061  0.00  0.00    +0.020 C 
ATOM     11  C   UNL     1     -10.982   2.168  -1.244  0.00  0.00    +0.028 C 
ATOM     12  C   UNL     1     -12.425   2.741  -1.349  0.00  0.00    +0.166 C 
ATOM     13  S   UNL     1     -13.404   1.299  -0.753  0.00  0.00    -0.031 S 
ATOM     14  O   UNL     1     -13.789   0.508  -1.869  0.00  0.00    -0.174 OA
ATOM     15  O   UNL     1     -14.396   1.758   0.155  0.00  0.00    -0.174 OA
ATOM     16  C   UNL     1     -12.097   0.411   0.188  0.00  0.00    +0.170 C 
ENDBRANCH   9  10
ENDBRANCH   6   9
ENDBRANCH   3   5
BRANCH   1  17
ATOM     17  C   UNL     1      -3.613   2.241   0.031  0.00  0.00    +0.326 C 
BRANCH  17  18
ATOM     18  O   UNL     1      -2.409   1.472   0.021  0.00  0.00    -0.482 OA
BRANCH  18  22
ATOM     19  C   UNL     1       1.155   3.567   0.010  0.00  0.00    +0.001 A 
ATOM     20  C   UNL     1      -0.054   4.243   0.024  0.00  0.00    +0.004 A 
ATOM     21  C   UNL     1      -1.246   3.545   0.032  0.00  0.00    +0.046 A 
ATOM     22  C   UNL     1      -1.239   2.158   0.020  0.00  0.00    +0.135 A 
ATOM     23  C   UNL     1      -0.018   1.470   0.010  0.00  0.00    +0.105 A 
ATOM     24  C   UNL     1       1.180   2.189   0.003  0.00  0.00    +0.019 A 
BRANCH  23  25
ATOM     25  C   UNL     1       0.002  -0.004   0.002  0.00  0.00    +0.390 C 
ATOM     26  O   UNL     1      -1.042  -0.626   0.009  0.00  0.00    -0.240 OA
ATOM     27  O   UNL     1       1.178  -0.662  -0.013  0.00  0.00    -0.240 OA
ENDBRANCH  23  25
ENDBRANCH  18  22
ENDBRANCH  17  18
ENDBRANCH   1  17
TORSDOF 7
