REMARK  Name = ZINC39164137
REMARK  7 active torsions:
REMARK  status: ('A' for Active; 'I' for Inactive)
REMARK    1  A    between atoms: C_1  and  C_2
REMARK    2  A    between atoms: C_4  and  C_12
REMARK    3  A    between atoms: C_12  and  C_14
REMARK    4  A    between atoms: C_14  and  C_16
REMARK    5  A    between atoms: C_14  and  S_17
REMARK    6  A    between atoms: S_17  and  C_18
REMARK    7  A    between atoms: C_22  and  C_24
REMARK                            x       y       z     vdW  Elec       q    Type
REMARK                         _______ _______ _______ _____ _____    ______ ____
ROOT
ATOM      1  S   UNL     1      -5.011  -0.167  -1.747  0.00  0.00    -0.085 S 
ENDROOT
BRANCH   1   2
ATOM      2  C   UNL     1      -6.550  -1.045  -1.358  0.00  0.00    +0.340 C 
ATOM      3  N   UNL     1      -6.807  -1.018   0.092  0.00  0.00    -0.219 N 
ATOM      4  N   UNL     1      -6.809  -2.361   0.495  0.00  0.00    -0.145 NA
ATOM      5  C   UNL     1      -6.591  -3.135  -0.517  0.00  0.00    +0.240 C 
ATOM      6  O   UNL     1      -6.426  -2.440  -1.671  0.00  0.00    -0.442 OA
ATOM      7  H   UNL     1      -6.944  -0.237   0.650  0.00  0.00    +0.173 HD
BRANCH   5   8
ATOM      8  C   UNL     1      -6.532  -4.608  -0.428  0.00  0.00    +0.042 A 
ATOM      9  C   UNL     1      -6.285  -5.368  -1.573  0.00  0.00    +0.017 A 
ATOM     10  C   UNL     1      -6.230  -6.744  -1.488  0.00  0.00    +0.050 A 
ATOM     11  C   UNL     1      -6.418  -7.376  -0.269  0.00  0.00    +0.166 A 
ATOM     12  C   UNL     1      -6.665  -6.623   0.878  0.00  0.00    +0.167 A 
ATOM     13  C   UNL     1      -6.716  -5.244   0.801  0.00  0.00    +0.062 A 
ATOM     14  O   UNL     1      -6.813  -7.474   1.936  0.00  0.00    -0.453 OA
ATOM     15  C   UNL     1      -7.062  -8.768   1.355  0.00  0.00    +0.466 C 
ATOM     16  O   UNL     1      -6.412  -8.698   0.072  0.00  0.00    -0.453 OA
ENDBRANCH   5   8
ENDBRANCH   1   2
BRANCH   1  17
ATOM     17  C   UNL     1      -3.750  -1.043  -0.781  0.00  0.00    +0.119 C 
ATOM     18  C   UNL     1      -3.615  -2.477  -1.298  0.00  0.00    +0.027 C 
BRANCH  17  19
ATOM     19  C   UNL     1      -2.428  -0.333  -0.919  0.00  0.00    +0.174 C 
ATOM     20  O   UNL     1      -2.205   0.350  -1.898  0.00  0.00    -0.291 OA
BRANCH  19  23
ATOM     21  C   UNL     1      -0.363   1.777   0.267  0.00  0.00    +0.035 C 
ATOM     22  C   UNL     1      -0.127   0.268   0.180  0.00  0.00    +0.111 C 
ATOM     23  C   UNL     1      -1.450  -0.461   0.090  0.00  0.00    +0.027 C 
ATOM     24  C   UNL     1      -1.499  -1.280   1.203  0.00  0.00    +0.006 A 
ATOM     25  C   UNL     1      -2.464  -2.197   1.682  0.00  0.00    +0.010 A 
ATOM     26  C   UNL     1      -2.246  -2.879   2.829  0.00  0.00    +0.001 A 
ATOM     27  C   UNL     1      -1.078  -2.719   3.591  0.00  0.00    +0.002 A 
ATOM     28  C   UNL     1      -0.095  -1.869   3.222  0.00  0.00    +0.026 A 
ATOM     29  C   UNL     1      -0.252  -1.087   1.985  0.00  0.00    +0.043 A 
ATOM     30  N   UNL     1       0.521  -0.213   1.404  0.00  0.00    -0.377 N 
ATOM     31  H   UNL     1       1.388   0.075   1.730  0.00  0.00    +0.160 HD
ENDBRANCH  19  23
ENDBRANCH  17  19
ENDBRANCH   1  17
TORSDOF 5
