REMARK  Name = ZINC00125878
REMARK  5 active torsions:
REMARK  status: ('A' for Active; 'I' for Inactive)
REMARK    1  A    between atoms: C_4  and  C_7
REMARK    2  A    between atoms: C_9  and  C_25
REMARK    3  A    between atoms: C_10  and  N_24
REMARK    4  A    between atoms: C_14  and  C_17
REMARK    5  A    between atoms: C_21  and  O_23
REMARK                            x       y       z     vdW  Elec       q    Type
REMARK                         _______ _______ _______ _____ _____    ______ ____
ROOT
ATOM      1  C   UNL     1       3.194  -0.785   0.045  0.00  0.00    +0.100 C 
ATOM      2  C   UNL     1       3.043  -1.704  -1.154  0.00  0.00    +0.081 C 
ATOM      3  C   UNL     1       3.339  -3.050  -0.968  0.00  0.00    +0.134 C 
ATOM      4  N   UNL     1       3.739  -3.534   0.200  0.00  0.00    -0.195 NA
ATOM      5  C   UNL     1       3.904  -2.822   1.310  0.00  0.00    +0.255 C 
ATOM      6  C   UNL     1       3.654  -1.447   1.326  0.00  0.00    +0.056 C 
ATOM      7  C   UNL     1       3.902  -0.975   2.589  0.00  0.00    +0.089 C 
ATOM      8  N   UNL     1       4.298  -2.027   3.358  0.00  0.00    -0.218 N 
ATOM      9  O   UNL     1       4.300  -3.178   2.549  0.00  0.00    -0.359 OA
ATOM     10  H   UNL     1       4.540  -1.990   4.296  0.00  0.00    +0.207 HD
ENDROOT
BRANCH   1  14
ATOM     11  C   UNL     1      -0.580   1.075   0.784  0.00  0.00    +0.000 A 
ATOM     12  C   UNL     1       0.487   1.831   0.336  0.00  0.00    +0.000 A 
ATOM     13  C   UNL     1       1.708   1.229   0.097  0.00  0.00    +0.004 A 
ATOM     14  C   UNL     1       1.863  -0.129   0.307  0.00  0.00    -0.035 A 
ATOM     15  C   UNL     1       0.796  -0.884   0.756  0.00  0.00    +0.004 A 
ATOM     16  C   UNL     1      -0.426  -0.283   0.994  0.00  0.00    +0.000 A 
ENDBRANCH   1  14
BRANCH   7  17
ATOM     17  C   UNL     1       3.763   0.428   3.038  0.00  0.00    +0.005 A 
ATOM     18  C   UNL     1       3.107   0.719   4.235  0.00  0.00    +0.010 A 
ATOM     19  C   UNL     1       2.980   2.029   4.650  0.00  0.00    +0.004 A 
ATOM     20  C   UNL     1       3.500   3.055   3.884  0.00  0.00    +0.045 A 
ATOM     21  C   UNL     1       4.153   2.776   2.691  0.00  0.00    +0.117 A 
ATOM     22  C   UNL     1       4.292   1.464   2.268  0.00  0.00    +0.055 A 
BRANCH  21  23
ATOM     23  O   UNL     1       4.662   3.789   1.941  0.00  0.00    -0.507 OA
ATOM     24  H   UNL     1       5.575   4.019   2.159  0.00  0.00    +0.292 HD
ENDBRANCH  21  23
ENDBRANCH   7  17
BRANCH   3  25
ATOM     25  N   UNL     1       3.211  -3.914  -2.039  0.00  0.00    -0.342 N 
ATOM     26  H   UNL     1       2.920  -3.578  -2.901  0.00  0.00    +0.144 HD
ATOM     27  H   UNL     1       3.413  -4.856  -1.928  0.00  0.00    +0.144 HD
ENDBRANCH   3  25
BRANCH   2  28
ATOM     28  C   UNL     1       2.612  -1.206  -2.425  0.00  0.00    +0.099 C 
ATOM     29  N   UNL     1       2.270  -0.810  -3.434  0.00  0.00    -0.191 NA
ENDBRANCH   2  28
TORSDOF 5
