REMARK  Name = ZINC12433770
REMARK  5 active torsions:
REMARK  status: ('A' for Active; 'I' for Inactive)
REMARK    1  A    between atoms: C_1  and  C_2
REMARK    2  A    between atoms: C_3  and  C_15
REMARK    3  A    between atoms: C_5  and  C_7
REMARK    4  A    between atoms: C_15  and  N_49
REMARK    5  A    between atoms: C_19  and  C_21
REMARK                            x       y       z     vdW  Elec       q    Type
REMARK                         _______ _______ _______ _____ _____    ______ ____
ROOT
ATOM      1  C   UNL     1       6.564  -0.118  -2.077  0.00  0.00    -0.077 C 
ATOM      2  C   UNL     1       7.544   0.017  -3.262  0.00  0.00    -0.020 C 
ATOM      3  C   UNL     1       8.471   1.190  -2.884  0.00  0.00    -0.010 C 
ATOM      4  C   UNL     1       7.974   1.665  -1.502  0.00  0.00    -0.001 C 
ATOM      5  N   UNL     1       6.580   1.209  -1.466  0.00  0.00    +0.390 N 
ATOM      6  H   UNL     1       5.985   1.850  -2.004  0.00  0.00    -0.080 HD
ENDROOT
BRANCH   4   7
ATOM      7  C   UNL     1       8.064   3.166  -1.397  0.00  0.00    +0.095 A 
ATOM      8  N   UNL     1       9.147   3.852  -0.943  0.00  0.00    -0.343 N 
ATOM      9  H   UNL     1      10.009   3.456  -0.625  0.00  0.00    +0.167 HD
ATOM     10  C   UNL     1       8.836   5.197  -1.000  0.00  0.00    +0.066 A 
ATOM     11  C   UNL     1       9.521   6.360  -0.679  0.00  0.00    +0.030 A 
ATOM     12  C   UNL     1       8.916   7.585  -0.859  0.00  0.00    +0.040 A 
ATOM     13  C   UNL     1       7.621   7.664  -1.359  0.00  0.00    +0.126 A 
ATOM     14  C   UNL     1       6.926   6.519  -1.683  0.00  0.00    +0.068 A 
ATOM     15  C   UNL     1       7.527   5.270  -1.506  0.00  0.00    +0.092 A 
ATOM     16  N   UNL     1       7.118   3.995  -1.732  0.00  0.00    -0.234 NA
ATOM     17  F   UNL     1       7.040   8.872  -1.529  0.00  0.00    -0.205 F 
ENDBRANCH   4   7
BRANCH   5  18
ATOM     18  C   UNL     1       6.086   1.150  -0.054  0.00  0.00    -0.018 C 
BRANCH  18  21
ATOM     19  C   UNL     1       4.604  -1.603  -0.054  0.00  0.00    +0.088 C 
ATOM     20  C   UNL     1       3.957  -0.242  -0.040  0.00  0.00    +0.124 A 
ATOM     21  C   UNL     1       4.593   0.944  -0.039  0.00  0.00    +0.066 A 
ATOM     22  N   UNL     1       3.662   1.910  -0.029  0.00  0.00    -0.216 NA
ATOM     23  C   UNL     1       2.475   1.349  -0.015  0.00  0.00    +0.230 A 
ATOM     24  O   UNL     1       2.634   0.014  -0.025  0.00  0.00    -0.440 OA
BRANCH  23  25
ATOM     25  C   UNL     1       1.183   2.064   0.002  0.00  0.00    +0.075 A 
ATOM     26  C   UNL     1       1.154   3.460   0.010  0.00  0.00    +0.016 A 
ATOM     27  C   UNL     1      -0.055   4.123   0.025  0.00  0.00    +0.004 A 
ATOM     28  C   UNL     1      -1.241   3.409   0.032  0.00  0.00    +0.041 A 
ATOM     29  C   UNL     1      -1.223   2.025   0.019  0.00  0.00    +0.159 A 
ATOM     30  C   UNL     1      -0.016   1.347   0.009  0.00  0.00    +0.171 A 
ATOM     31  F   UNL     1       0.002  -0.004   0.002  0.00  0.00    -0.202 F 
ATOM     32  F   UNL     1      -2.385   1.335   0.020  0.00  0.00    -0.202 F 
ENDBRANCH  23  25
ENDBRANCH  18  21
ENDBRANCH   5  18
TORSDOF 4
