REMARK  Name = ZINC13523489
REMARK  12 active torsions:
REMARK  status: ('A' for Active; 'I' for Inactive)
REMARK    1  A    between atoms: C_1  and  C_2
REMARK    2  A    between atoms: C_5  and  S_8
REMARK    3  A    between atoms: S_8  and  C_9
REMARK    4  A    between atoms: C_12  and  C_18
REMARK    5  A    between atoms: C_14  and  N_15
REMARK    6  A    between atoms: C_19  and  C_20
REMARK    7  A    between atoms: C_19  and  C_22
REMARK    8  A    between atoms: C_22  and  C_24
REMARK    9  A    between atoms: C_26  and  C_33
REMARK   10  A    between atoms: N_27  and  C_30
REMARK   11  A    between atoms: C_28  and  C_29
REMARK   12  A    between atoms: C_30  and  C_31
REMARK                            x       y       z     vdW  Elec       q    Type
REMARK                         _______ _______ _______ _____ _____    ______ ____
ROOT
ATOM      1  C   UNL     1       1.299   2.868  -0.153  0.00  0.00    +0.043 A 
ATOM      2  C   UNL     1       1.078   1.585  -0.654  0.00  0.00    +0.018 A 
ATOM      3  C   UNL     1      -0.179   1.056  -0.652  0.00  0.00    +0.009 A 
ATOM      4  C   UNL     1      -1.254   1.809  -0.151  0.00  0.00    -0.021 A 
ATOM      5  C   UNL     1      -1.025   3.097   0.358  0.00  0.00    +0.041 A 
ATOM      6  C   UNL     1       0.237   3.617   0.351  0.00  0.00    +0.140 A 
ENDROOT
BRANCH   6   7
ATOM      7  N   UNL     1       0.478   4.978   0.881  0.00  0.00    +0.058 N 
ATOM      8  O   UNL     1      -0.449   5.633   1.322  0.00  0.00    -0.126 OA
ATOM      9  O   UNL     1       1.604   5.442   0.876  0.00  0.00    -0.126 OA
ENDBRANCH   6   7
BRANCH   4  10
ATOM     10  C   UNL     1      -2.605   1.250  -0.153  0.00  0.00    +0.030 C 
ATOM     11  C   UNL     1      -2.789  -0.111  -0.019  0.00  0.00    +0.099 C 
BRANCH  11  12
ATOM     12  C   UNL     1      -1.672  -0.960   0.269  0.00  0.00    +0.103 C 
ATOM     13  N   UNL     1      -0.786  -1.633   0.497  0.00  0.00    -0.191 NA
ENDBRANCH  11  12
BRANCH  11  14
ATOM     14  C   UNL     1      -4.132  -0.690  -0.172  0.00  0.00    +0.205 C 
ATOM     15  O   UNL     1      -5.081   0.031  -0.417  0.00  0.00    -0.286 OA
BRANCH  14  16
ATOM     16  C   UNL     1      -4.328  -2.143  -0.030  0.00  0.00    +0.044 A 
ATOM     17  C   UNL     1      -3.300  -3.149   0.256  0.00  0.00    +0.034 A 
ATOM     18  C   UNL     1      -3.931  -4.335   0.301  0.00  0.00    +0.017 A 
ATOM     19  N   UNL     1      -5.260  -4.143   0.057  0.00  0.00    -0.344 N 
ATOM     20  C   UNL     1      -5.515  -2.835  -0.143  0.00  0.00    +0.027 A 
ATOM     21  C   UNL     1      -6.864  -2.233  -0.439  0.00  0.00    +0.064 C 
ATOM     22  C   UNL     1      -3.276  -5.665   0.570  0.00  0.00    +0.063 C 
BRANCH  19  23
ATOM     23  C   UNL     1      -6.266  -5.207   0.019  0.00  0.00    +0.148 C 
BRANCH  23  24
ATOM     24  C   UNL     1      -6.381  -5.740  -1.386  0.00  0.00    -0.013 C 
ATOM     25  C   UNL     1      -6.229  -7.021  -1.615  0.00  0.00    +0.005 C 
ENDBRANCH  23  24
ENDBRANCH  19  23
ENDBRANCH  14  16
ENDBRANCH  11  14
ENDBRANCH   4  10
BRANCH   1  26
ATOM     26  S   UNL     1       2.926   3.544  -0.158  0.00  0.00    -0.087 S 
BRANCH  26  31
ATOM     27  C   UNL     1       2.891   7.402  -4.800  0.00  0.00    +0.044 C 
ATOM     28  C   UNL     1       2.900   6.439  -3.641  0.00  0.00    -0.050 A 
ATOM     29  C   UNL     1       4.006   6.365  -2.814  0.00  0.00    +0.004 A 
ATOM     30  C   UNL     1       4.018   5.483  -1.751  0.00  0.00    +0.015 A 
ATOM     31  C   UNL     1       2.916   4.670  -1.512  0.00  0.00    +0.013 A 
ATOM     32  C   UNL     1       1.808   4.744  -2.349  0.00  0.00    +0.015 A 
ATOM     33  C   UNL     1       1.802   5.632  -3.406  0.00  0.00    +0.004 A 
ENDBRANCH  26  31
ENDBRANCH   1  26
TORSDOF 9
