REMARK  Name = ZINC00909817
REMARK  10 active torsions:
REMARK  status: ('A' for Active; 'I' for Inactive)
REMARK    1  A    between atoms: C_1  and  C_2
REMARK    2  A    between atoms: C_2  and  C_3
REMARK    3  A    between atoms: C_3  and  C_4
REMARK    4  A    between atoms: C_3  and  C_5
REMARK    5  A    between atoms: C_3  and  N_6
REMARK    6  A    between atoms: C_7  and  C_11
REMARK    7  A    between atoms: C_11  and  C_13
REMARK    8  A    between atoms: C_11  and  N_62
REMARK    9  A    between atoms: C_17  and  C_26
REMARK   10  A    between atoms: C_19  and  C_25
REMARK                            x       y       z     vdW  Elec       q    Type
REMARK                         _______ _______ _______ _____ _____    ______ ____
ROOT
ATOM      1  C   UNL     1      -2.234   0.925  -0.129  0.00  0.00    +0.039 C 
ENDROOT
BRANCH   1   2
ATOM      2  C   UNL     1      -1.113   1.896  -0.395  0.00  0.00    +0.011 A 
ATOM      3  C   UNL     1       0.121   1.432  -0.712  0.00  0.00    +0.017 A 
ATOM      4  C   UNL     1       1.187   2.402  -0.970  0.00  0.00    -0.001 A 
ATOM      5  C   UNL     1       2.479   1.984  -1.306  0.00  0.00    +0.013 A 
ATOM      6  C   UNL     1       3.452   2.914  -1.542  0.00  0.00    -0.050 A 
ATOM      7  C   UNL     1       3.169   4.270  -1.451  0.00  0.00    +0.008 A 
ATOM      8  C   UNL     1       1.904   4.705  -1.121  0.00  0.00    -0.026 A 
ATOM      9  C   UNL     1       0.897   3.776  -0.877  0.00  0.00    +0.052 A 
ATOM     10  N   UNL     1      -0.378   4.182  -0.544  0.00  0.00    -0.322 N 
ATOM     11  H   UNL     1      -0.582   5.159  -0.478  0.00  0.00    +0.169 HD
ATOM     12  C   UNL     1      -1.350   3.284  -0.308  0.00  0.00    +0.251 A 
ATOM     13  O   UNL     1      -2.466   3.680  -0.017  0.00  0.00    -0.268 OA
ATOM     14  C   UNL     1       1.611   6.180  -1.026  0.00  0.00    +0.046 C 
ATOM     15  C   UNL     1       4.843   2.464  -1.905  0.00  0.00    +0.044 C 
ENDBRANCH   1   2
BRANCH   1  21
ATOM     16  C   UNL     1      -1.810   1.063   2.251  0.00  0.00    -0.077 C 
ATOM     17  C   UNL     1      -2.412   1.496   3.589  0.00  0.00    -0.019 C 
ATOM     18  C   UNL     1      -3.631   0.623   3.901  0.00  0.00    -0.004 C 
ATOM     19  C   UNL     1      -4.643   0.746   2.760  0.00  0.00    -0.019 C 
ATOM     20  C   UNL     1      -3.976   0.334   1.446  0.00  0.00    -0.077 C 
ATOM     21  N   UNL     1      -2.826   1.228   1.190  0.00  0.00    +0.389 N 
ATOM     22  H   UNL     1      -3.154   2.201   1.193  0.00  0.00    -0.080 HD
ENDBRANCH   1  21
BRANCH   1  24
ATOM     23  N   UNL     1      -3.602   0.192  -2.153  0.00  0.00    -0.225 N 
ATOM     24  C   UNL     1      -3.295   1.079  -1.188  0.00  0.00    +0.143 A 
ATOM     25  N   UNL     1      -4.094   2.105  -1.353  0.00  0.00    -0.115 NA
ATOM     26  N   UNL     1      -4.855   1.859  -2.362  0.00  0.00    -0.023 NA
ATOM     27  N   UNL     1      -4.562   0.703  -2.847  0.00  0.00    -0.043 NA
BRANCH  23  28
ATOM     28  C   UNL     1      -2.966  -1.110  -2.373  0.00  0.00    +0.061 C 
ATOM     29  C   UNL     1      -1.463  -0.915  -2.577  0.00  0.00    +0.036 C 
ATOM     30  C   UNL     1      -3.204  -2.005  -1.155  0.00  0.00    +0.036 C 
BRANCH  28  32
ATOM     31  C   UNL     1      -2.905  -3.127  -3.845  0.00  0.00    +0.006 C 
ATOM     32  C   UNL     1      -3.569  -1.768  -3.616  0.00  0.00    +0.026 C 
ENDBRANCH  28  32
ENDBRANCH  23  28
ENDBRANCH   1  24
TORSDOF 5
