REMARK  Name = ZINC03595929
REMARK  4 active torsions:
REMARK  status: ('A' for Active; 'I' for Inactive)
REMARK    1  A    between atoms: C_1  and  C_2
REMARK    2  A    between atoms: N_11  and  C_15
REMARK    3  A    between atoms: C_15  and  C_16
REMARK    4  A    between atoms: N_18  and  C_19
REMARK                            x       y       z     vdW  Elec       q    Type
REMARK                         _______ _______ _______ _____ _____    ______ ____
ROOT
ATOM      1  C   UNL     1      -1.510   3.550   2.576  0.00  0.00    +0.010 C 
ATOM      2  C   UNL     1      -0.766   3.095   1.319  0.00  0.00    +0.018 C 
ATOM      3  C   UNL     1      -1.503   3.606   0.078  0.00  0.00    +0.006 C 
ATOM      4  C   UNL     1      -0.770   3.132  -1.179  0.00  0.00    +0.000 C 
ATOM      5  C   UNL     1      -0.739   1.603  -1.209  0.00  0.00    +0.003 C 
ATOM      6  C   UNL     1       0.001   1.085   0.028  0.00  0.00    +0.035 C 
ATOM      7  C   UNL     1      -0.709   1.571   1.287  0.00  0.00    +0.115 C 
ATOM      8  C   UNL     1      -2.102   0.990   1.364  0.00  0.00    +0.247 C 
ATOM      9  O   UNL     1      -3.009   1.151   0.575  0.00  0.00    -0.273 OA
ATOM     10  N   UNL     1      -2.124   0.255   2.495  0.00  0.00    -0.215 N 
ATOM     11  C   UNL     1      -0.947   0.296   3.131  0.00  0.00    +0.310 C 
ATOM     12  O   UNL     1      -0.722  -0.288   4.173  0.00  0.00    -0.252 OA
ATOM     13  N   UNL     1      -0.040   1.055   2.487  0.00  0.00    -0.285 N 
ATOM     14  H   UNL     1       0.874   1.228   2.763  0.00  0.00    +0.151 HD
ENDROOT
BRANCH  10  15
ATOM     15  C   UNL     1      -3.291  -0.494   2.968  0.00  0.00    +0.214 C 
BRANCH  15  16
ATOM     16  C   UNL     1      -3.257  -1.889   2.399  0.00  0.00    +0.235 C 
ATOM     17  O   UNL     1      -2.348  -2.224   1.670  0.00  0.00    -0.274 OA
ATOM     18  N   UNL     1      -4.237  -2.763   2.700  0.00  0.00    -0.283 N 
ATOM     19  H   UNL     1      -4.929  -2.517   3.334  0.00  0.00    +0.155 HD
BRANCH  18  20
ATOM     20  C   UNL     1      -4.257  -4.027   2.099  0.00  0.00    +0.048 A 
ATOM     21  C   UNL     1      -3.065  -4.679   1.811  0.00  0.00    +0.025 A 
ATOM     22  C   UNL     1      -3.087  -5.928   1.221  0.00  0.00    +0.017 A 
ATOM     23  C   UNL     1      -4.295  -6.525   0.907  0.00  0.00    +0.019 A 
ATOM     24  C   UNL     1      -5.484  -5.876   1.188  0.00  0.00    +0.032 A 
ATOM     25  C   UNL     1      -5.468  -4.629   1.783  0.00  0.00    +0.040 A 
ATOM     26 BR   UNL     1      -7.094  -3.742   2.167  0.00  0.00    -0.048 Br
ATOM     27 BR   UNL     1      -4.321  -8.232   0.094  0.00  0.00    -0.050 Br
ENDBRANCH  18  20
ENDBRANCH  15  16
ENDBRANCH  10  15
TORSDOF 3
