REMARK  Name = ZINC36024930
REMARK  10 active torsions:
REMARK  status: ('A' for Active; 'I' for Inactive)
REMARK    1  A    between atoms: C_1  and  C_2
REMARK    2  A    between atoms: C_5  and  C_8
REMARK    3  A    between atoms: N_10  and  C_11
REMARK    4  A    between atoms: C_14  and  N_17
REMARK    5  A    between atoms: C_20  and  C_37
REMARK    6  A    between atoms: N_22  and  C_30
REMARK    7  A    between atoms: C_25  and  C_27
REMARK    8  A    between atoms: C_27  and  O_28
REMARK    9  A    between atoms: O_28  and  C_29
REMARK   10  A    between atoms: C_33  and  C_36
REMARK                            x       y       z     vdW  Elec       q    Type
REMARK                         _______ _______ _______ _____ _____    ______ ____
ROOT
ATOM      1  N   UNL     1      -2.831  -6.720   4.522  0.00  0.00    -0.326 N 
ATOM      2  C   UNL     1      -2.733  -7.379   5.732  0.00  0.00    +0.134 A 
ATOM      3  C   UNL     1      -3.178  -6.771   6.922  0.00  0.00    +0.082 A 
ATOM      4  C   UNL     1      -3.762  -5.527   7.243  0.00  0.00    +0.073 A 
ATOM      5  N   UNL     1      -3.975  -5.489   8.528  0.00  0.00    -0.169 NA
ATOM      6  N   UNL     1      -3.549  -6.689   9.113  0.00  0.00    -0.214 N 
ATOM      7  C   UNL     1      -3.052  -7.492   8.126  0.00  0.00    +0.169 A 
ATOM      8  N   UNL     1      -2.522  -8.713   8.091  0.00  0.00    -0.210 NA
ATOM      9  C   UNL     1      -2.120  -9.238   6.955  0.00  0.00    +0.159 A 
ATOM     10  N   UNL     1      -2.222  -8.603   5.801  0.00  0.00    -0.214 NA
ATOM     11  C   UNL     1      -4.085  -4.427   6.265  0.00  0.00    +0.068 C 
ATOM     12  H   UNL     1      -3.279  -5.861   4.472  0.00  0.00    +0.148 HD
ENDROOT
BRANCH   6  13
ATOM     13  C   UNL     1      -3.620  -7.009  10.474  0.00  0.00    +0.068 A 
ATOM     14  C   UNL     1      -3.871  -8.317  10.869  0.00  0.00    +0.028 A 
ATOM     15  C   UNL     1      -3.940  -8.630  12.213  0.00  0.00    +0.005 A 
ATOM     16  C   UNL     1      -3.761  -7.643  13.164  0.00  0.00    -0.050 A 
ATOM     17  C   UNL     1      -3.512  -6.339  12.774  0.00  0.00    +0.005 A 
ATOM     18  C   UNL     1      -3.435  -6.021  11.432  0.00  0.00    +0.028 A 
ATOM     19  C   UNL     1      -3.838  -7.987  14.629  0.00  0.00    +0.044 C 
ENDBRANCH   6  13
BRANCH   1  23
ATOM     20  C   UNL     1      -0.907  -7.048   0.728  0.00  0.00    +0.073 C 
ATOM     21  C   UNL     1      -2.392  -7.406   0.820  0.00  0.00    +0.024 C 
ATOM     22  C   UNL     1      -2.990  -6.781   2.082  0.00  0.00    +0.024 C 
ATOM     23  C   UNL     1      -2.258  -7.319   3.313  0.00  0.00    +0.072 C 
ATOM     24  C   UNL     1      -0.774  -6.960   3.221  0.00  0.00    +0.024 C 
ATOM     25  C   UNL     1      -0.175  -7.585   1.960  0.00  0.00    +0.024 C 
BRANCH  20  28
ATOM     26  C   UNL     1      -0.854  -4.952  -0.513  0.00  0.00    +0.244 C 
ATOM     27  O   UNL     1      -1.063  -5.583  -1.531  0.00  0.00    -0.270 OA
ATOM     28  N   UNL     1      -0.759  -5.591   0.669  0.00  0.00    -0.308 N 
ATOM     29  H   UNL     1      -0.593  -5.088   1.481  0.00  0.00    +0.149 HD
BRANCH  26  34
ATOM     30  C   UNL     1      -0.274   0.769  -0.745  0.00  0.00    +0.044 C 
ATOM     31  C   UNL     1      -0.426  -0.729  -0.684  0.00  0.00    -0.050 A 
ATOM     32  C   UNL     1      -0.663  -1.445  -1.844  0.00  0.00    +0.004 A 
ATOM     33  C   UNL     1      -0.802  -2.816  -1.796  0.00  0.00    +0.013 A 
ATOM     34  C   UNL     1      -0.705  -3.482  -0.573  0.00  0.00    +0.037 A 
ATOM     35  C   UNL     1      -0.466  -2.754   0.594  0.00  0.00    +0.013 A 
ATOM     36  C   UNL     1      -0.322  -1.383   0.531  0.00  0.00    +0.004 A 
ENDBRANCH  26  34
ENDBRANCH  20  28
ENDBRANCH   1  23
BRANCH   9  37
ATOM     37  C   UNL     1      -1.526 -10.623   6.969  0.00  0.00    +0.235 C 
BRANCH  37  38
ATOM     38  O   UNL     1      -2.563 -11.589   6.785  0.00  0.00    -0.375 OA
ATOM     39  C   UNL     1      -2.104 -12.942   6.782  0.00  0.00    +0.194 C 
ENDBRANCH  37  38
ENDBRANCH   9  37
TORSDOF 6
