REMARK  Name = ZINC15831599
REMARK  10 active torsions:
REMARK  status: ('A' for Active; 'I' for Inactive)
REMARK    1  A    between atoms: C_1  and  C_2
REMARK    2  A    between atoms: C_4  and  C_14
REMARK    3  A    between atoms: C_5  and  C_13
REMARK    4  A    between atoms: C_9  and  C_12
REMARK    5  A    between atoms: C_15  and  C_16
REMARK    6  A    between atoms: N_18  and  C_19
REMARK    7  A    between atoms: C_22  and  S_25
REMARK    8  A    between atoms: S_25  and  N_28
REMARK    9  A    between atoms: N_28  and  C_29
REMARK   10  A    between atoms: C_29  and  C_30
REMARK                            x       y       z     vdW  Elec       q    Type
REMARK                         _______ _______ _______ _____ _____    ______ ____
ROOT
ATOM      1  C   UNL     1       3.668   4.767  -0.018  0.00  0.00    +0.241 C 
ATOM      2  O   UNL     1       2.916   5.721  -0.105  0.00  0.00    -0.270 OA
ATOM      3  N   UNL     1       4.993   4.964   0.125  0.00  0.00    -0.282 N 
ATOM      4  H   UNL     1       5.600   4.207   0.119  0.00  0.00    +0.155 HD
ENDROOT
BRANCH   3   5
ATOM      5  C   UNL     1       5.494   6.260   0.282  0.00  0.00    +0.034 A 
ATOM      6  C   UNL     1       6.742   6.591  -0.230  0.00  0.00    +0.025 A 
ATOM      7  C   UNL     1       7.232   7.873  -0.077  0.00  0.00    +0.030 A 
ATOM      8  C   UNL     1       6.486   8.824   0.594  0.00  0.00    +0.105 A 
ATOM      9  C   UNL     1       5.245   8.497   1.110  0.00  0.00    +0.030 A 
ATOM     10  C   UNL     1       4.747   7.218   0.956  0.00  0.00    +0.025 A 
BRANCH   8  11
ATOM     11  S   UNL     1       7.117  10.457   0.793  0.00  0.00    +0.059 S 
ATOM     12  O   UNL     1       8.058  10.659  -0.253  0.00  0.00    -0.153 OA
ATOM     13  O   UNL     1       5.993  11.307   0.980  0.00  0.00    -0.153 OA
BRANCH  11  14
ATOM     14  N   UNL     1       7.972  10.483   2.211  0.00  0.00    -0.181 NA
ATOM     15  H   UNL     1       7.668  11.031   2.950  0.00  0.00    +0.148 HD
BRANCH  14  16
ATOM     16  C   UNL     1       9.188   9.678   2.347  0.00  0.00    +0.219 C 
BRANCH  16  17
ATOM     17  C   UNL     1       9.978  10.150   3.569  0.00  0.00    +0.404 C 
ATOM     18  F   UNL     1       9.191  10.006   4.717  0.00  0.00    -0.169 F 
ATOM     19  F   UNL     1      11.139   9.381   3.700  0.00  0.00    -0.169 F 
ATOM     20  F   UNL     1      10.325  11.496   3.408  0.00  0.00    -0.169 F 
ENDBRANCH  16  17
ENDBRANCH  14  16
ENDBRANCH  11  14
ENDBRANCH   8  11
ENDBRANCH   3   5
BRANCH   1  22
ATOM     21  C   UNL     1       1.820   3.251  -0.212  0.00  0.00    +0.015 C 
ATOM     22  C   UNL     1       3.149   3.449  -0.068  0.00  0.00    +0.068 C 
BRANCH  21  26
ATOM     23  C   UNL     1       1.476  -1.836  -0.227  0.00  0.00    +0.064 C 
ATOM     24  C   UNL     1       1.150  -0.365  -0.268  0.00  0.00    +0.023 A 
ATOM     25  C   UNL     1       2.043   0.634  -0.175  0.00  0.00    +0.031 A 
ATOM     26  C   UNL     1       1.282   1.886  -0.264  0.00  0.00    -0.004 A 
ATOM     27  C   UNL     1      -0.041   1.520  -0.406  0.00  0.00    +0.030 A 
ATOM     28  N   UNL     1      -0.103   0.164  -0.407  0.00  0.00    -0.299 N 
ATOM     29  C   UNL     1      -1.279  -0.583  -0.531  0.00  0.00    +0.181 A 
ATOM     30  C   UNL     1      -2.494  -0.383   0.177  0.00  0.00    +0.094 A 
ATOM     31  C   UNL     1      -3.310  -1.352  -0.297  0.00  0.00    +0.136 A 
ATOM     32  O   UNL     1      -2.601  -2.041  -1.202  0.00  0.00    -0.358 OA
ATOM     33  N   UNL     1      -1.482  -1.600  -1.325  0.00  0.00    -0.060 NA
ATOM     34  C   UNL     1      -4.737  -1.608   0.114  0.00  0.00    +0.089 C 
ATOM     35  C   UNL     1      -1.210   2.460  -0.543  0.00  0.00    +0.064 C 
ENDBRANCH  21  26
ENDBRANCH   1  22
TORSDOF 7
