REMARK  Name = ZINC36204919
REMARK  15 active torsions:
REMARK  status: ('A' for Active; 'I' for Inactive)
REMARK    1  A    between atoms: C_1  and  C_2
REMARK    2  A    between atoms: C_2  and  C_3
REMARK    3  A    between atoms: C_3  and  C_4
REMARK    4  A    between atoms: C_4  and  O_6
REMARK    5  A    between atoms: O_6  and  C_7
REMARK    6  A    between atoms: C_7  and  C_8
REMARK    7  A    between atoms: C_8  and  C_10
REMARK    8  A    between atoms: C_8  and  O_38
REMARK    9  A    between atoms: C_10  and  N_11
REMARK   10  A    between atoms: N_11  and  C_12
REMARK   11  A    between atoms: N_11  and  C_20
REMARK   12  A    between atoms: C_12  and  C_13
REMARK   13  A    between atoms: C_13  and  N_14
REMARK   14  A    between atoms: C_20  and  C_21
REMARK   15  A    between atoms: C_33  and  C_37
REMARK                            x       y       z     vdW  Elec       q    Type
REMARK                         _______ _______ _______ _____ _____    ______ ____
ROOT
ATOM      1  N   UNL     1       2.673  -6.827  -4.754  0.00  0.00    +0.387 N 
ATOM      2  H   UNL     1       2.184  -6.095  -5.246  0.00  0.00    -0.081 HD
ENDROOT
BRANCH   1   3
ATOM      3  C   UNL     1       2.512  -6.637  -3.306  0.00  0.00    -0.043 C 
BRANCH   3   4
ATOM      4  C   UNL     1       2.962  -5.225  -2.925  0.00  0.00    +0.136 C 
BRANCH   4   5
ATOM      5  O   UNL     1       4.373  -5.107  -3.112  0.00  0.00    -0.390 OA
ATOM      6  H   UNL     1       4.893  -5.726  -2.580  0.00  0.00    +0.210 HD
ENDBRANCH   4   5
BRANCH   4   7
ATOM      7  C   UNL     1       2.618  -4.959  -1.458  0.00  0.00    +0.261 C 
BRANCH   7   8
ATOM      8  O   UNL     1       2.930  -3.603  -1.133  0.00  0.00    -0.462 OA
BRANCH   8   9
ATOM      9  C   UNL     1       2.686  -3.206   0.126  0.00  0.00    +0.307 C 
ATOM     10  O   UNL     1       2.222  -3.984   0.925  0.00  0.00    -0.251 OA
BRANCH   9  11
ATOM     11  C   UNL     1       2.990  -1.790   0.541  0.00  0.00    +0.120 C 
BRANCH  11  13
ATOM     12  C   UNL     1       2.931  -0.163   2.436  0.00  0.00    +0.004 C 
ATOM     13  C   UNL     1       2.622  -1.600   2.014  0.00  0.00    +0.008 C 
ENDBRANCH  11  13
ENDBRANCH   9  11
ENDBRANCH   8   9
ENDBRANCH   7   8
ENDBRANCH   4   7
ENDBRANCH   3   4
ENDBRANCH   1   3
BRANCH   1  14
ATOM     14  C   UNL     1       4.100  -6.779  -5.099  0.00  0.00    -0.063 C 
BRANCH  14  15
ATOM     15  C   UNL     1       4.867  -7.785  -4.238  0.00  0.00    +0.066 C 
BRANCH  15  16
ATOM     16  N   UNL     1       6.306  -7.661  -4.504  0.00  0.00    -0.300 NA
ATOM     17  C   UNL     1       6.625  -8.073  -5.879  0.00  0.00    +0.112 C 
ATOM     18  C   UNL     1       8.122  -7.872  -6.132  0.00  0.00    +0.175 C 
ATOM     19  O   UNL     1       8.868  -8.609  -5.159  0.00  0.00    -0.377 OA
ATOM     20  C   UNL     1       8.582  -8.233  -3.809  0.00  0.00    +0.175 C 
ATOM     21  C   UNL     1       7.090  -8.437  -3.532  0.00  0.00    +0.112 C 
ENDBRANCH  15  16
ENDBRANCH  14  15
ENDBRANCH   1  14
BRANCH   1  22
ATOM     22  C   UNL     1       2.119  -8.132  -5.141  0.00  0.00    -0.003 C 
BRANCH  22  23
ATOM     23  C   UNL     1       2.135  -8.259  -6.642  0.00  0.00    +0.094 A 
ATOM     24  N   UNL     1       1.714  -9.414  -7.218  0.00  0.00    -0.312 N 
ATOM     25  H   UNL     1       1.409 -10.142  -6.655  0.00  0.00    +0.170 HD
ATOM     26  C   UNL     1       1.712  -9.570  -8.555  0.00  0.00    +0.260 A 
ATOM     27  O   UNL     1       1.330 -10.613  -9.057  0.00  0.00    -0.267 OA
ATOM     28  C   UNL     1       2.165  -8.488  -9.380  0.00  0.00    +0.075 A 
ATOM     29  C   UNL     1       2.251  -8.432 -10.838  0.00  0.00    -0.023 A 
ATOM     30  C   UNL     1       2.716  -7.287 -11.380  0.00  0.00    -0.004 A 
ATOM     31  S   UNL     1       3.062  -6.231  -9.998  0.00  0.00    -0.073 S 
ATOM     32  C   UNL     1       2.580  -7.335  -8.694  0.00  0.00    +0.116 A 
ATOM     33  N   UNL     1       2.549  -7.254  -7.367  0.00  0.00    -0.229 NA
ATOM     34  C   UNL     1       2.900  -6.980 -12.835  0.00  0.00    +0.046 C 
ATOM     35  C   UNL     1       2.831  -8.297 -13.620  0.00  0.00    -0.009 C 
ATOM     36  C   UNL     1       1.607  -9.087 -13.147  0.00  0.00    +0.008 C 
ATOM     37  C   UNL     1       1.839  -9.603 -11.726  0.00  0.00    +0.037 C 
ATOM     38  C   UNL     1       2.706  -7.998 -15.115  0.00  0.00    +0.008 C 
ENDBRANCH  22  23
ENDBRANCH   1  22
TORSDOF 13
