REMARK  Name = ZINC38654180
REMARK  8 active torsions:
REMARK  status: ('A' for Active; 'I' for Inactive)
REMARK    1  A    between atoms: C_1  and  O_2
REMARK    2  A    between atoms: O_2  and  C_3
REMARK    3  A    between atoms: C_3  and  C_5
REMARK    4  A    between atoms: C_8  and  C_11
REMARK    5  A    between atoms: N_12  and  N_13
REMARK    6  A    between atoms: C_14  and  N_20
REMARK    7  A    between atoms: C_21  and  C_29
REMARK    8  A    between atoms: C_23  and  C_25
REMARK                            x       y       z     vdW  Elec       q    Type
REMARK                         _______ _______ _______ _____ _____    ______ ____
ROOT
ATOM      1  N   UNL     1       1.331  -8.104  -2.694  0.00  0.00    -0.157 N 
ATOM      2  C   UNL     1       1.964  -9.066  -3.615  0.00  0.00    +0.354 C 
ATOM      3  N   UNL     1       1.567 -10.378  -3.082  0.00  0.00    -0.170 NA
ATOM      4  N   UNL     1       0.867 -10.191  -2.083  0.00  0.00    -0.218 N 
ATOM      5  C   UNL     1       0.688  -8.875  -1.789  0.00  0.00    +0.176 C 
ATOM      6  S   UNL     1      -0.222  -8.281  -0.465  0.00  0.00    -0.015 S 
ATOM      7  H   UNL     1       0.485 -10.911  -1.558  0.00  0.00    +0.176 HD
ENDROOT
BRANCH   2   8
ATOM      8  N   UNL     1       3.421  -8.918  -3.592  0.00  0.00    -0.219 N 
ATOM      9  C   UNL     1       4.329  -9.834  -4.032  0.00  0.00    +0.074 A 
ATOM     10  C   UNL     1       5.572  -9.303  -3.830  0.00  0.00    +0.062 A 
ATOM     11  C   UNL     1       5.411  -8.042  -3.257  0.00  0.00    +0.166 A 
ATOM     12  N   UNL     1       4.131  -7.806  -3.120  0.00  0.00    -0.163 NA
BRANCH   9  13
ATOM     13  C   UNL     1       4.026 -11.158  -4.618  0.00  0.00    +0.000 A 
ATOM     14  C   UNL     1       2.783 -11.394  -5.207  0.00  0.00    +0.011 A 
ATOM     15  C   UNL     1       2.505 -12.631  -5.753  0.00  0.00    +0.020 A 
ATOM     16  C   UNL     1       3.457 -13.636  -5.715  0.00  0.00    +0.041 A 
ATOM     17  C   UNL     1       4.691 -13.407  -5.132  0.00  0.00    +0.020 A 
ATOM     18  C   UNL     1       4.982 -12.173  -4.589  0.00  0.00    +0.011 A 
ATOM     19 CL   UNL     1       3.100 -15.190  -6.402  0.00  0.00    -0.084 Cl
ENDBRANCH   9  13
BRANCH  11  20
ATOM     20  C   UNL     1       6.525  -7.104  -2.869  0.00  0.00    +0.436 C 
ATOM     21  F   UNL     1       6.833  -6.272  -3.950  0.00  0.00    -0.164 F 
ATOM     22  F   UNL     1       6.118  -6.323  -1.781  0.00  0.00    -0.164 F 
ATOM     23  F   UNL     1       7.656  -7.845  -2.513  0.00  0.00    -0.164 F 
ENDBRANCH  11  20
ENDBRANCH   2   8
BRANCH   1  25
ATOM     24  C   UNL     1       1.968  -6.113  -3.743  0.00  0.00    +0.138 C 
ATOM     25  N   UNL     1       1.388  -6.705  -2.742  0.00  0.00    -0.182 NA
BRANCH  24  29
ATOM     26  C   UNL     1       2.439  -1.902  -3.728  0.00  0.00    +0.059 A 
ATOM     27  C   UNL     1       2.908  -2.654  -4.810  0.00  0.00    +0.015 A 
ATOM     28  C   UNL     1       2.757  -4.011  -4.815  0.00  0.00    +0.010 A 
ATOM     29  C   UNL     1       2.132  -4.649  -3.737  0.00  0.00    -0.005 A 
ATOM     30  C   UNL     1       1.663  -3.897  -2.655  0.00  0.00    +0.010 A 
ATOM     31  C   UNL     1       1.820  -2.540  -2.649  0.00  0.00    +0.015 A 
BRANCH  26  32
ATOM     32  C   UNL     1       2.603  -0.436  -3.723  0.00  0.00    +0.339 C 
ATOM     33  O   UNL     1       2.200   0.217  -2.781  0.00  0.00    -0.245 OA
BRANCH  32  35
ATOM     34  C   UNL     1       3.326   1.600  -4.691  0.00  0.00    +0.280 C 
ATOM     35  O   UNL     1       3.200   0.179  -4.763  0.00  0.00    -0.464 OA
ENDBRANCH  32  35
ENDBRANCH  26  32
ENDBRANCH  24  29
ENDBRANCH   1  25
TORSDOF 7
