REMARK  Name = ZINC08712818
REMARK  8 active torsions:
REMARK  status: ('A' for Active; 'I' for Inactive)
REMARK    1  A    between atoms: C_4  and  C_7
REMARK    2  A    between atoms: C_7  and  N_8
REMARK    3  A    between atoms: N_8  and  C_9
REMARK    4  A    between atoms: C_9  and  C_11
REMARK    5  A    between atoms: C_9  and  C_18
REMARK    6  A    between atoms: N_20  and  C_21
REMARK    7  A    between atoms: C_30  and  C_32
REMARK    8  A    between atoms: C_32  and  N_33
REMARK                            x       y       z     vdW  Elec       q    Type
REMARK                         _______ _______ _______ _____ _____    ______ ____
ROOT
ATOM      1  N   UNL     1      -0.629   2.238   2.995  0.00  0.00    -0.284 N 
ATOM      2  C   UNL     1      -1.115   1.987   4.226  0.00  0.00    +0.234 C 
ATOM      3  O   UNL     1      -1.536   2.896   4.909  0.00  0.00    -0.274 OA
ENDROOT
BRANCH   1   4
ATOM      4  C   UNL     1      -0.036   1.155   2.206  0.00  0.00    +0.143 C 
BRANCH   4   8
ATOM      5  C   UNL     1      -2.974  -0.472  -0.434  0.00  0.00    +0.000 A 
ATOM      6  C   UNL     1      -2.076   0.473  -0.896  0.00  0.00    +0.000 A 
ATOM      7  C   UNL     1      -1.127   1.001  -0.042  0.00  0.00    +0.005 A 
ATOM      8  C   UNL     1      -1.075   0.584   1.276  0.00  0.00    -0.030 A 
ATOM      9  C   UNL     1      -1.973  -0.360   1.738  0.00  0.00    +0.005 A 
ATOM     10  C   UNL     1      -2.921  -0.888   0.883  0.00  0.00    +0.000 A 
ENDBRANCH   4   8
ENDBRANCH   1   4
BRANCH   1  11
ATOM     11  C   UNL     1      -0.694   3.594   2.444  0.00  0.00    +0.166 C 
BRANCH  11  12
ATOM     12  C   UNL     1      -1.563   3.593   1.185  0.00  0.00    +0.023 C 
ATOM     13  C   UNL     1      -2.955   3.045   1.520  0.00  0.00    +0.010 C 
ATOM     14  C   UNL     1      -3.743   2.892   0.218  0.00  0.00    +0.027 C 
ATOM     15  C   UNL     1      -3.653   4.150  -0.595  0.00  0.00    -0.031 C 
ATOM     16  C   UNL     1      -2.768   5.075  -0.404  0.00  0.00    -0.031 C 
ATOM     17  C   UNL     1      -1.714   5.023   0.663  0.00  0.00    +0.032 C 
ENDBRANCH  11  12
BRANCH  11  18
ATOM     18  C   UNL     1       0.696   4.062   2.095  0.00  0.00    +0.238 C 
ATOM     19  O   UNL     1       1.613   3.269   2.067  0.00  0.00    -0.273 OA
ATOM     20  N   UNL     1       0.919   5.361   1.813  0.00  0.00    -0.284 N 
ATOM     21  H   UNL     1       0.202   6.007   1.907  0.00  0.00    +0.155 HD
BRANCH  20  22
ATOM     22  C   UNL     1       2.187   5.777   1.386  0.00  0.00    +0.037 A 
ATOM     23  C   UNL     1       2.954   4.948   0.578  0.00  0.00    +0.027 A 
ATOM     24  C   UNL     1       4.204   5.357   0.156  0.00  0.00    +0.051 A 
ATOM     25  C   UNL     1       4.696   6.596   0.537  0.00  0.00    +0.166 A 
ATOM     26  C   UNL     1       3.929   7.429   1.347  0.00  0.00    +0.168 A 
ATOM     27  C   UNL     1       2.673   7.020   1.765  0.00  0.00    +0.072 A 
ATOM     28  O   UNL     1       4.629   8.578   1.578  0.00  0.00    -0.453 OA
ATOM     29  C   UNL     1       5.994   8.271   1.242  0.00  0.00    +0.466 C 
ATOM     30  O   UNL     1       5.877   7.223   0.261  0.00  0.00    -0.453 OA
ENDBRANCH  20  22
ENDBRANCH  11  18
ENDBRANCH   1  11
BRANCH   2  31
ATOM     31  C   UNL     1      -1.135   0.576   4.755  0.00  0.00    +0.210 C 
BRANCH  31  32
ATOM     32  N   UNL     1      -1.599   0.581   6.144  0.00  0.00    -0.255 N 
ATOM     33  C   UNL     1      -0.762   0.699   7.251  0.00  0.00    +0.048 A 
ATOM     34  C   UNL     1       0.616   0.845   7.349  0.00  0.00    +0.024 A 
ATOM     35  C   UNL     1       1.217   0.951   8.589  0.00  0.00    +0.002 A 
ATOM     36  C   UNL     1       0.459   0.918   9.748  0.00  0.00    +0.001 A 
ATOM     37  C   UNL     1      -0.912   0.779   9.674  0.00  0.00    +0.014 A 
ATOM     38  C   UNL     1      -1.529   0.672   8.428  0.00  0.00    +0.048 A 
ATOM     39  C   UNL     1      -2.935   0.518   8.011  0.00  0.00    +0.250 C 
ATOM     40  O   UNL     1      -3.915   0.447   8.723  0.00  0.00    -0.282 OA
ATOM     41  C   UNL     1      -2.887   0.467   6.512  0.00  0.00    +0.292 C 
ATOM     42  O   UNL     1      -3.838   0.346   5.768  0.00  0.00    -0.266 OA
ENDBRANCH  31  32
ENDBRANCH   2  31
TORSDOF 8
