REMARK  Name = ZINC00931100
REMARK  9 active torsions:
REMARK  status: ('A' for Active; 'I' for Inactive)
REMARK    1  A    between atoms: C_1  and  C_2
REMARK    2  A    between atoms: C_5  and  C_7
REMARK    3  A    between atoms: C_7  and  C_9
REMARK    4  A    between atoms: C_7  and  N_18
REMARK    5  A    between atoms: N_11  and  C_12
REMARK    6  A    between atoms: N_18  and  C_19
REMARK    7  A    between atoms: C_22  and  C_25
REMARK    8  A    between atoms: C_25  and  C_27
REMARK    9  A    between atoms: C_28  and  C_30
REMARK                            x       y       z     vdW  Elec       q    Type
REMARK                         _______ _______ _______ _____ _____    ______ ____
ROOT
ATOM      1  N   UNL     1      -0.629   4.403   5.850  0.00  0.00    -0.249 N 
ATOM      2  C   UNL     1      -0.850   3.709   6.984  0.00  0.00    +0.265 C 
ATOM      3  O   UNL     1      -0.060   3.779   7.902  0.00  0.00    -0.271 OA
ENDROOT
BRANCH   2   4
ATOM      4  C   UNL     1      -2.080   2.847   7.112  0.00  0.00    +0.296 C 
ATOM      5  C   UNL     1      -1.982   1.660   6.144  0.00  0.00    +0.283 C 
ATOM      6  O   UNL     1      -3.157   0.857   6.301  0.00  0.00    -0.484 OA
ATOM      7  C   UNL     1      -3.537   0.571   7.576  0.00  0.00    +0.162 A 
ATOM      8  C   UNL     1      -4.424  -0.471   7.805  0.00  0.00    +0.049 A 
ATOM      9  C   UNL     1      -4.821  -0.771   9.094  0.00  0.00    +0.004 A 
ATOM     10  C   UNL     1      -4.335  -0.035  10.159  0.00  0.00    +0.004 A 
ATOM     11  C   UNL     1      -3.451   1.003   9.938  0.00  0.00    +0.049 A 
ATOM     12  C   UNL     1      -3.047   1.309   8.646  0.00  0.00    +0.163 A 
ATOM     13  O   UNL     1      -2.172   2.332   8.445  0.00  0.00    -0.472 OA
ENDBRANCH   2   4
BRANCH   1  14
ATOM     14  C   UNL     1       0.568   5.095   5.680  0.00  0.00    +0.038 A 
ATOM     15  C   UNL     1       0.735   5.934   4.581  0.00  0.00    +0.024 A 
ATOM     16  C   UNL     1       1.909   6.622   4.413  0.00  0.00    +0.013 A 
ATOM     17  C   UNL     1       2.946   6.471   5.342  0.00  0.00    +0.017 A 
ATOM     18  C   UNL     1       2.776   5.622   6.443  0.00  0.00    +0.013 A 
ATOM     19  C   UNL     1       1.596   4.942   6.606  0.00  0.00    +0.024 A 
BRANCH  17  20
ATOM     20  C   UNL     1       4.207   7.200   5.162  0.00  0.00    +0.160 C 
ATOM     21  O   UNL     1       5.104   7.068   5.968  0.00  0.00    -0.292 OA
ATOM     22  C   UNL     1       4.388   8.113   3.977  0.00  0.00    +0.091 C 
ENDBRANCH  17  20
ENDBRANCH   1  14
BRANCH   1  23
ATOM     23  C   UNL     1      -1.646   4.429   4.797  0.00  0.00    +0.233 C 
BRANCH  23  28
ATOM     24  C   UNL     1      -1.904   9.463   4.605  0.00  0.00    +0.086 C 
ATOM     25  C   UNL     1      -2.314   8.013   4.586  0.00  0.00    +0.102 A 
ATOM     26  C   UNL     1      -3.566   7.551   4.410  0.00  0.00    +0.045 A 
ATOM     27  C   UNL     1      -3.493   6.140   4.464  0.00  0.00    +0.047 A 
ATOM     28  C   UNL     1      -2.202   5.824   4.670  0.00  0.00    +0.135 A 
ATOM     29  O   UNL     1      -1.494   6.962   4.748  0.00  0.00    -0.462 OA
ENDBRANCH  23  28
BRANCH  23  30
ATOM     30  C   UNL     1      -1.025   4.015   3.488  0.00  0.00    +0.242 C 
ATOM     31  O   UNL     1       0.152   3.727   3.440  0.00  0.00    -0.273 OA
ATOM     32  N   UNL     1      -1.777   3.965   2.371  0.00  0.00    -0.311 N 
ATOM     33  H   UNL     1      -2.718   4.196   2.409  0.00  0.00    +0.149 HD
BRANCH  32  34
ATOM     34  C   UNL     1      -1.173   3.563   1.098  0.00  0.00    +0.073 C 
ATOM     35  C   UNL     1      -1.176   2.036   0.992  0.00  0.00    +0.022 C 
ATOM     36  C   UNL     1      -0.545   1.616  -0.337  0.00  0.00    +0.002 C 
ATOM     37  C   UNL     1      -1.351   2.209  -1.494  0.00  0.00    +0.000 C 
ATOM     38  C   UNL     1      -1.347   3.736  -1.388  0.00  0.00    +0.002 C 
ATOM     39  C   UNL     1      -1.978   4.156  -0.059  0.00  0.00    +0.022 C 
ENDBRANCH  32  34
ENDBRANCH  23  30
ENDBRANCH   1  23
TORSDOF 7
