REMARK  Name = ZINC38740790
REMARK  7 active torsions:
REMARK  status: ('A' for Active; 'I' for Inactive)
REMARK    1  A    between atoms: C_4  and  C_7
REMARK    2  A    between atoms: C_7  and  C_8
REMARK    3  A    between atoms: C_7  and  C_35
REMARK    4  A    between atoms: C_8  and  C_9
REMARK    5  A    between atoms: C_9  and  N_10
REMARK    6  A    between atoms: C_11  and  C_13
REMARK    7  A    between atoms: C_19  and  C_21
REMARK                            x       y       z     vdW  Elec       q    Type
REMARK                         _______ _______ _______ _____ _____    ______ ____
ROOT
ATOM      1  C   UNL     1       3.237  -1.524   6.446  0.00  0.00    +0.091 C 
ATOM      2  C   UNL     1       4.347  -2.567   6.600  0.00  0.00    +0.040 C 
ATOM      3  C   UNL     1       4.461  -2.993   8.034  0.00  0.00    -0.030 C 
ATOM      4  C   UNL     1       3.962  -2.332   9.029  0.00  0.00    -0.030 C 
ATOM      5  C   UNL     1       3.192  -1.051   8.886  0.00  0.00    +0.040 C 
ATOM      6  C   UNL     1       3.437  -0.436   7.508  0.00  0.00    +0.091 C 
ENDROOT
BRANCH   6   7
ATOM      7  C   UNL     1       2.463   0.689   7.270  0.00  0.00    +0.220 C 
ATOM      8  O   UNL     1       1.409   0.470   6.711  0.00  0.00    -0.275 OA
ATOM      9  N   UNL     1       2.762   1.938   7.679  0.00  0.00    -0.298 N 
ATOM     10  C   UNL     1       3.983   2.199   8.453  0.00  0.00    +0.126 C 
ATOM     11  C   UNL     1       4.800   3.278   7.731  0.00  0.00    +0.125 C 
ATOM     12  N   UNL     1       3.911   4.403   7.410  0.00  0.00    -0.314 N 
ATOM     13  C   UNL     1       2.690   4.142   6.636  0.00  0.00    +0.125 C 
ATOM     14  C   UNL     1       1.876   3.064   7.353  0.00  0.00    +0.126 C 
ATOM     15  C   UNL     1       4.220   5.691   7.831  0.00  0.00    +0.099 A 
ATOM     16  C   UNL     1       5.444   5.942   8.443  0.00  0.00    +0.042 A 
ATOM     17  C   UNL     1       5.739   7.228   8.857  0.00  0.00    +0.005 A 
ATOM     18  C   UNL     1       4.795   8.225   8.645  0.00  0.00    +0.018 A 
ATOM     19  C   UNL     1       3.600   7.905   8.031  0.00  0.00    +0.084 A 
ATOM     20  N   UNL     1       3.349   6.670   7.642  0.00  0.00    -0.350 N 
ATOM     21  H   UNL     1       2.503   6.473   7.209  0.00  0.00    +0.166 HD
ENDBRANCH   6   7
BRANCH   1  23
ATOM     22  N   UNL     1       3.165  -1.687   3.979  0.00  0.00    -0.315 N 
ATOM     23  C   UNL     1       3.306  -0.910   5.072  0.00  0.00    +0.217 C 
ATOM     24  O   UNL     1       3.489   0.282   4.949  0.00  0.00    -0.275 OA
ATOM     25  H   UNL     1       3.019  -2.641   4.077  0.00  0.00    +0.149 HD
BRANCH  22  26
ATOM     26  C   UNL     1       3.231  -1.090   2.643  0.00  0.00    +0.105 C 
BRANCH  26  27
ATOM     27  C   UNL     1       3.042  -2.180   1.587  0.00  0.00    +0.031 C 
BRANCH  27  28
ATOM     28  C   UNL     1       3.111  -1.557   0.191  0.00  0.00    +0.050 C 
BRANCH  28  32
ATOM     29  C   UNL     1      -0.179   1.114  -0.343  0.00  0.00    +0.000 A 
ATOM     30  C   UNL     1       1.111   1.552  -0.575  0.00  0.00    +0.000 A 
ATOM     31  C   UNL     1       2.176   0.688  -0.402  0.00  0.00    +0.004 A 
ATOM     32  C   UNL     1       1.951  -0.615   0.004  0.00  0.00    -0.040 A 
ATOM     33  C   UNL     1       0.660  -1.052   0.237  0.00  0.00    +0.004 A 
ATOM     34  C   UNL     1      -0.405  -0.188   0.062  0.00  0.00    +0.000 A 
ENDBRANCH  28  32
BRANCH  28  35
ATOM     35  C   UNL     1       3.048  -2.646  -0.849  0.00  0.00    -0.040 A 
ATOM     36  C   UNL     1       2.033  -3.583  -0.807  0.00  0.00    +0.004 A 
ATOM     37  C   UNL     1       1.975  -4.582  -1.761  0.00  0.00    +0.000 A 
ATOM     38  C   UNL     1       2.931  -4.642  -2.758  0.00  0.00    +0.000 A 
ATOM     39  C   UNL     1       3.946  -3.704  -2.800  0.00  0.00    +0.000 A 
ATOM     40  C   UNL     1       4.002  -2.703  -1.848  0.00  0.00    +0.004 A 
ENDBRANCH  28  35
ENDBRANCH  27  28
ENDBRANCH  26  27
ENDBRANCH  22  26
ENDBRANCH   1  23
TORSDOF 7
