REMARK  Name = ZINC12412790
REMARK  6 active torsions:
REMARK  status: ('A' for Active; 'I' for Inactive)
REMARK    1  A    between atoms: C_1  and  C_2
REMARK    2  A    between atoms: C_2  and  O_3
REMARK    3  A    between atoms: O_3  and  C_4
REMARK    4  A    between atoms: C_4  and  C_6
REMARK    5  A    between atoms: C_7  and  N_29
REMARK    6  A    between atoms: C_20  and  C_22
REMARK                            x       y       z     vdW  Elec       q    Type
REMARK                         _______ _______ _______ _____ _____    ______ ____
ROOT
ATOM      1  C   UNL     1      -1.325   3.091  -1.267  0.00  0.00    +0.105 C 
ATOM      2  C   UNL     1      -1.478   4.416  -1.010  0.00  0.00    +0.195 C 
ATOM      3  O   UNL     1      -1.309   4.916   0.225  0.00  0.00    -0.441 OA
ATOM      4  C   UNL     1      -1.364   4.100   1.295  0.00  0.00    +0.152 A 
ATOM      5  C   UNL     1      -1.602   4.654   2.637  0.00  0.00    +0.060 A 
ATOM      6  C   UNL     1      -1.777   6.026   2.829  0.00  0.00    +0.015 A 
ATOM      7  C   UNL     1      -1.998   6.512   4.099  0.00  0.00    +0.001 A 
ATOM      8  C   UNL     1      -2.046   5.646   5.182  0.00  0.00    +0.004 A 
ATOM      9  C   UNL     1      -1.879   4.289   5.005  0.00  0.00    +0.047 A 
ATOM     10  C   UNL     1      -1.653   3.778   3.733  0.00  0.00    +0.143 A 
ATOM     11  O   UNL     1      -1.483   2.452   3.541  0.00  0.00    -0.422 OA
ATOM     12  C   UNL     1      -1.266   1.939   2.320  0.00  0.00    +0.345 A 
ATOM     13  O   UNL     1      -1.121   0.735   2.200  0.00  0.00    -0.245 OA
ATOM     14  C   UNL     1      -1.203   2.752   1.174  0.00  0.00    +0.092 A 
ATOM     15  C   UNL     1      -0.958   2.127  -0.173  0.00  0.00    +0.103 C 
ENDROOT
BRANCH  15  16
ATOM     16  C   UNL     1       0.499   1.762  -0.297  0.00  0.00    -0.021 A 
ATOM     17  C   UNL     1       1.466   2.747  -0.222  0.00  0.00    +0.005 A 
ATOM     18  C   UNL     1       2.803   2.413  -0.341  0.00  0.00    +0.000 A 
ATOM     19  C   UNL     1       3.171   1.095  -0.536  0.00  0.00    +0.001 A 
ATOM     20  C   UNL     1       2.205   0.110  -0.611  0.00  0.00    +0.015 A 
ATOM     21  C   UNL     1       0.867   0.444  -0.492  0.00  0.00    +0.022 A 
ATOM     22 BR   UNL     1      -0.456  -0.903  -0.595  0.00  0.00    -0.050 Br
ENDBRANCH  15  16
BRANCH   2  23
ATOM     23  N   UNL     1      -1.812   5.261  -2.034  0.00  0.00    -0.329 N 
ATOM     24  H   UNL     1      -2.471   4.990  -2.692  0.00  0.00    +0.145 HD
ATOM     25  H   UNL     1      -1.389   6.131  -2.102  0.00  0.00    +0.145 HD
ENDBRANCH   2  23
BRANCH   1  26
ATOM     26  C   UNL     1      -1.512   2.615  -2.574  0.00  0.00    +0.341 C 
ATOM     27  O   UNL     1      -1.693   3.399  -3.488  0.00  0.00    -0.245 OA
BRANCH  26  28
ATOM     28  O   UNL     1      -1.492   1.286  -2.817  0.00  0.00    -0.462 OA
BRANCH  28  30
ATOM     29  C   UNL     1      -1.634  -0.655  -4.250  0.00  0.00    +0.048 C 
ATOM     30  C   UNL     1      -1.689   0.872  -4.171  0.00  0.00    +0.229 C 
ENDBRANCH  28  30
ENDBRANCH  26  28
ENDBRANCH   1  26
TORSDOF 5
