REMARK  Name = ZINC34785006
REMARK  10 active torsions:
REMARK  status: ('A' for Active; 'I' for Inactive)
REMARK    1  A    between atoms: C_1  and  C_2
REMARK    2  A    between atoms: C_2  and  O_3
REMARK    3  A    between atoms: O_3  and  C_4
REMARK    4  A    between atoms: C_4  and  C_6
REMARK    5  A    between atoms: C_10  and  N_11
REMARK    6  A    between atoms: N_17  and  C_20
REMARK    7  A    between atoms: C_20  and  C_21
REMARK    8  A    between atoms: C_21  and  C_23
REMARK    9  A    between atoms: C_26  and  C_28
REMARK   10  A    between atoms: C_26  and  C_29
REMARK                            x       y       z     vdW  Elec       q    Type
REMARK                         _______ _______ _______ _____ _____    ______ ____
ROOT
ATOM      1  C   UNL     1      -2.839  -2.425   0.016  0.00  0.00    +0.091 A 
ATOM      2  C   UNL     1      -3.545  -2.723  -1.216  0.00  0.00    -0.016 A 
ATOM      3  C   UNL     1      -4.778  -3.248  -1.036  0.00  0.00    +0.021 A 
ATOM      4  S   UNL     1      -4.976  -3.338   0.716  0.00  0.00    -0.075 S 
ATOM      5  C   UNL     1      -3.495  -2.714   1.205  0.00  0.00    +0.088 A 
ATOM      6  C   UNL     1      -5.728  -3.648  -2.121  0.00  0.00    +0.203 C 
ATOM      7  O   UNL     1      -5.250  -3.086  -3.354  0.00  0.00    -0.368 OA
ATOM      8  C   UNL     1      -3.859  -3.322  -3.592  0.00  0.00    +0.068 C 
ATOM      9  C   UNL     1      -3.010  -2.493  -2.622  0.00  0.00    +0.071 C 
ATOM     10  C   UNL     1      -3.517  -2.928  -5.030  0.00  0.00    +0.041 C 
ATOM     11  C   UNL     1      -3.555  -4.808  -3.389  0.00  0.00    +0.041 C 
ENDROOT
BRANCH   5  12
ATOM     12  N   UNL     1      -3.034  -2.528   2.499  0.00  0.00    -0.263 N 
ATOM     13  C   UNL     1      -3.812  -2.867   3.546  0.00  0.00    +0.307 C 
ATOM     14  O   UNL     1      -4.950  -3.251   3.360  0.00  0.00    -0.252 OA
ATOM     15  N   UNL     1      -3.327  -2.782   4.801  0.00  0.00    -0.289 N 
ATOM     16  C   UNL     1      -1.997  -2.208   5.061  0.00  0.00    +0.091 C 
ATOM     17  C   UNL     1      -2.131  -1.150   6.161  0.00  0.00    -0.059 C 
ATOM     18  N   UNL     1      -2.773  -1.749   7.338  0.00  0.00    +0.384 N 
ATOM     19  C   UNL     1      -4.146  -2.151   7.008  0.00  0.00    -0.059 C 
ATOM     20  C   UNL     1      -4.114  -3.253   5.950  0.00  0.00    +0.091 C 
ATOM     21  H   UNL     1      -2.153  -2.153   2.651  0.00  0.00    +0.157 HD
ATOM     22  H   UNL     1      -2.247  -2.559   7.631  0.00  0.00    -0.081 HD
BRANCH  18  23
ATOM     23  C   UNL     1      -2.801  -0.767   8.430  0.00  0.00    -0.048 C 
BRANCH  23  24
ATOM     24  C   UNL     1      -3.348  -1.416   9.676  0.00  0.00    -0.096 C 
ATOM     25  C   UNL     1      -2.528  -1.917  10.567  0.00  0.00    +0.005 C 
ATOM     26  C   UNL     1      -4.837  -1.489   9.896  0.00  0.00    +0.036 C 
ENDBRANCH  23  24
ENDBRANCH  18  23
ENDBRANCH   5  12
BRANCH   1  27
ATOM     27  C   UNL     1      -1.492  -1.852   0.006  0.00  0.00    +0.342 C 
ATOM     28  O   UNL     1      -0.520  -2.583  -0.006  0.00  0.00    -0.245 OA
BRANCH  27  29
ATOM     29  O   UNL     1      -1.330  -0.513   0.009  0.00  0.00    -0.461 OA
BRANCH  29  31
ATOM     30  C   UNL     1      -0.003   1.508   0.004  0.00  0.00    +0.048 C 
ATOM     31  C   UNL     1       0.013  -0.022  -0.002  0.00  0.00    +0.229 C 
ENDBRANCH  29  31
ENDBRANCH  27  29
ENDBRANCH   1  27
TORSDOF 6
