REMARK  Name = ZINC36502208
REMARK  15 active torsions:
REMARK  status: ('A' for Active; 'I' for Inactive)
REMARK    1  A    between atoms: C_1  and  C_2
REMARK    2  A    between atoms: C_5  and  C_9
REMARK    3  A    between atoms: C_6  and  C_8
REMARK    4  A    between atoms: C_9  and  C_11
REMARK    5  A    between atoms: C_9  and  N_18
REMARK    6  A    between atoms: N_13  and  C_14
REMARK    7  A    between atoms: C_14  and  C_15
REMARK    8  A    between atoms: C_14  and  C_16
REMARK    9  A    between atoms: C_14  and  C_17
REMARK   10  A    between atoms: N_18  and  C_19
REMARK   11  A    between atoms: C_19  and  C_20
REMARK   12  A    between atoms: C_25  and  C_27
REMARK   13  A    between atoms: C_27  and  C_28
REMARK   14  A    between atoms: C_27  and  C_34
REMARK   15  A    between atoms: C_27  and  O_40
REMARK                            x       y       z     vdW  Elec       q    Type
REMARK                         _______ _______ _______ _____ _____    ______ ____
ROOT
ATOM      1  N   UNL     1      -0.172  -3.520  -0.994  0.00  0.00    -0.276 N 
ATOM      2  C   UNL     1       0.945  -4.210  -0.689  0.00  0.00    +0.258 C 
ATOM      3  O   UNL     1       1.181  -4.504   0.464  0.00  0.00    -0.272 OA
ENDROOT
BRANCH   1   4
ATOM      4  C   UNL     1      -1.069  -3.071   0.074  0.00  0.00    +0.193 C 
BRANCH   4   9
ATOM      5  C   UNL     1      -3.763  -7.634   2.379  0.00  0.00    +0.044 C 
ATOM      6  C   UNL     1      -3.060  -6.444   1.778  0.00  0.00    -0.050 A 
ATOM      7  C   UNL     1      -1.810  -6.595   1.207  0.00  0.00    +0.004 A 
ATOM      8  C   UNL     1      -1.166  -5.503   0.655  0.00  0.00    +0.006 A 
ATOM      9  C   UNL     1      -1.772  -4.261   0.674  0.00  0.00    -0.015 A 
ATOM     10  C   UNL     1      -3.022  -4.110   1.244  0.00  0.00    -0.045 A 
ATOM     11  C   UNL     1      -3.668  -5.202   1.792  0.00  0.00    +0.007 A 
ATOM     12  C   UNL     1      -3.682  -2.755   1.265  0.00  0.00    +0.044 C 
ENDBRANCH   4   9
BRANCH   4  13
ATOM     13  C   UNL     1      -0.268  -2.369   1.140  0.00  0.00    +0.239 C 
ATOM     14  O   UNL     1       0.897  -2.097   0.943  0.00  0.00    -0.273 OA
ATOM     15  N   UNL     1      -0.847  -2.044   2.313  0.00  0.00    -0.309 N 
ATOM     16  H   UNL     1      -1.754  -2.332   2.503  0.00  0.00    +0.149 HD
BRANCH  15  17
ATOM     17  C   UNL     1      -0.107  -1.256   3.302  0.00  0.00    +0.026 C 
ATOM     18  C   UNL     1       0.279   0.094   2.693  0.00  0.00    +0.031 C 
ATOM     19  C   UNL     1      -0.985  -1.028   4.534  0.00  0.00    +0.031 C 
ATOM     20  C   UNL     1       1.159  -2.011   3.711  0.00  0.00    +0.031 C 
ENDBRANCH  15  17
ENDBRANCH   4  13
ENDBRANCH   1   4
BRANCH   1  21
ATOM     21  C   UNL     1      -0.490  -3.221  -2.392  0.00  0.00    +0.183 C 
BRANCH  21  22
ATOM     22  C   UNL     1      -0.051  -1.816  -2.717  0.00  0.00    +0.122 A 
ATOM     23  C   UNL     1       1.024  -1.478  -3.452  0.00  0.00    +0.046 A 
ATOM     24  C   UNL     1       1.058  -0.066  -3.502  0.00  0.00    +0.041 A 
ATOM     25  C   UNL     1       0.002   0.375  -2.796  0.00  0.00    +0.195 A 
ATOM     26  O   UNL     1      -0.669  -0.690  -2.327  0.00  0.00    -0.466 OA
ENDBRANCH  21  22
ENDBRANCH   1  21
BRANCH   2  27
ATOM     27  C   UNL     1       1.901  -4.616  -1.781  0.00  0.00    +0.192 C 
BRANCH  27  28
ATOM     28  C   UNL     1       3.195  -5.086  -1.167  0.00  0.00    -0.003 A 
ATOM     29  C   UNL     1       3.186  -6.104  -0.232  0.00  0.00    +0.007 A 
ATOM     30  C   UNL     1       4.372  -6.535   0.331  0.00  0.00    +0.000 A 
ATOM     31  C   UNL     1       5.567  -5.949  -0.041  0.00  0.00    +0.000 A 
ATOM     32  C   UNL     1       5.576  -4.932  -0.977  0.00  0.00    +0.000 A 
ATOM     33  C   UNL     1       4.390  -4.504  -1.544  0.00  0.00    +0.007 A 
ENDBRANCH  27  28
BRANCH  27  34
ATOM     34  C   UNL     1       1.294  -5.732  -2.591  0.00  0.00    -0.003 A 
ATOM     35  C   UNL     1       0.415  -6.618  -1.997  0.00  0.00    +0.007 A 
ATOM     36  C   UNL     1      -0.141  -7.643  -2.740  0.00  0.00    +0.000 A 
ATOM     37  C   UNL     1       0.180  -7.781  -4.077  0.00  0.00    +0.000 A 
ATOM     38  C   UNL     1       1.059  -6.894  -4.671  0.00  0.00    +0.000 A 
ATOM     39  C   UNL     1       1.612  -5.867  -3.930  0.00  0.00    +0.007 A 
ENDBRANCH  27  34
BRANCH  27  40
ATOM     40  O   UNL     1       2.157  -3.496  -2.631  0.00  0.00    -0.371 OA
ATOM     41  H   UNL     1       2.616  -2.766  -2.193  0.00  0.00    +0.212 HD
ENDBRANCH  27  40
ENDBRANCH   2  27
TORSDOF 10
