REMARK  Name = ZINC38938539
REMARK  6 active torsions:
REMARK  status: ('A' for Active; 'I' for Inactive)
REMARK    1  A    between atoms: C_1  and  C_2
REMARK    2  A    between atoms: C_2  and  C_3
REMARK    3  A    between atoms: C_3  and  O_5
REMARK    4  A    between atoms: O_5  and  C_6
REMARK    5  A    between atoms: C_6  and  C_7
REMARK    6  A    between atoms: C_12  and  C_19
REMARK                            x       y       z     vdW  Elec       q    Type
REMARK                         _______ _______ _______ _____ _____    ______ ____
ROOT
ATOM      1  C   UNL     1      -3.063  -3.801   0.011  0.00  0.00    +0.136 C 
ATOM      2  C   UNL     1      -4.508  -4.210  -0.199  0.00  0.00    -0.001 C 
ATOM      3  C   UNL     1      -5.080  -4.995   0.757  0.00  0.00    -0.007 A 
ATOM      4  C   UNL     1      -6.471  -5.435   0.633  0.00  0.00    +0.012 A 
ATOM      5  C   UNL     1      -6.999  -6.217   1.610  0.00  0.00    -0.050 A 
ATOM      6  C   UNL     1      -6.245  -6.604   2.718  0.00  0.00    +0.005 A 
ATOM      7  C   UNL     1      -4.951  -6.229   2.892  0.00  0.00    +0.024 A 
ATOM      8  C   UNL     1      -4.308  -5.419   1.938  0.00  0.00    +0.040 A 
ATOM      9  N   UNL     1      -3.038  -5.059   2.118  0.00  0.00    -0.284 N 
ATOM     10  C   UNL     1      -2.376  -4.298   1.262  0.00  0.00    +0.227 C 
ATOM     11  O   UNL     1      -1.217  -4.001   1.482  0.00  0.00    -0.275 OA
ATOM     12  C   UNL     1      -8.430  -6.676   1.494  0.00  0.00    +0.044 C 
ATOM     13  H   UNL     1      -2.578  -5.367   2.914  0.00  0.00    +0.155 HD
ENDROOT
BRANCH   1  14
ATOM     14  C   UNL     1      -3.004  -2.272   0.018  0.00  0.00    +0.249 C 
BRANCH  14  15
ATOM     15  O   UNL     1      -1.639  -1.849   0.008  0.00  0.00    -0.464 OA
BRANCH  15  16
ATOM     16  C   UNL     1      -1.412  -0.526   0.013  0.00  0.00    +0.307 C 
ATOM     17  O   UNL     1      -2.341   0.247   0.026  0.00  0.00    -0.251 OA
BRANCH  16  19
ATOM     18  C   UNL     1      -0.019   1.526   0.010  0.00  0.00    +0.015 C 
ATOM     19  C   UNL     1       0.002  -0.004   0.002  0.00  0.00    +0.117 C 
ENDBRANCH  16  19
ENDBRANCH  15  16
ENDBRANCH  14  15
ENDBRANCH   1  14
TORSDOF 4
