REMARK  Name = ZINC64504153
REMARK  7 active torsions:
REMARK  status: ('A' for Active; 'I' for Inactive)
REMARK    1  A    between atoms: C_8  and  N_11
REMARK    2  A    between atoms: C_17  and  C_19
REMARK    3  A    between atoms: C_19  and  C_20
REMARK    4  A    between atoms: C_20  and  C_21
REMARK    5  A    between atoms: N_23  and  C_24
REMARK    6  A    between atoms: C_24  and  C_25
REMARK    7  A    between atoms: C_25  and  C_26
REMARK                            x       y       z     vdW  Elec       q    Type
REMARK                         _______ _______ _______ _____ _____    ______ ____
ROOT
ATOM      1  C   UNL     1       8.287  -0.840  -4.902  0.00  0.00    +0.105 C 
ENDROOT
BRANCH   1   8
ATOM      2  N   UNL     1       5.618   1.260  -1.255  0.00  0.00    -0.273 NA
ATOM      3  C   UNL     1       4.768   1.247  -2.453  0.00  0.00    +0.106 C 
ATOM      4  C   UNL     1       5.609   1.625  -3.676  0.00  0.00    +0.123 C 
ATOM      5  N   UNL     1       6.777   0.734  -3.734  0.00  0.00    -0.299 N 
ATOM      6  C   UNL     1       7.602   0.589  -2.525  0.00  0.00    +0.123 C 
ATOM      7  C   UNL     1       6.682   0.251  -1.346  0.00  0.00    +0.106 C 
ATOM      8  C   UNL     1       7.085   0.069  -4.865  0.00  0.00    +0.216 C 
ATOM      9  O   UNL     1       6.394   0.201  -5.853  0.00  0.00    -0.276 OA
BRANCH   2  17
ATOM     10  C   UNL     1      -0.017   1.375   0.010  0.00  0.00    +0.022 A 
ATOM     11  C   UNL     1       1.168   2.087   0.002  0.00  0.00    +0.027 A 
ATOM     12  C   UNL     1       2.392   1.394  -0.013  0.00  0.00    +0.061 A 
ATOM     13  C   UNL     1       2.304  -0.004  -0.020  0.00  0.00    +0.121 A 
ATOM     14  N   UNL     1       1.158  -0.647  -0.013  0.00  0.00    -0.247 NA
ATOM     15  C   UNL     1       0.002  -0.004   0.002  0.00  0.00    +0.112 A 
ATOM     16  S   UNL     1       3.991  -0.570  -0.039  0.00  0.00    -0.066 S 
ATOM     17  C   UNL     1       4.817   1.071  -0.038  0.00  0.00    +0.208 C 
ATOM     18  N   UNL     1       3.658   1.974  -0.022  0.00  0.00    -0.318 N 
ATOM     19  H   UNL     1       3.771   2.937  -0.018  0.00  0.00    +0.148 HD
ENDBRANCH   2  17
ENDBRANCH   1   8
BRANCH   1  20
ATOM     20  C   UNL     1       8.409  -1.468  -6.292  0.00  0.00    +0.105 C 
BRANCH  20  21
ATOM     21  C   UNL     1       9.611  -2.376  -6.329  0.00  0.00    +0.213 C 
ATOM     22  O   UNL     1      10.302  -2.508  -5.341  0.00  0.00    -0.276 OA
ATOM     23  N   UNL     1       9.918  -3.041  -7.460  0.00  0.00    -0.315 N 
ATOM     24  H   UNL     1       9.366  -2.936  -8.250  0.00  0.00    +0.149 HD
BRANCH  23  25
ATOM     25  C   UNL     1      11.087  -3.924  -7.495  0.00  0.00    +0.108 C 
BRANCH  25  26
ATOM     26  C   UNL     1      11.210  -4.552  -8.885  0.00  0.00    +0.052 C 
BRANCH  26  27
ATOM     27  C   UNL     1      12.412  -5.460  -8.922  0.00  0.00    -0.040 C 
ATOM     28  C   UNL     1      12.427  -6.797  -8.719  0.00  0.00    +0.000 A 
ATOM     29  C   UNL     1      11.370  -7.768  -8.413  0.00  0.00    +0.030 A 
ATOM     30  C   UNL     1      11.701  -9.072  -8.260  0.00  0.00    +0.042 A 
ATOM     31  C   UNL     1      13.026  -9.516  -8.386  0.00  0.00    +0.022 A 
ATOM     32  C   UNL     1      14.050  -8.683  -8.665  0.00  0.00    +0.027 A 
ATOM     33  C   UNL     1      13.817  -7.291  -8.847  0.00  0.00    +0.043 A 
ATOM     34  N   UNL     1      14.628  -6.299  -9.119  0.00  0.00    -0.380 N 
ATOM     35  C   UNL     1      13.844  -5.062  -9.201  0.00  0.00    +0.144 C 
ATOM     36 CL   UNL     1      10.454 -10.224  -7.898  0.00  0.00    -0.084 Cl
ATOM     37  H   UNL     1      15.587  -6.371  -9.248  0.00  0.00    +0.160 HD
ENDBRANCH  26  27
ENDBRANCH  25  26
ENDBRANCH  23  25
ENDBRANCH  20  21
ENDBRANCH   1  20
TORSDOF 7
