REMARK  Name = ZINC35964894
REMARK  8 active torsions:
REMARK  status: ('A' for Active; 'I' for Inactive)
REMARK    1  A    between atoms: C_1  and  C_2
REMARK    2  A    between atoms: C_2  and  N_3
REMARK    3  A    between atoms: C_6  and  C_11
REMARK    4  A    between atoms: N_20  and  C_22
REMARK    5  A    between atoms: C_22  and  C_24
REMARK    6  A    between atoms: C_22  and  C_30
REMARK    7  A    between atoms: N_32  and  C_33
REMARK    8  A    between atoms: C_33  and  C_34
REMARK                            x       y       z     vdW  Elec       q    Type
REMARK                         _______ _______ _______ _____ _____    ______ ____
ROOT
ATOM      1  N   UNL     1       1.464  -1.593  -2.245  0.00  0.00    -0.257 N 
ATOM      2  C   UNL     1       0.436  -1.211  -3.060  0.00  0.00    +0.042 C 
ATOM      3  C   UNL     1       0.581  -0.202  -3.942  0.00  0.00    +0.058 C 
ATOM      4  C   UNL     1       1.925   0.496  -4.000  0.00  0.00    +0.142 C 
ATOM      5  N   UNL     1       2.968   0.010  -3.081  0.00  0.00    -0.288 N 
ATOM      6  C   UNL     1       2.670  -1.009  -2.251  0.00  0.00    +0.307 C 
ATOM      7  O   UNL     1       3.523  -1.414  -1.486  0.00  0.00    -0.252 OA
ATOM      8  C   UNL     1      -0.616  -0.003  -4.660  0.00  0.00    +0.247 C 
ATOM      9  O   UNL     1      -0.768   0.843  -5.522  0.00  0.00    -0.270 OA
ATOM     10  N   UNL     1      -1.567  -0.870  -4.269  0.00  0.00    -0.277 N 
ATOM     11  C   UNL     1      -0.981  -1.714  -3.217  0.00  0.00    +0.160 C 
ATOM     12  H   UNL     1       3.849   0.416  -3.071  0.00  0.00    +0.151 HD
ENDROOT
BRANCH   4  13
ATOM     13  C   UNL     1       1.702   1.959  -3.716  0.00  0.00    -0.022 A 
ATOM     14  C   UNL     1       1.555   2.396  -2.413  0.00  0.00    +0.007 A 
ATOM     15  C   UNL     1       1.350   3.737  -2.152  0.00  0.00    +0.020 A 
ATOM     16  C   UNL     1       1.292   4.644  -3.196  0.00  0.00    +0.041 A 
ATOM     17  C   UNL     1       1.439   4.206  -4.500  0.00  0.00    +0.020 A 
ATOM     18  C   UNL     1       1.650   2.865  -4.759  0.00  0.00    +0.007 A 
ATOM     19 CL   UNL     1       1.034   6.329  -2.869  0.00  0.00    -0.084 Cl
ENDBRANCH   4  13
BRANCH   1  21
ATOM     20  C   UNL     1       0.704  -2.143   0.013  0.00  0.00    +0.025 C 
ATOM     21  C   UNL     1       1.234  -2.697  -1.311  0.00  0.00    +0.111 C 
ENDBRANCH   1  21
BRANCH  10  22
ATOM     22  C   UNL     1      -2.932  -0.957  -4.793  0.00  0.00    +0.193 C 
BRANCH  22  23
ATOM     23  C   UNL     1      -3.195  -2.359  -5.280  0.00  0.00    -0.018 A 
ATOM     24  C   UNL     1      -3.041  -3.429  -4.420  0.00  0.00    +0.006 A 
ATOM     25  C   UNL     1      -3.282  -4.715  -4.866  0.00  0.00    +0.000 A 
ATOM     26  C   UNL     1      -3.678  -4.931  -6.173  0.00  0.00    +0.000 A 
ATOM     27  C   UNL     1      -3.833  -3.860  -7.033  0.00  0.00    +0.000 A 
ATOM     28  C   UNL     1      -3.596  -2.574  -6.585  0.00  0.00    +0.006 A 
ENDBRANCH  22  23
BRANCH  22  29
ATOM     29  C   UNL     1      -3.913  -0.612  -3.702  0.00  0.00    +0.238 C 
ATOM     30  O   UNL     1      -3.510  -0.322  -2.595  0.00  0.00    -0.273 OA
ATOM     31  N   UNL     1      -5.236  -0.626  -3.956  0.00  0.00    -0.306 N 
ATOM     32  H   UNL     1      -5.558  -0.858  -4.841  0.00  0.00    +0.149 HD
BRANCH  31  33
ATOM     33  C   UNL     1      -6.189  -0.290  -2.895  0.00  0.00    +0.178 C 
BRANCH  33  34
ATOM     34  C   UNL     1      -7.593  -0.380  -3.434  0.00  0.00    +0.122 A 
ATOM     35  C   UNL     1      -8.373  -1.475  -3.419  0.00  0.00    +0.046 A 
ATOM     36  C   UNL     1      -9.600  -1.113  -4.022  0.00  0.00    +0.041 A 
ATOM     37  C   UNL     1      -9.496   0.182  -4.370  0.00  0.00    +0.195 A 
ATOM     38  O   UNL     1      -8.280   0.623  -4.006  0.00  0.00    -0.466 OA
ENDBRANCH  33  34
ENDBRANCH  31  33
ENDBRANCH  22  29
ENDBRANCH  10  22
TORSDOF 7
