REMARK  Name = ZINC10107542
REMARK  11 active torsions:
REMARK  status: ('A' for Active; 'I' for Inactive)
REMARK    1  A    between atoms: C_1  and  C_2
REMARK    2  A    between atoms: C_3  and  C_35
REMARK    3  A    between atoms: N_9  and  C_10
REMARK    4  A    between atoms: C_13  and  O_16
REMARK    5  A    between atoms: O_16  and  C_17
REMARK    6  A    between atoms: N_18  and  C_34
REMARK    7  A    between atoms: N_21  and  C_24
REMARK    8  A    between atoms: C_24  and  C_25
REMARK    9  A    between atoms: C_25  and  C_26
REMARK   10  A    between atoms: C_26  and  N_69
REMARK   11  A    between atoms: C_31  and  C_33
REMARK                            x       y       z     vdW  Elec       q    Type
REMARK                         _______ _______ _______ _____ _____    ______ ____
ROOT
ATOM      1  C   UNL     1       7.477   4.752   4.711  0.00  0.00    +0.066 C 
ATOM      2  C   UNL     1       6.402   3.719   4.493  0.00  0.00    +0.043 A 
ATOM      3  C   UNL     1       5.375   3.827   3.655  0.00  0.00    +0.044 A 
ATOM      4  N   UNL     1       4.615   2.674   3.745  0.00  0.00    -0.274 N 
ATOM      5  C   UNL     1       3.488   2.019   3.272  0.00  0.00    +0.157 A 
ATOM      6  C   UNL     1       3.437   0.795   3.939  0.00  0.00    +0.170 A 
ATOM      7  N   UNL     1       4.483   0.743   4.759  0.00  0.00    -0.193 NA
ATOM      8  C   UNL     1       5.195   1.856   4.655  0.00  0.00    +0.223 A 
ATOM      9  N   UNL     1       6.312   2.495   5.130  0.00  0.00    -0.282 N 
ATOM     10  N   UNL     1       2.397  -0.077   3.656  0.00  0.00    -0.279 N 
ATOM     11  C   UNL     1       1.456   0.267   2.756  0.00  0.00    +0.333 A 
ATOM     12  O   UNL     1       0.548  -0.507   2.523  0.00  0.00    -0.246 OA
ATOM     13  N   UNL     1       1.500   1.441   2.104  0.00  0.00    -0.259 N 
ATOM     14  C   UNL     1       2.487   2.330   2.337  0.00  0.00    +0.283 A 
ATOM     15  O   UNL     1       2.511   3.393   1.741  0.00  0.00    -0.265 OA
ATOM     16  C   UNL     1       2.317  -1.369   4.341  0.00  0.00    +0.155 C 
ATOM     17  C   UNL     1       5.088   5.004   2.759  0.00  0.00    +0.066 C 
ENDROOT
BRANCH   9  18
ATOM     18  C   UNL     1       7.202   1.996   6.091  0.00  0.00    +0.050 A 
ATOM     19  C   UNL     1       8.516   1.714   5.741  0.00  0.00    +0.030 A 
ATOM     20  C   UNL     1       9.394   1.228   6.689  0.00  0.00    +0.047 A 
ATOM     21  C   UNL     1       8.961   1.012   7.990  0.00  0.00    +0.120 A 
ATOM     22  C   UNL     1       7.647   1.289   8.339  0.00  0.00    +0.047 A 
ATOM     23  C   UNL     1       6.770   1.780   7.393  0.00  0.00    +0.030 A 
BRANCH  21  24
ATOM     24  O   UNL     1       9.825   0.528   8.922  0.00  0.00    -0.495 OA
ATOM     25  C   UNL     1      11.162   0.266   8.492  0.00  0.00    +0.277 C 
ENDBRANCH  21  24
ENDBRANCH   9  18
BRANCH  13  26
ATOM     26  C   UNL     1       0.455   1.764   1.129  0.00  0.00    +0.128 C 
BRANCH  26  27
ATOM     27  C   UNL     1       0.881   1.273  -0.256  0.00  0.00    +0.003 C 
BRANCH  27  28
ATOM     28  C   UNL     1      -0.210   1.609  -1.275  0.00  0.00    -0.077 C 
BRANCH  28  35
ATOM     29  C   UNL     1       0.230  -0.329  -2.656  0.00  0.00    -0.078 C 
ATOM     30  C   UNL     1       0.798  -0.781  -4.004  0.00  0.00    -0.019 C 
ATOM     31  C   UNL     1      -0.079  -0.231  -5.132  0.00  0.00    -0.003 C 
ATOM     32  C   UNL     1      -0.133   1.296  -5.026  0.00  0.00    -0.016 C 
ATOM     33  C   UNL     1      -0.674   1.688  -3.649  0.00  0.00    -0.072 C 
ATOM     34  C   UNL     1      -0.712   3.213  -3.532  0.00  0.00    -0.013 C 
ATOM     35  N   UNL     1       0.227   1.149  -2.609  0.00  0.00    +0.381 N 
ATOM     36  H   UNL     1       1.180   1.489  -2.784  0.00  0.00    -0.081 HD
ENDBRANCH  28  35
ENDBRANCH  27  28
ENDBRANCH  26  27
ENDBRANCH  13  26
TORSDOF 6
