REMARK  Name = ZINC13137794
REMARK  4 active torsions:
REMARK  status: ('A' for Active; 'I' for Inactive)
REMARK    1  A    between atoms: C_6  and  C_7
REMARK    2  A    between atoms: N_9  and  C_10
REMARK    3  A    between atoms: C_12  and  S_17
REMARK    4  A    between atoms: S_17  and  N_20
REMARK                            x       y       z     vdW  Elec       q    Type
REMARK                         _______ _______ _______ _____ _____    ______ ____
ROOT
ATOM      1  C   UNL     1      -1.157   1.676   0.018  0.00  0.00    +0.248 C 
ATOM      2  O   UNL     1      -1.121   2.888  -0.064  0.00  0.00    -0.270 OA
ATOM      3  N   UNL     1      -0.011   0.966   0.007  0.00  0.00    -0.280 N 
ATOM      4  H   UNL     1      -0.042  -0.004  -0.011  0.00  0.00    +0.155 HD
ENDROOT
BRANCH   1  10
ATOM      5  C   UNL     1      -2.493  -0.417   0.218  0.00  0.00    +0.014 A 
ATOM      6  C   UNL     1      -3.685  -1.076   0.326  0.00  0.00    +0.016 A 
ATOM      7  C   UNL     1      -4.877  -0.355   0.339  0.00  0.00    +0.065 A 
ATOM      8  C   UNL     1      -4.860   1.054   0.246  0.00  0.00    +0.079 A 
ATOM      9  C   UNL     1      -3.636   1.717   0.140  0.00  0.00    +0.041 A 
ATOM     10  C   UNL     1      -2.458   0.980   0.129  0.00  0.00    +0.039 A 
ATOM     11  N   UNL     1      -6.035   1.732   0.263  0.00  0.00    -0.233 NA
ATOM     12  C   UNL     1      -7.178   1.125   0.372  0.00  0.00    +0.113 A 
ATOM     13  N   UNL     1      -7.282  -0.235   0.463  0.00  0.00    -0.296 N 
ATOM     14  C   UNL     1      -6.186  -1.021   0.450  0.00  0.00    +0.262 A 
ATOM     15  O   UNL     1      -6.275  -2.232   0.527  0.00  0.00    -0.267 OA
ATOM     16  C   UNL     1      -8.620  -0.827   0.579  0.00  0.00    +0.126 C 
ATOM     17  C   UNL     1      -9.155  -0.585   1.989  0.00  0.00    +0.022 C 
ATOM     18  C   UNL     1      -9.911   0.730   2.069  0.00  0.00    +0.002 C 
ATOM     19  C   UNL     1      -9.006   1.927   1.835  0.00  0.00    +0.008 C 
ATOM     20  C   UNL     1      -8.456   1.933   0.411  0.00  0.00    +0.074 C 
ENDBRANCH   1  10
BRANCH   3  21
ATOM     21  C   UNL     1       1.222   1.627   0.017  0.00  0.00    +0.054 A 
ATOM     22  C   UNL     1       1.320   2.910   0.539  0.00  0.00    +0.053 A 
ATOM     23  C   UNL     1       2.538   3.560   0.547  0.00  0.00    +0.107 A 
ATOM     24  C   UNL     1       3.661   2.935   0.035  0.00  0.00    +0.030 A 
ATOM     25  C   UNL     1       3.567   1.658  -0.487  0.00  0.00    +0.024 A 
ATOM     26  C   UNL     1       2.352   0.999  -0.492  0.00  0.00    +0.062 A 
ATOM     27 CL   UNL     1       2.237  -0.607  -1.140  0.00  0.00    -0.082 Cl
BRANCH  23  28
ATOM     28  S   UNL     1       2.663   5.187   1.210  0.00  0.00    +0.061 S 
ATOM     29  O   UNL     1       3.800   5.787   0.604  0.00  0.00    -0.153 OA
ATOM     30  O   UNL     1       1.365   5.760   1.129  0.00  0.00    -0.153 OA
BRANCH  28  31
ATOM     31  N   UNL     1       3.012   5.034   2.822  0.00  0.00    -0.177 NA
ATOM     32  C   UNL     1       1.918   4.961   3.764  0.00  0.00    +0.109 C 
ATOM     33  C   UNL     1       1.526   6.381   4.224  0.00  0.00    +0.017 C 
ATOM     34  C   UNL     1       2.566   6.939   5.101  0.00  0.00    +0.001 C 
ATOM     35  C   UNL     1       3.924   7.119   4.430  0.00  0.00    +0.001 C 
ATOM     36  C   UNL     1       4.693   5.822   4.500  0.00  0.00    +0.017 C 
ATOM     37  C   UNL     1       4.428   4.982   3.237  0.00  0.00    +0.109 C 
ENDBRANCH  28  31
ENDBRANCH  23  28
ENDBRANCH   3  21
TORSDOF 4
