REMARK  Name = ZINC28932543
REMARK  8 active torsions:
REMARK  status: ('A' for Active; 'I' for Inactive)
REMARK    1  A    between atoms: C_1  and  C_2
REMARK    2  A    between atoms: C_9  and  C_16
REMARK    3  A    between atoms: C_11  and  O_12
REMARK    4  A    between atoms: C_16  and  O_17
REMARK    5  A    between atoms: O_17  and  C_18
REMARK    6  A    between atoms: C_18  and  C_20
REMARK    7  A    between atoms: C_24  and  O_26
REMARK    8  A    between atoms: O_26  and  C_27
REMARK                            x       y       z     vdW  Elec       q    Type
REMARK                         _______ _______ _______ _____ _____    ______ ____
ROOT
ATOM      1  C   UNL     1       4.619  15.613  -0.360  0.00  0.00    +0.109 C 
ATOM      2  C   UNL     1       4.351  14.133  -0.467  0.00  0.00    +0.214 C 
ATOM      3  O   UNL     1       5.160  13.408  -1.004  0.00  0.00    -0.276 OA
ATOM      4  N   UNL     1       3.212  13.617   0.036  0.00  0.00    -0.286 N 
ATOM      5  C   UNL     1       3.013  12.236   0.037  0.00  0.00    +0.037 A 
ATOM      6  C   UNL     1       1.728  11.722  -0.136  0.00  0.00    +0.024 A 
ATOM      7  C   UNL     1       1.517  10.374  -0.138  0.00  0.00    +0.014 A 
ATOM      8  C   UNL     1       2.598   9.501   0.030  0.00  0.00    +0.024 A 
ATOM      9  C   UNL     1       2.401   8.050   0.038  0.00  0.00    +0.007 A 
ATOM     10  C   UNL     1       3.488   7.255   0.211  0.00  0.00    +0.095 A 
ATOM     11  C   UNL     1       4.762   7.836   0.380  0.00  0.00    +0.285 A 
ATOM     12  O   UNL     1       4.936   9.167   0.377  0.00  0.00    -0.425 OA
ATOM     13  C   UNL     1       3.897  10.013   0.210  0.00  0.00    +0.141 A 
ATOM     14  C   UNL     1       4.094  11.385   0.209  0.00  0.00    +0.070 A 
ATOM     15  H   UNL     1       2.439  14.284   0.446  0.00  0.00    +0.155 HD
ENDROOT
BRANCH  11  16
ATOM     16  O   UNL     1       5.729   7.111   0.534  0.00  0.00    -0.480 OA
ATOM     17  H   UNL     1       6.729   7.550   0.668  0.00  0.00    +0.295 HD
ENDBRANCH  11  16
BRANCH   9  18
ATOM     18  C   UNL     1       1.028   7.455  -0.145  0.00  0.00    +0.269 C 
BRANCH  18  19
ATOM     19  O   UNL     1       1.119   6.006  -0.102  0.00  0.00    -0.456 OA
BRANCH  19  20
ATOM     20  C   UNL     1      -0.029   5.317  -0.251  0.00  0.00    +0.340 C 
ATOM     21  O   UNL     1      -1.076   5.909  -0.413  0.00  0.00    -0.245 OA
BRANCH  20  22
ATOM     22  C   UNL     1      -0.013   3.840  -0.217  0.00  0.00    +0.062 A 
ATOM     23  C   UNL     1       1.191   3.156  -0.031  0.00  0.00    +0.015 A 
ATOM     24  C   UNL     1       1.202   1.777  -0.000  0.00  0.00    +0.004 A 
ATOM     25  C   UNL     1       0.024   1.068  -0.155  0.00  0.00    +0.046 A 
ATOM     26  C   UNL     1      -1.176   1.738  -0.346  0.00  0.00    +0.128 A 
ATOM     27  C   UNL     1      -1.200   3.123  -0.372  0.00  0.00    +0.060 A 
BRANCH  26  28
ATOM     28  O   UNL     1      -2.329   1.036  -0.503  0.00  0.00    -0.434 OA
BRANCH  28  29
ATOM     29  C   UNL     1      -2.231  -0.389  -0.460  0.00  0.00    +0.541 C 
ATOM     30  F   UNL     1      -1.381  -0.829  -1.480  0.00  0.00    -0.166 F 
ATOM     31  F   UNL     1      -1.717  -0.784   0.779  0.00  0.00    -0.166 F 
ENDBRANCH  28  29
ENDBRANCH  26  28
ENDBRANCH  20  22
ENDBRANCH  19  20
ENDBRANCH  18  19
ENDBRANCH   9  18
TORSDOF 7
