REMARK  Name = ZINC08926174
REMARK  9 active torsions:
REMARK  status: ('A' for Active; 'I' for Inactive)
REMARK    1  A    between atoms: C_1  and  C_2
REMARK    2  A    between atoms: C_2  and  CA_3
REMARK    3  A    between atoms: CA_3  and  C_5
REMARK    4  A    between atoms: CA_3  and  N_7
REMARK    5  A    between atoms: C_5  and  O_6
REMARK    6  A    between atoms: N_12  and  C_13
REMARK    7  A    between atoms: N_16  and  C_21
REMARK    8  A    between atoms: N_19  and  C_20
REMARK    9  A    between atoms: C_21  and  C_22
REMARK                            x       y       z     vdW  Elec       q    Type
REMARK                         _______ _______ _______ _____ _____    ______ ____
ROOT
ATOM      1  N   UNL     1      -2.592   5.648   5.886  0.00  0.00    -0.310 N 
ATOM      2  C   UNL     1      -1.695   5.308   4.899  0.00  0.00    +0.198 A 
ATOM      3  N   UNL     1      -0.384   5.367   5.009  0.00  0.00    -0.196 NA
ATOM      4  C   UNL     1       0.188   4.967   3.872  0.00  0.00    +0.170 A 
ATOM      5  C   UNL     1      -0.831   4.633   2.986  0.00  0.00    +0.153 A 
ATOM      6  N   UNL     1      -2.024   4.857   3.660  0.00  0.00    -0.309 N 
ATOM      7  C   UNL     1      -3.376   4.649   3.136  0.00  0.00    +0.152 C 
ATOM      8  C   UNL     1      -0.499   4.181   1.697  0.00  0.00    +0.283 A 
ATOM      9  O   UNL     1      -1.375   3.888   0.902  0.00  0.00    -0.265 OA
ATOM     10  N   UNL     1       0.800   4.070   1.351  0.00  0.00    -0.255 N 
ATOM     11  C   UNL     1       1.777   4.395   2.215  0.00  0.00    +0.334 A 
ATOM     12  O   UNL     1       2.938   4.287   1.866  0.00  0.00    -0.246 OA
ATOM     13  N   UNL     1       1.503   4.837   3.456  0.00  0.00    -0.279 N 
ATOM     14  C   UNL     1       2.596   5.182   4.369  0.00  0.00    +0.155 C 
ATOM     15  H   UNL     1      -3.545   5.574   5.721  0.00  0.00    +0.149 HD
ENDROOT
BRANCH   1  16
ATOM     16  CA  UNL     1      -2.107   6.122   7.185  0.00  0.00    +0.098 C 
BRANCH  16  18
ATOM     17  C   UNL     1      -3.400   8.253   7.008  0.00  0.00    +0.006 C 
ATOM     18  C   UNL     1      -3.181   6.990   7.844  0.00  0.00    +0.021 C 
ENDBRANCH  16  18
BRANCH  16  19
ATOM     19  C   UNL     1      -1.799   4.922   8.082  0.00  0.00    +0.178 C 
BRANCH  19  20
ATOM     20  O   UNL     1      -3.009   4.215   8.365  0.00  0.00    -0.393 OA
ATOM     21  H   UNL     1      -2.889   3.440   8.931  0.00  0.00    +0.209 HD
ENDBRANCH  19  20
ENDBRANCH  16  19
ENDBRANCH   1  16
BRANCH  10  22
ATOM     22  C   UNL     1       1.152   3.594   0.010  0.00  0.00    +0.166 C 
BRANCH  22  23
ATOM     23  C   UNL     1       1.473   2.123   0.068  0.00  0.00    -0.009 A 
ATOM     24  C   UNL     1       2.782   1.706   0.221  0.00  0.00    +0.008 A 
ATOM     25  C   UNL     1       3.078   0.357   0.273  0.00  0.00    +0.020 A 
ATOM     26  C   UNL     1       2.062  -0.578   0.175  0.00  0.00    +0.042 A 
ATOM     27  C   UNL     1       0.752  -0.162   0.023  0.00  0.00    +0.040 A 
ATOM     28  C   UNL     1       0.457   1.189  -0.030  0.00  0.00    +0.047 A 
ATOM     29 CL   UNL     1      -1.187   1.711  -0.228  0.00  0.00    -0.083 Cl
ATOM     30 CL   UNL     1       2.433  -2.272   0.241  0.00  0.00    -0.083 Cl
ENDBRANCH  22  23
ENDBRANCH  10  22
TORSDOF 6
