REMARK  Name = ZINC40981632
REMARK  12 active torsions:
REMARK  status: ('A' for Active; 'I' for Inactive)
REMARK    1  A    between atoms: C_1  and  C_2
REMARK    2  A    between atoms: C_2  and  C_3
REMARK    3  A    between atoms: C_3  and  S_4
REMARK    4  A    between atoms: S_4  and  C_5
REMARK    5  A    between atoms: C_10  and  C_25
REMARK    6  A    between atoms: C_12  and  C_16
REMARK    7  A    between atoms: C_13  and  C_15
REMARK    8  A    between atoms: N_18  and  C_19
REMARK    9  A    between atoms: C_28  and  O_31
REMARK   10  A    between atoms: O_31  and  C_32
REMARK   11  A    between atoms: C_32  and  C_33
REMARK   12  A    between atoms: C_38  and  C_39
REMARK                            x       y       z     vdW  Elec       q    Type
REMARK                         _______ _______ _______ _____ _____    ______ ____
ROOT
ATOM      1  C   UNL     1       1.565  -2.826  -2.746  0.00  0.00    +0.210 A 
ATOM      2  N   UNL     1       2.027  -1.915  -3.614  0.00  0.00    -0.187 NA
ATOM      3  C   UNL     1       2.611  -2.520  -4.612  0.00  0.00    +0.219 A 
ATOM      4  N   UNL     1       2.528  -3.857  -4.402  0.00  0.00    -0.220 N 
ATOM      5  N   UNL     1       1.858  -4.029  -3.191  0.00  0.00    -0.141 NA
ATOM      6  C   UNL     1       3.067  -4.855  -5.322  0.00  0.00    +0.177 C 
ATOM      7  C   UNL     1       3.955  -4.178  -6.331  0.00  0.00    +0.060 C 
ATOM      8  C   UNL     1       3.998  -2.848  -6.493  0.00  0.00    +0.018 C 
ATOM      9  N   UNL     1       3.237  -1.993  -5.734  0.00  0.00    -0.287 N 
ATOM     10  C   UNL     1       4.914  -2.271  -7.542  0.00  0.00    +0.061 C 
ATOM     11  H   UNL     1       3.140  -1.058  -5.973  0.00  0.00    +0.155 HD
ENDROOT
BRANCH   6  12
ATOM     12  C   UNL     1       1.932  -5.546  -6.033  0.00  0.00    -0.018 A 
ATOM     13  C   UNL     1       1.060  -4.813  -6.816  0.00  0.00    +0.009 A 
ATOM     14  C   UNL     1       0.019  -5.444  -7.469  0.00  0.00    +0.046 A 
ATOM     15  C   UNL     1      -0.150  -6.815  -7.339  0.00  0.00    +0.121 A 
ATOM     16  C   UNL     1       0.727  -7.549  -6.554  0.00  0.00    +0.046 A 
ATOM     17  C   UNL     1       1.770  -6.913  -5.907  0.00  0.00    +0.009 A 
BRANCH  15  18
ATOM     18  O   UNL     1      -1.174  -7.439  -7.980  0.00  0.00    -0.487 OA
BRANCH  18  19
ATOM     19  C   UNL     1      -1.286  -8.852  -7.801  0.00  0.00    +0.264 C 
BRANCH  19  20
ATOM     20  C   UNL     1      -2.470  -9.364  -8.581  0.00  0.00    -0.007 A 
ATOM     21  C   UNL     1      -3.241  -8.488  -9.322  0.00  0.00    +0.007 A 
ATOM     22  C   UNL     1      -4.327  -8.957 -10.037  0.00  0.00    +0.000 A 
ATOM     23  C   UNL     1      -4.641 -10.304 -10.013  0.00  0.00    +0.000 A 
ATOM     24  C   UNL     1      -3.869 -11.180  -9.273  0.00  0.00    +0.004 A 
ATOM     25  C   UNL     1      -2.780 -10.711  -8.561  0.00  0.00    -0.044 A 
ATOM     26  C   UNL     1      -1.936 -11.667  -7.759  0.00  0.00    +0.044 C 
ENDBRANCH  19  20
ENDBRANCH  18  19
ENDBRANCH  15  18
ENDBRANCH   6  12
BRANCH   7  27
ATOM     27  C   UNL     1       4.783  -4.984  -7.148  0.00  0.00    +0.248 C 
ATOM     28  O   UNL     1       5.831  -5.421  -6.709  0.00  0.00    -0.270 OA
ATOM     29  N   UNL     1       4.411  -5.268  -8.412  0.00  0.00    -0.282 N 
ATOM     30  H   UNL     1       3.620  -4.853  -8.790  0.00  0.00    +0.155 HD
BRANCH  29  31
ATOM     31  C   UNL     1       5.165  -6.162  -9.179  0.00  0.00    +0.034 A 
ATOM     32  C   UNL     1       5.924  -7.145  -8.556  0.00  0.00    +0.023 A 
ATOM     33  C   UNL     1       6.668  -8.025  -9.317  0.00  0.00    +0.002 A 
ATOM     34  C   UNL     1       6.659  -7.929 -10.696  0.00  0.00    +0.000 A 
ATOM     35  C   UNL     1       5.905  -6.951 -11.319  0.00  0.00    +0.002 A 
ATOM     36  C   UNL     1       5.154  -6.071 -10.565  0.00  0.00    +0.023 A 
ENDBRANCH  29  31
ENDBRANCH   7  27
BRANCH   1  37
ATOM     37  S   UNL     1       0.709  -2.471  -1.248  0.00  0.00    -0.084 S 
BRANCH  37  38
ATOM     38  C   UNL     1       0.623  -0.659  -1.210  0.00  0.00    +0.077 C 
BRANCH  38  40
ATOM     39  C   UNL     1      -0.178   1.319   0.088  0.00  0.00    +0.004 C 
ATOM     40  C   UNL     1      -0.106  -0.209   0.057  0.00  0.00    +0.008 C 
ENDBRANCH  38  40
ENDBRANCH  37  38
ENDBRANCH   1  37
TORSDOF 9
