REMARK  Name = ZINC63314363
REMARK  10 active torsions:
REMARK  status: ('A' for Active; 'I' for Inactive)
REMARK    1  A    between atoms: C_1  and  O_2
REMARK    2  A    between atoms: O_2  and  C_3
REMARK    3  A    between atoms: C_6  and  C_9
REMARK    4  A    between atoms: C_11  and  C_33
REMARK    5  A    between atoms: N_13  and  C_20
REMARK    6  A    between atoms: C_20  and  C_21
REMARK    7  A    between atoms: C_21  and  C_22
REMARK    8  A    between atoms: C_25  and  O_31
REMARK    9  A    between atoms: O_31  and  C_32
REMARK   10  A    between atoms: C_36  and  O_39
REMARK                            x       y       z     vdW  Elec       q    Type
REMARK                         _______ _______ _______ _____ _____    ______ ____
ROOT
ATOM      1  C   UNL     1      -5.377  -2.678   0.265  0.00  0.00    +0.097 C 
ATOM      2  C   UNL     1      -5.343  -3.980   0.059  0.00  0.00    +0.017 C 
ATOM      3  C   UNL     1      -4.735  -5.362   0.010  0.00  0.00    +0.137 C 
ATOM      4  N   UNL     1      -5.647  -6.157   0.869  0.00  0.00    -0.288 N 
ATOM      5  C   UNL     1      -6.871  -5.561   0.912  0.00  0.00    +0.247 C 
ATOM      6  O   UNL     1      -7.822  -5.923   1.570  0.00  0.00    -0.273 OA
ATOM      7  C   UNL     1      -6.827  -4.375  -0.004  0.00  0.00    +0.244 C 
ATOM      8  N   UNL     1      -7.505  -3.165   0.413  0.00  0.00    -0.170 NA
ATOM      9  N   UNL     1      -6.657  -2.261   0.491  0.00  0.00    -0.153 NA
ENDROOT
BRANCH   1  13
ATOM     10  C   UNL     1      -1.970  -0.132   0.243  0.00  0.00    +0.120 A 
ATOM     11  C   UNL     1      -2.907  -0.027   1.262  0.00  0.00    +0.046 A 
ATOM     12  C   UNL     1      -4.013  -0.851   1.272  0.00  0.00    +0.013 A 
ATOM     13  C   UNL     1      -4.189  -1.790   0.257  0.00  0.00    +0.002 A 
ATOM     14  C   UNL     1      -3.247  -1.893  -0.765  0.00  0.00    +0.013 A 
ATOM     15  C   UNL     1      -2.146  -1.063  -0.772  0.00  0.00    +0.046 A 
BRANCH  10  17
ATOM     16  C   UNL     1      -0.763   1.616   1.311  0.00  0.00    +0.277 C 
ATOM     17  O   UNL     1      -0.881   0.681   0.236  0.00  0.00    -0.495 OA
ENDBRANCH  10  17
ENDBRANCH   1  13
BRANCH   3  18
ATOM     18  C   UNL     1      -3.338  -5.351   0.576  0.00  0.00    -0.023 A 
ATOM     19  C   UNL     1      -2.279  -5.796  -0.193  0.00  0.00    +0.009 A 
ATOM     20  C   UNL     1      -0.997  -5.787   0.323  0.00  0.00    +0.046 A 
ATOM     21  C   UNL     1      -0.774  -5.330   1.614  0.00  0.00    +0.117 A 
ATOM     22  C   UNL     1      -1.839  -4.884   2.383  0.00  0.00    +0.046 A 
ATOM     23  C   UNL     1      -3.118  -4.890   1.860  0.00  0.00    +0.009 A 
BRANCH  21  24
ATOM     24  O   UNL     1       0.485  -5.321   2.125  0.00  0.00    -0.507 OA
ATOM     25  H   UNL     1       0.970  -4.500   1.962  0.00  0.00    +0.292 HD
ENDBRANCH  21  24
ENDBRANCH   3  18
BRANCH   4  26
ATOM     26  C   UNL     1      -5.287  -7.395   1.565  0.00  0.00    +0.113 C 
BRANCH  26  27
ATOM     27  C   UNL     1      -4.878  -7.072   3.003  0.00  0.00    +0.052 C 
BRANCH  27  28
ATOM     28  C   UNL     1      -4.630  -8.354   3.755  0.00  0.00    -0.040 C 
ATOM     29  C   UNL     1      -3.441  -8.969   3.944  0.00  0.00    +0.002 A 
ATOM     30  C   UNL     1      -2.074  -8.643   3.523  0.00  0.00    +0.055 A 
ATOM     31  C   UNL     1      -1.056  -9.467   3.867  0.00  0.00    +0.121 A 
ATOM     32  C   UNL     1      -1.258 -10.636   4.622  0.00  0.00    +0.047 A 
ATOM     33  C   UNL     1      -2.478 -11.019   5.055  0.00  0.00    +0.029 A 
ATOM     34  C   UNL     1      -3.653 -10.201   4.739  0.00  0.00    +0.043 A 
ATOM     35  N   UNL     1      -4.922 -10.341   5.030  0.00  0.00    -0.380 N 
ATOM     36  C   UNL     1      -5.661  -9.210   4.457  0.00  0.00    +0.144 C 
ATOM     37  H   UNL     1      -5.309 -11.069   5.541  0.00  0.00    +0.160 HD
BRANCH  31  38
ATOM     38  O   UNL     1       0.206  -9.153   3.469  0.00  0.00    -0.495 OA
ATOM     39  C   UNL     1       1.250 -10.049   3.855  0.00  0.00    +0.277 C 
ENDBRANCH  31  38
ENDBRANCH  27  28
ENDBRANCH  26  27
ENDBRANCH   4  26
TORSDOF 8
