REMARK  Name = ZINC00778739
REMARK  6 active torsions:
REMARK  status: ('A' for Active; 'I' for Inactive)
REMARK    1  A    between atoms: C_1  and  C_2
REMARK    2  A    between atoms: C_2  and  O_3
REMARK    3  A    between atoms: O_3  and  C_4
REMARK    4  A    between atoms: C_4  and  C_6
REMARK    5  A    between atoms: C_9  and  N_12
REMARK    6  A    between atoms: C_18  and  C_19
REMARK                            x       y       z     vdW  Elec       q    Type
REMARK                         _______ _______ _______ _____ _____    ______ ____
ROOT
ATOM      1  N   UNL     1       6.246   5.410   0.337  0.00  0.00    -0.296 N 
ATOM      2  C   UNL     1       4.920   5.200   0.054  0.00  0.00    +0.156 C 
ATOM      3  N   UNL     1       3.931   6.080   0.050  0.00  0.00    -0.154 NA
ATOM      4  C   UNL     1       2.693   5.747  -0.241  0.00  0.00    +0.276 C 
ATOM      5  O   UNL     1       1.789   6.569  -0.241  0.00  0.00    -0.267 OA
ATOM      6  C   UNL     1       2.454   4.324  -0.569  0.00  0.00    +0.080 C 
ATOM      7  C   UNL     1       1.299   3.689  -0.904  0.00  0.00    +0.033 C 
ATOM      8  S   UNL     1       4.110   3.672  -0.391  0.00  0.00    -0.051 S 
ATOM      9  H   UNL     1       6.858   4.659   0.379  0.00  0.00    +0.154 HD
ENDROOT
BRANCH   7  10
ATOM     10  C   UNL     1       1.308   2.251  -1.181  0.00  0.00    +0.041 A 
ATOM     11  C   UNL     1       1.782   1.357  -0.234  0.00  0.00    +0.023 A 
ATOM     12  C   UNL     1       1.778  -0.026  -0.531  0.00  0.00    -0.001 A 
ATOM     13  C   UNL     1       2.253  -0.954   0.409  0.00  0.00    +0.010 A 
ATOM     14  C   UNL     1       2.245  -2.286   0.114  0.00  0.00    +0.001 A 
ATOM     15  C   UNL     1       1.770  -2.735  -1.111  0.00  0.00    +0.002 A 
ATOM     16  C   UNL     1       1.299  -1.844  -2.051  0.00  0.00    +0.026 A 
ATOM     17  C   UNL     1       1.296  -0.479  -1.775  0.00  0.00    +0.049 A 
ATOM     18  N   UNL     1       0.824   0.414  -2.714  0.00  0.00    -0.322 N 
ATOM     19  H   UNL     1       0.496   0.084  -3.565  0.00  0.00    +0.169 HD
ATOM     20  C   UNL     1       0.813   1.737  -2.466  0.00  0.00    +0.256 A 
ATOM     21  O   UNL     1       0.393   2.510  -3.308  0.00  0.00    -0.267 OA
ENDBRANCH   7  10
BRANCH   1  25
ATOM     22  C   UNL     1       7.644   9.274   1.012  0.00  0.00    +0.059 A 
ATOM     23  C   UNL     1       6.489   9.069   0.250  0.00  0.00    +0.017 A 
ATOM     24  C   UNL     1       6.029   7.791   0.029  0.00  0.00    +0.024 A 
ATOM     25  C   UNL     1       6.713   6.702   0.562  0.00  0.00    +0.033 A 
ATOM     26  C   UNL     1       7.860   6.902   1.325  0.00  0.00    +0.024 A 
ATOM     27  C   UNL     1       8.328   8.178   1.546  0.00  0.00    +0.017 A 
BRANCH  22  28
ATOM     28  C   UNL     1       8.139  10.642   1.250  0.00  0.00    +0.339 C 
ATOM     29  O   UNL     1       7.543  11.593   0.785  0.00  0.00    -0.245 OA
BRANCH  28  30
ATOM     30  O   UNL     1       9.252  10.837   1.984  0.00  0.00    -0.461 OA
BRANCH  30  32
ATOM     31  C   UNL     1      10.952  12.232   3.030  0.00  0.00    +0.048 C 
ATOM     32  C   UNL     1       9.681  12.210   2.178  0.00  0.00    +0.229 C 
ENDBRANCH  30  32
ENDBRANCH  28  30
ENDBRANCH  22  28
ENDBRANCH   1  25
TORSDOF 5
