REMARK  Name = ZINC06511838
REMARK  16 active torsions:
REMARK  status: ('A' for Active; 'I' for Inactive)
REMARK    1  A    between atoms: C_1  and  C_2
REMARK    2  A    between atoms: C_2  and  N_74
REMARK    3  A    between atoms: C_3  and  C_4
REMARK    4  A    between atoms: C_3  and  N_74
REMARK    5  A    between atoms: C_5  and  C_6
REMARK    6  A    between atoms: C_5  and  N_74
REMARK    7  A    between atoms: C_6  and  N_7
REMARK    8  A    between atoms: N_7  and  C_8
REMARK    9  A    between atoms: C_8  and  C_10
REMARK   10  A    between atoms: C_8  and  C_16
REMARK   11  A    between atoms: C_13  and  C_15
REMARK   12  A    between atoms: N_18  and  C_19
REMARK   13  A    between atoms: C_24  and  C_26
REMARK   14  A    between atoms: C_26  and  N_27
REMARK   15  A    between atoms: C_29  and  C_32
REMARK   16  A    between atoms: C_35  and  C_37
REMARK                            x       y       z     vdW  Elec       q    Type
REMARK                         _______ _______ _______ _____ _____    ______ ____
ROOT
ATOM      1  N   UNL     1      -0.700   1.123   1.752  0.00  0.00    -0.284 N 
ATOM      2  C   UNL     1      -1.383   0.417   2.675  0.00  0.00    +0.240 C 
ATOM      3  O   UNL     1      -1.577   0.887   3.776  0.00  0.00    -0.273 OA
ENDROOT
BRANCH   1   4
ATOM      4  C   UNL     1      -0.465   0.555   0.422  0.00  0.00    +0.090 C 
BRANCH   4   5
ATOM      5  C   UNL     1      -1.692   0.794  -0.459  0.00  0.00    -0.060 C 
BRANCH   5   6
ATOM      6  N   UNL     1      -1.547   0.093  -1.752  0.00  0.00    +0.380 N 
ATOM      7  H   UNL     1      -2.313   0.378  -2.373  0.00  0.00    -0.082 HD
BRANCH   6   9
ATOM      8  C   UNL     1      -0.393   1.843  -3.009  0.00  0.00    -0.017 C 
ATOM      9  C   UNL     1      -0.259   0.455  -2.381  0.00  0.00    -0.082 C 
ENDBRANCH   6   9
BRANCH   6  10
ATOM     10  C   UNL     1      -1.615  -1.369  -1.544  0.00  0.00    -0.082 C 
ATOM     11  C   UNL     1      -3.075  -1.765  -1.319  0.00  0.00    -0.017 C 
ENDBRANCH   6  10
ENDBRANCH   5   6
ENDBRANCH   4   5
ENDBRANCH   1   4
BRANCH   1  12
ATOM     12  C   UNL     1      -0.193   2.458   2.078  0.00  0.00    +0.228 C 
BRANCH  12  13
ATOM     13  C   UNL     1      -0.822   3.473   1.159  0.00  0.00    +0.135 A 
ATOM     14  C   UNL     1      -1.514   4.560   1.543  0.00  0.00    +0.047 A 
ATOM     15  C   UNL     1      -1.919   5.226   0.363  0.00  0.00    +0.045 A 
ATOM     16  C   UNL     1      -1.450   4.505  -0.671  0.00  0.00    +0.102 A 
ATOM     17  O   UNL     1      -0.781   3.448  -0.183  0.00  0.00    -0.462 OA
ATOM     18  C   UNL     1      -1.637   4.833  -2.130  0.00  0.00    +0.086 C 
ENDBRANCH  12  13
BRANCH  12  19
ATOM     19  C   UNL     1       1.304   2.483   1.905  0.00  0.00    +0.241 C 
ATOM     20  O   UNL     1       1.890   1.484   1.545  0.00  0.00    -0.273 OA
ATOM     21  N   UNL     1       1.992   3.615   2.151  0.00  0.00    -0.311 N 
ATOM     22  H   UNL     1       1.524   4.415   2.439  0.00  0.00    +0.149 HD
BRANCH  21  23
ATOM     23  C   UNL     1       3.447   3.640   1.982  0.00  0.00    +0.073 C 
ATOM     24  C   UNL     1       4.138   3.195   3.288  0.00  0.00    +0.022 C 
ATOM     25  C   UNL     1       5.397   4.093   3.377  0.00  0.00    +0.002 C 
ATOM     26  C   UNL     1       4.884   5.455   2.847  0.00  0.00    +0.002 C 
ATOM     27  C   UNL     1       3.922   5.076   1.702  0.00  0.00    +0.022 C 
ENDBRANCH  21  23
ENDBRANCH  12  19
ENDBRANCH   1  12
BRANCH   2  28
ATOM     28  C   UNL     1      -1.904  -0.956   2.340  0.00  0.00    +0.264 C 
BRANCH  28  29
ATOM     29  N   UNL     1      -2.605  -1.510   3.501  0.00  0.00    -0.154 N 
ATOM     30  N   UNL     1      -2.063  -2.220   4.430  0.00  0.00    -0.127 NA
ATOM     31  C   UNL     1      -3.004  -2.530   5.302  0.00  0.00    +0.239 A 
ATOM     32  N   UNL     1      -4.142  -1.980   4.850  0.00  0.00    -0.105 NA
ATOM     33  N   UNL     1      -3.860  -1.367   3.751  0.00  0.00    -0.045 NA
BRANCH  31  34
ATOM     34  C   UNL     1      -2.838  -3.333   6.533  0.00  0.00    +0.175 A 
ATOM     35  C   UNL     1      -3.820  -3.643   7.421  0.00  0.00    +0.053 A 
ATOM     36  C   UNL     1      -3.220  -4.418   8.434  0.00  0.00    +0.045 A 
ATOM     37  C   UNL     1      -1.915  -4.535   8.121  0.00  0.00    +0.103 A 
ATOM     38  O   UNL     1      -1.688  -3.878   6.972  0.00  0.00    -0.457 OA
ATOM     39  C   UNL     1      -0.882  -5.279   8.927  0.00  0.00    +0.086 C 
ENDBRANCH  31  34
ENDBRANCH  28  29
ENDBRANCH   2  28
TORSDOF 12
