REMARK  Name = ZINC03670608
REMARK  7 active torsions:
REMARK  status: ('A' for Active; 'I' for Inactive)
REMARK    1  A    between atoms: C_1  and  C_2
REMARK    2  A    between atoms: C_2  and  C_3
REMARK    3  A    between atoms: C_3  and  C_5
REMARK    4  A    between atoms: C_3  and  N_6
REMARK    5  A    between atoms: C_7  and  C_9
REMARK    6  A    between atoms: C_9  and  O_28
REMARK    7  A    between atoms: N_19  and  C_20
REMARK                            x       y       z     vdW  Elec       q    Type
REMARK                         _______ _______ _______ _____ _____    ______ ____
ROOT
ATOM      1  C   UNL     1       2.395  -1.007   2.303  0.00  0.00    +0.247 C 
ATOM      2  C   UNL     1       2.014  -2.450   2.543  0.00  0.00    +0.034 A 
ATOM      3  C   UNL     1       1.859  -3.331   1.498  0.00  0.00    +0.025 A 
ATOM      4  C   UNL     1       1.509  -4.647   1.755  0.00  0.00    +0.018 A 
ATOM      5  C   UNL     1       1.316  -5.070   3.058  0.00  0.00    +0.017 A 
ATOM      6  C   UNL     1       1.471  -4.186   4.108  0.00  0.00    +0.025 A 
ATOM      7  C   UNL     1       1.822  -2.867   3.855  0.00  0.00    +0.043 A 
ATOM      8  N   UNL     1       1.982  -1.959   4.903  0.00  0.00    -0.269 N 
ATOM      9  C   UNL     1       2.319  -0.677   4.711  0.00  0.00    +0.314 C 
ATOM     10  O   UNL     1       2.437   0.043   5.683  0.00  0.00    -0.252 OA
ATOM     11  N   UNL     1       2.534  -0.149   3.492  0.00  0.00    -0.214 N 
ATOM     12 BR   UNL     1       1.294  -5.865   0.325  0.00  0.00    -0.050 Br
ATOM     13  H   UNL     1       1.843  -2.270   5.811  0.00  0.00    +0.156 HD
ENDROOT
BRANCH  11  14
ATOM     14  C   UNL     1       2.885   1.199   3.356  0.00  0.00    +0.041 A 
ATOM     15  C   UNL     1       4.220   1.562   3.235  0.00  0.00    +0.025 A 
ATOM     16  C   UNL     1       4.563   2.892   3.096  0.00  0.00    +0.022 A 
ATOM     17  C   UNL     1       3.579   3.865   3.087  0.00  0.00    +0.041 A 
ATOM     18  C   UNL     1       2.248   3.507   3.212  0.00  0.00    +0.022 A 
ATOM     19  C   UNL     1       1.899   2.177   3.346  0.00  0.00    +0.025 A 
ATOM     20 CL   UNL     1       4.014   5.537   2.920  0.00  0.00    -0.084 Cl
ENDBRANCH  11  14
BRANCH   1  22
ATOM     21  N   UNL     1       0.083  -0.260   1.842  0.00  0.00    -0.309 N 
ATOM     22  C   UNL     1       1.351  -0.393   1.406  0.00  0.00    +0.269 C 
ATOM     23  O   UNL     1       1.653  -0.019   0.293  0.00  0.00    -0.270 OA
ATOM     24  H   UNL     1      -0.159  -0.559   2.732  0.00  0.00    +0.149 HD
BRANCH  21  25
ATOM     25  C   UNL     1      -0.932   0.337   0.970  0.00  0.00    +0.070 C 
ATOM     26  C   UNL     1      -0.883   1.861   1.098  0.00  0.00    +0.028 C 
BRANCH  25  28
ATOM     27  C   UNL     1      -2.408  -1.672   1.135  0.00  0.00    +0.005 C 
ATOM     28  C   UNL     1      -2.317  -0.165   1.381  0.00  0.00    +0.018 C 
ENDBRANCH  25  28
ENDBRANCH  21  25
ENDBRANCH   1  22
BRANCH   1  29
ATOM     29  O   UNL     1       3.639  -0.991   1.601  0.00  0.00    -0.360 OA
ATOM     30  H   UNL     1       3.628  -1.486   0.770  0.00  0.00    +0.213 HD
ENDBRANCH   1  29
TORSDOF 5
