REMARK  Name = ZINC16693215
REMARK  5 active torsions:
REMARK  status: ('A' for Active; 'I' for Inactive)
REMARK    1  A    between atoms: C_1  and  C_2
REMARK    2  A    between atoms: C_2  and  O_3
REMARK    3  A    between atoms: O_3  and  C_4
REMARK    4  A    between atoms: C_8  and  N_10
REMARK    5  A    between atoms: C_14  and  C_15
REMARK                            x       y       z     vdW  Elec       q    Type
REMARK                         _______ _______ _______ _____ _____    ______ ____
ROOT
ATOM      1  N   UNL     1       7.626  -3.333  -0.407  0.00  0.00    -0.190 N 
ATOM      2  C   UNL     1       6.440  -3.196   0.220  0.00  0.00    +0.263 C 
ATOM      3  O   UNL     1       5.861  -4.162   0.679  0.00  0.00    -0.269 OA
ATOM      4  C   UNL     1       5.862  -1.845   0.329  0.00  0.00    +0.100 C 
ATOM      5  C   UNL     1       4.642  -1.628   0.956  0.00  0.00    +0.028 C 
ATOM      6  C   UNL     1       6.637  -0.734  -0.251  0.00  0.00    +0.257 C 
ATOM      7  O   UNL     1       6.227   0.410  -0.195  0.00  0.00    -0.270 OA
ATOM      8  N   UNL     1       7.814  -1.020  -0.844  0.00  0.00    -0.235 N 
ATOM      9  C   UNL     1       8.278  -2.276  -0.912  0.00  0.00    +0.320 C 
ATOM     10  O   UNL     1       9.345  -2.466  -1.461  0.00  0.00    -0.251 OA
ATOM     11  H   UNL     1       8.337  -0.300  -1.230  0.00  0.00    +0.159 HD
ENDROOT
BRANCH   5  12
ATOM     12  C   UNL     1       4.217  -0.313   1.234  0.00  0.00    +0.001 A 
ATOM     13  C   UNL     1       4.968   0.702   1.802  0.00  0.00    +0.091 A 
ATOM     14  N   UNL     1       4.217   1.813   1.909  0.00  0.00    -0.360 N 
ATOM     15  H   UNL     1       4.528   2.655   2.277  0.00  0.00    +0.165 HD
ATOM     16  C   UNL     1       2.943   1.591   1.422  0.00  0.00    +0.047 A 
ATOM     17  C   UNL     1       2.880   0.261   0.979  0.00  0.00    +0.008 A 
ATOM     18  C   UNL     1       1.702  -0.240   0.435  0.00  0.00    +0.025 A 
ATOM     19  C   UNL     1       0.595   0.578   0.333  0.00  0.00    +0.019 A 
ATOM     20  C   UNL     1       0.656   1.893   0.770  0.00  0.00    +0.017 A 
ATOM     21  C   UNL     1       1.817   2.401   1.311  0.00  0.00    +0.027 A 
ATOM     22 BR   UNL     1      -1.010  -0.097  -0.406  0.00  0.00    -0.050 Br
ENDBRANCH   5  12
BRANCH   1  27
ATOM     23  C   UNL     1       8.488  -6.646  -1.764  0.00  0.00    +0.122 A 
ATOM     24  C   UNL     1       9.317  -7.130  -0.761  0.00  0.00    +0.046 A 
ATOM     25  C   UNL     1       9.581  -6.356   0.353  0.00  0.00    +0.005 A 
ATOM     26  C   UNL     1       9.022  -5.098   0.472  0.00  0.00    +0.024 A 
ATOM     27  C   UNL     1       8.193  -4.609  -0.528  0.00  0.00    +0.049 A 
ATOM     28  C   UNL     1       7.922  -5.386  -1.645  0.00  0.00    +0.069 A 
BRANCH  23  29
ATOM     29  O   UNL     1       8.228  -7.408  -2.858  0.00  0.00    -0.492 OA
BRANCH  29  31
ATOM     30  C   UNL     1       8.435  -9.402  -4.207  0.00  0.00    +0.048 C 
ATOM     31  C   UNL     1       8.841  -8.697  -2.911  0.00  0.00    +0.225 C 
ENDBRANCH  29  31
ENDBRANCH  23  29
ENDBRANCH   1  27
TORSDOF 4
