REMARK  Name = ZINC39670652
REMARK  6 active torsions:
REMARK  status: ('A' for Active; 'I' for Inactive)
REMARK    1  A    between atoms: C_1  and  C_2
REMARK    2  A    between atoms: C_9  and  C_11
REMARK    3  A    between atoms: C_11  and  N_12
REMARK    4  A    between atoms: C_13  and  C_15
REMARK    5  A    between atoms: C_26  and  C_28
REMARK    6  A    between atoms: C_34  and  C_36
REMARK                            x       y       z     vdW  Elec       q    Type
REMARK                         _______ _______ _______ _____ _____    ______ ____
ROOT
ATOM      1  C   UNL     1      -2.943  -1.768   7.103  0.00  0.00    +0.100 C 
ATOM      2  C   UNL     1      -3.767  -0.495   6.801  0.00  0.00    +0.121 C 
ATOM      3  N   UNL     1      -4.634  -0.321   7.990  0.00  0.00    -0.299 N 
ATOM      4  C   UNL     1      -3.766  -0.680   9.136  0.00  0.00    +0.115 C 
ATOM      5  C   UNL     1      -2.944  -1.885   8.636  0.00  0.00    -0.004 C 
ATOM      6  C   UNL     1      -1.518  -1.810   9.173  0.00  0.00    -0.010 C 
ATOM      7  C   UNL     1      -1.540  -1.988  10.694  0.00  0.00    -0.082 C 
ATOM      8  N   UNL     1      -2.143  -3.284  11.028  0.00  0.00    +0.379 N 
ATOM      9  C   UNL     1      -3.544  -3.312  10.591  0.00  0.00    -0.082 C 
ATOM     10  C   UNL     1      -3.607  -3.191   9.065  0.00  0.00    -0.010 C 
ATOM     11  C   UNL     1      -5.922   0.075   8.021  0.00  0.00    +0.236 C 
ATOM     12  O   UNL     1      -6.501   0.171   9.083  0.00  0.00    -0.274 OA
ATOM     13  H   UNL     1      -1.632  -4.021  10.565  0.00  0.00    -0.086 HD
ATOM     14  H   UNL     1      -2.101  -3.425  12.026  0.00  0.00    -0.086 HD
ENDROOT
BRANCH  11  15
ATOM     15  C   UNL     1      -6.643   0.398   6.738  0.00  0.00    +0.162 C 
ATOM     16  C   UNL     1      -6.270   1.821   6.271  0.00  0.00    +0.033 C 
ATOM     17  C   UNL     1      -7.612   2.367   5.715  0.00  0.00    +0.021 C 
ATOM     18  C   UNL     1      -8.635   1.722   6.682  0.00  0.00    +0.109 C 
ATOM     19  N   UNL     1      -8.096   0.375   6.961  0.00  0.00    -0.283 N 
ATOM     20  C   UNL     1      -8.813  -0.697   7.353  0.00  0.00    +0.320 C 
ATOM     21  O   UNL     1      -8.259  -1.757   7.553  0.00  0.00    -0.266 OA
BRANCH  20  22
ATOM     22  C   UNL     1     -10.303  -0.577   7.543  0.00  0.00    +0.470 C 
ATOM     23  F   UNL     1     -10.822  -1.811   7.950  0.00  0.00    -0.162 F 
ATOM     24  F   UNL     1     -10.573   0.387   8.521  0.00  0.00    -0.162 F 
ATOM     25  F   UNL     1     -10.898  -0.196   6.336  0.00  0.00    -0.162 F 
ENDBRANCH  20  22
ENDBRANCH  11  15
BRANCH   1  27
ATOM     26  N   UNL     1      -0.833  -2.702   6.213  0.00  0.00    -0.309 N 
ATOM     27  C   UNL     1      -1.535  -1.615   6.589  0.00  0.00    +0.219 C 
ATOM     28  O   UNL     1      -1.032  -0.513   6.514  0.00  0.00    -0.275 OA
ATOM     29  H   UNL     1      -1.234  -3.583   6.273  0.00  0.00    +0.149 HD
BRANCH  26  30
ATOM     30  C   UNL     1       0.536  -2.554   5.714  0.00  0.00    +0.159 C 
BRANCH  30  39
ATOM     31  C   UNL     1       1.539  -6.503   1.903  0.00  0.00    +0.064 C 
ATOM     32  C   UNL     1       1.944  -6.685   3.343  0.00  0.00    +0.022 A 
ATOM     33  C   UNL     1       2.567  -7.820   3.724  0.00  0.00    +0.021 A 
ATOM     34  C   UNL     1       2.950  -8.004   5.063  0.00  0.00    +0.005 A 
ATOM     35  C   UNL     1       2.691  -7.030   5.977  0.00  0.00    +0.045 A 
ATOM     36  C   UNL     1       2.041  -5.850   5.564  0.00  0.00    +0.116 A 
ATOM     37  N   UNL     1       1.683  -5.698   4.249  0.00  0.00    -0.305 N 
ATOM     38  C   UNL     1       1.084  -4.473   4.136  0.00  0.00    +0.115 A 
ATOM     39  C   UNL     1       1.093  -3.910   5.364  0.00  0.00    +0.051 A 
ATOM     40  N   UNL     1       1.669  -4.760   6.219  0.00  0.00    -0.342 N 
ATOM     41  H   UNL     1       1.802  -4.600   7.166  0.00  0.00    +0.167 HD
ENDBRANCH  30  39
ENDBRANCH  26  30
ENDBRANCH   1  27
TORSDOF 5
