REMARK  Name = ZINC28063959
REMARK  7 active torsions:
REMARK  status: ('A' for Active; 'I' for Inactive)
REMARK    1  A    between atoms: C_1  and  C_2
REMARK    2  A    between atoms: C_9  and  C_30
REMARK    3  A    between atoms: C_10  and  N_11
REMARK    4  A    between atoms: C_12  and  C_14
REMARK    5  A    between atoms: N_19  and  S_21
REMARK    6  A    between atoms: S_21  and  C_24
REMARK    7  A    between atoms: C_27  and  C_29
REMARK                            x       y       z     vdW  Elec       q    Type
REMARK                         _______ _______ _______ _____ _____    ______ ____
ROOT
ATOM      1  N   UNL     1      -0.016   1.344   0.009  0.00  0.00    -0.269 N 
ATOM      2  C   UNL     1       0.071   0.005   0.138  0.00  0.00    +0.223 C 
ATOM      3  O   UNL     1      -0.927  -0.650   0.354  0.00  0.00    -0.275 OA
ATOM      4  H   UNL     1       0.898   1.948  -0.083  0.00  0.00    +0.156 HD
ENDROOT
BRANCH   1  14
ATOM      5  C   UNL     1      -5.830   3.110  -0.516  0.00  0.00    +0.047 C 
ATOM      6  C   UNL     1      -4.740   2.086  -0.699  0.00  0.00    -0.008 A 
ATOM      7  C   UNL     1      -5.021   0.875  -1.250  0.00  0.00    +0.008 A 
ATOM      8  C   UNL     1      -3.996  -0.072  -1.415  0.00  0.00    +0.018 A 
ATOM      9  C   UNL     1      -2.736   0.214  -1.030  0.00  0.00    +0.094 A 
ATOM     10  N   UNL     1      -2.436   1.427  -0.474  0.00  0.00    -0.287 N 
ATOM     11  C   UNL     1      -3.418   2.374  -0.300  0.00  0.00    +0.143 A 
ATOM     12  N   UNL     1      -2.875   3.448   0.252  0.00  0.00    -0.226 NA
ATOM     13  C   UNL     1      -1.563   3.230   0.450  0.00  0.00    +0.112 A 
ATOM     14  C   UNL     1      -1.267   1.963  -0.007  0.00  0.00    +0.137 A 
BRANCH  13  15
ATOM     15  C   UNL     1      -0.603   4.185   1.051  0.00  0.00    +0.004 A 
ATOM     16  C   UNL     1       0.438   3.720   1.854  0.00  0.00    +0.010 A 
ATOM     17  C   UNL     1       1.332   4.614   2.406  0.00  0.00    +0.001 A 
ATOM     18  C   UNL     1       1.191   5.970   2.175  0.00  0.00    +0.000 A 
ATOM     19  C   UNL     1       0.157   6.439   1.384  0.00  0.00    +0.001 A 
ATOM     20  C   UNL     1      -0.740   5.554   0.821  0.00  0.00    +0.010 A 
ENDBRANCH  13  15
ENDBRANCH   1  14
BRANCH   2  21
ATOM     21  C   UNL     1       1.409  -0.678   0.014  0.00  0.00    +0.091 C 
ATOM     22  C   UNL     1       1.998  -0.401  -1.371  0.00  0.00    +0.015 C 
ATOM     23  C   UNL     1       3.371  -1.067  -1.487  0.00  0.00    +0.018 C 
ATOM     24  C   UNL     1       3.214  -2.582  -1.322  0.00  0.00    +0.109 C 
ATOM     25  N   UNL     1       2.518  -2.851  -0.057  0.00  0.00    -0.175 NA
ATOM     26  C   UNL     1       1.230  -2.189   0.195  0.00  0.00    +0.122 C 
BRANCH  25  27
ATOM     27  S   UNL     1       3.171  -3.880   1.064  0.00  0.00    +0.067 S 
ATOM     28  O   UNL     1       2.091  -4.362   1.851  0.00  0.00    -0.152 OA
ATOM     29  O   UNL     1       4.045  -4.749   0.357  0.00  0.00    -0.152 OA
BRANCH  27  30
ATOM     30  C   UNL     1       4.181  -2.911   2.134  0.00  0.00    +0.143 A 
ATOM     31  C   UNL     1       3.843  -2.274   3.282  0.00  0.00    +0.036 A 
ATOM     32  C   UNL     1       4.814  -1.567   3.967  0.00  0.00    +0.013 A 
ATOM     33  C   UNL     1       6.072  -1.523   3.465  0.00  0.00    -0.011 A 
ATOM     34  S   UNL     1       5.914  -2.508   1.985  0.00  0.00    -0.074 S 
ATOM     35  C   UNL     1       7.289  -0.825   4.015  0.00  0.00    +0.051 C 
ENDBRANCH  27  30
ENDBRANCH  25  27
ENDBRANCH   2  21
TORSDOF 5
