REMARK  Name = ZINC21078231
REMARK  10 active torsions:
REMARK  status: ('A' for Active; 'I' for Inactive)
REMARK    1  A    between atoms: C_1  and  C_2
REMARK    2  A    between atoms: C_2  and  C_3
REMARK    3  A    between atoms: C_2  and  C_4
REMARK    4  A    between atoms: C_2  and  C_5
REMARK    5  A    between atoms: C_8  and  N_11
REMARK    6  A    between atoms: C_12  and  C_14
REMARK    7  A    between atoms: C_14  and  S_15
REMARK    8  A    between atoms: S_15  and  C_16
REMARK    9  A    between atoms: N_21  and  N_22
REMARK   10  A    between atoms: C_23  and  C_24
REMARK                            x       y       z     vdW  Elec       q    Type
REMARK                         _______ _______ _______ _____ _____    ______ ____
ROOT
ATOM      1  C   UNL     1       3.989  -6.564  -0.530  0.00  0.00    +0.211 A 
ATOM      2  N   UNL     1       5.021  -7.451  -0.657  0.00  0.00    -0.186 NA
ATOM      3  C   UNL     1       4.490  -8.709  -0.729  0.00  0.00    +0.232 A 
ATOM      4  N   UNL     1       3.186  -8.604  -0.649  0.00  0.00    -0.245 N 
ATOM      5  N   UNL     1       2.868  -7.245  -0.518  0.00  0.00    -0.144 NA
ATOM      6  N   UNL     1       5.206  -9.890  -0.862  0.00  0.00    -0.205 N 
ATOM      7  H   UNL     1       6.304  -9.864  -0.920  0.00  0.00    +0.177 HD
ATOM      8  H   UNL     1       2.558  -9.506  -0.690  0.00  0.00    +0.192 HD
ENDROOT
BRANCH   6   9
ATOM      9  N   UNL     1       4.531 -11.116  -0.923  0.00  0.00    -0.188 NA
ATOM     10  C   UNL     1       5.201 -12.221  -1.048  0.00  0.00    +0.138 C 
BRANCH  10  11
ATOM     11  C   UNL     1       4.490 -13.511  -1.112  0.00  0.00    -0.005 A 
ATOM     12  C   UNL     1       3.096 -13.549  -1.033  0.00  0.00    +0.010 A 
ATOM     13  C   UNL     1       2.437 -14.758  -1.099  0.00  0.00    +0.016 A 
ATOM     14  C   UNL     1       3.155 -15.935  -1.232  0.00  0.00    +0.018 A 
ATOM     15  C   UNL     1       4.537 -15.905  -1.305  0.00  0.00    +0.016 A 
ATOM     16  C   UNL     1       5.209 -14.702  -1.246  0.00  0.00    +0.010 A 
ATOM     17 BR   UNL     1       2.243 -17.590  -1.313  0.00  0.00    -0.050 Br
ENDBRANCH  10  11
ENDBRANCH   6   9
BRANCH   1  18
ATOM     18  S   UNL     1       4.139  -4.814  -0.398  0.00  0.00    -0.075 S 
BRANCH  18  19
ATOM     19  C   UNL     1       2.425  -4.236  -0.258  0.00  0.00    +0.173 C 
BRANCH  19  21
ATOM     20  N   UNL     1       1.237  -2.079  -0.020  0.00  0.00    -0.285 N 
ATOM     21  C   UNL     1       2.410  -2.734  -0.137  0.00  0.00    +0.227 C 
ATOM     22  O   UNL     1       3.452  -2.114  -0.144  0.00  0.00    -0.275 OA
ATOM     23  H   UNL     1       0.298  -2.645   0.073  0.00  0.00    +0.155 HD
BRANCH  20  27
ATOM     24  C   UNL     1       1.168   2.086  -0.017  0.00  0.00    -0.042 A 
ATOM     25  C   UNL     1       2.111   1.412  -0.771  0.00  0.00    +0.006 A 
ATOM     26  C   UNL     1       2.137   0.031  -0.774  0.00  0.00    +0.023 A 
ATOM     27  C   UNL     1       1.214  -0.680  -0.019  0.00  0.00    +0.033 A 
ATOM     28  C   UNL     1       0.268  -0.001   0.737  0.00  0.00    +0.023 A 
ATOM     29  C   UNL     1       0.248   1.380   0.736  0.00  0.00    +0.006 A 
BRANCH  24  31
ATOM     30  C   UNL     1       0.910   4.100  -1.440  0.00  0.00    +0.015 C 
ATOM     31  C   UNL     1       1.143   3.593  -0.015  0.00  0.00    -0.013 C 
ATOM     32  C   UNL     1       0.013   4.083   0.892  0.00  0.00    +0.015 C 
ATOM     33  C   UNL     1       2.481   4.125   0.503  0.00  0.00    +0.015 C 
ENDBRANCH  24  31
ENDBRANCH  20  27
ENDBRANCH  19  21
ENDBRANCH  18  19
ENDBRANCH   1  18
TORSDOF 7
