REMARK  Name = ZINC02618819
REMARK  6 active torsions:
REMARK  status: ('A' for Active; 'I' for Inactive)
REMARK    1  A    between atoms: C_1  and  C_2
REMARK    2  A    between atoms: C_2  and  C_4
REMARK    3  A    between atoms: C_2  and  S_18
REMARK    4  A    between atoms: C_9  and  C_12
REMARK    5  A    between atoms: S_18  and  C_19
REMARK    6  A    between atoms: C_25  and  C_30
REMARK                            x       y       z     vdW  Elec       q    Type
REMARK                         _______ _______ _______ _____ _____    ______ ____
ROOT
ATOM      1  S   UNL     1       2.652   4.210  -0.722  0.00  0.00    -0.075 S 
ENDROOT
BRANCH   1   2
ATOM      2  C   UNL     1       2.304   5.937  -0.725  0.00  0.00    +0.171 A 
ATOM      3  N   UNL     1       3.234   6.811  -1.208  0.00  0.00    -0.301 N 
ATOM      4  H   UNL     1       4.077   6.471  -1.545  0.00  0.00    +0.171 HD
ATOM      5  C   UNL     1       3.000   8.136  -1.232  0.00  0.00    +0.261 A 
ATOM      6  O   UNL     1       3.839   8.903  -1.672  0.00  0.00    -0.267 OA
ATOM      7  C   UNL     1       1.758   8.633  -0.728  0.00  0.00    +0.080 A 
ATOM      8  C   UNL     1       1.283  10.011  -0.644  0.00  0.00    +0.004 A 
ATOM      9  C   UNL     1       0.056  10.246  -0.124  0.00  0.00    +0.056 A 
ATOM     10  S   UNL     1      -0.539   8.617   0.286  0.00  0.00    -0.076 S 
ATOM     11  C   UNL     1       0.861   7.665  -0.245  0.00  0.00    +0.117 A 
ATOM     12  N   UNL     1       1.151   6.369  -0.255  0.00  0.00    -0.216 NA
BRANCH   8  13
ATOM     13  C   UNL     1       2.130  11.131  -1.118  0.00  0.00    -0.017 A 
ATOM     14  C   UNL     1       3.454  11.237  -0.694  0.00  0.00    +0.008 A 
ATOM     15  C   UNL     1       4.239  12.278  -1.144  0.00  0.00    +0.001 A 
ATOM     16  C   UNL     1       3.711  13.224  -2.005  0.00  0.00    +0.000 A 
ATOM     17  C   UNL     1       2.396  13.129  -2.424  0.00  0.00    +0.001 A 
ATOM     18  C   UNL     1       1.603  12.088  -1.986  0.00  0.00    +0.008 A 
ENDBRANCH   8  13
ENDBRANCH   1   2
BRANCH   1  20
ATOM     19  C   UNL     1       1.002   4.082   1.452  0.00  0.00    +0.029 C 
ATOM     20  C   UNL     1       1.121   3.582   0.011  0.00  0.00    +0.137 C 
BRANCH  20  21
ATOM     21  C   UNL     1       1.141   2.075   0.002  0.00  0.00    +0.232 C 
ATOM     22  O   UNL     1       2.200   1.483  -0.011  0.00  0.00    -0.274 OA
ATOM     23  N   UNL     1      -0.017   1.385   0.010  0.00  0.00    -0.264 N 
ATOM     24  C   UNL     1       0.002  -0.004   0.002  0.00  0.00    +0.165 A 
ATOM     25  N   UNL     1      -1.008  -0.853   0.007  0.00  0.00    -0.225 NA
ATOM     26  C   UNL     1      -0.807  -2.162  -0.003  0.00  0.00    +0.080 A 
ATOM     27  C   UNL     1       0.472  -2.644  -0.018  0.00  0.00    +0.076 A 
ATOM     28  S   UNL     1       1.401  -1.116  -0.025  0.00  0.00    -0.060 S 
ATOM     29  H   UNL     1      -0.863   1.859   0.016  0.00  0.00    +0.157 HD
BRANCH  26  30
ATOM     30  C   UNL     1      -1.959  -3.097   0.004  0.00  0.00    +0.001 A 
ATOM     31  C   UNL     1      -1.742  -4.474  -0.011  0.00  0.00    +0.010 A 
ATOM     32  C   UNL     1      -2.818  -5.339   0.000  0.00  0.00    +0.001 A 
ATOM     33  C   UNL     1      -4.109  -4.841   0.016  0.00  0.00    +0.000 A 
ATOM     34  C   UNL     1      -4.329  -3.476   0.026  0.00  0.00    +0.001 A 
ATOM     35  C   UNL     1      -3.262  -2.602   0.020  0.00  0.00    +0.010 A 
ENDBRANCH  26  30
ENDBRANCH  20  21
ENDBRANCH   1  20
TORSDOF 5
