REMARK  Name = ZINC60243415
REMARK  7 active torsions:
REMARK  status: ('A' for Active; 'I' for Inactive)
REMARK    1  A    between atoms: C_1  and  C_2
REMARK    2  A    between atoms: N_11  and  C_15
REMARK    3  A    between atoms: C_15  and  C_16
REMARK    4  A    between atoms: N_18  and  C_19
REMARK    5  A    between atoms: C_19  and  C_21
REMARK    6  A    between atoms: C_19  and  C_22
REMARK    7  A    between atoms: C_24  and  C_27
REMARK                            x       y       z     vdW  Elec       q    Type
REMARK                         _______ _______ _______ _____ _____    ______ ____
ROOT
ATOM      1  C   UNL     1       3.277   2.951   2.373  0.00  0.00    +0.232 C 
ATOM      2  O   UNL     1       2.353   3.293   1.666  0.00  0.00    -0.274 OA
ATOM      3  N   UNL     1       4.255   3.827   2.674  0.00  0.00    -0.303 N 
ATOM      4  H   UNL     1       4.995   3.554   3.240  0.00  0.00    +0.149 HD
ENDROOT
BRANCH   3   5
ATOM      5  C   UNL     1       4.202   5.194   2.148  0.00  0.00    +0.159 C 
ATOM      6  C   UNL     1       3.342   6.062   3.068  0.00  0.00    +0.038 C 
BRANCH   5   7
ATOM      7  C   UNL     1       5.597   5.761   2.081  0.00  0.00    +0.248 A 
ATOM      8  N   UNL     1       6.101   6.426   1.081  0.00  0.00    -0.190 NA
ATOM      9  C   UNL     1       7.368   6.783   1.357  0.00  0.00    +0.202 A 
ATOM     10  N   UNL     1       7.678   6.338   2.551  0.00  0.00    -0.056 NA
ATOM     11  O   UNL     1       6.525   5.670   3.042  0.00  0.00    -0.336 OA
BRANCH   9  12
ATOM     12  C   UNL     1       8.266   7.551   0.461  0.00  0.00    +0.023 A 
ATOM     13  C   UNL     1       7.813   7.973  -0.788  0.00  0.00    +0.014 A 
ATOM     14  C   UNL     1       8.651   8.688  -1.619  0.00  0.00    +0.039 A 
ATOM     15  C   UNL     1       9.942   8.986  -1.213  0.00  0.00    +0.123 A 
ATOM     16  C   UNL     1      10.397   8.568   0.027  0.00  0.00    +0.039 A 
ATOM     17  C   UNL     1       9.564   7.858   0.866  0.00  0.00    +0.014 A 
ATOM     18  F   UNL     1      10.759   9.687  -2.030  0.00  0.00    -0.205 F 
ENDBRANCH   9  12
ENDBRANCH   5   7
ENDBRANCH   3   5
BRANCH   1  19
ATOM     19  C   UNL     1       3.332   1.546   2.915  0.00  0.00    +0.213 C 
BRANCH  19  29
ATOM     20  C   UNL     1      -0.019   1.526   0.010  0.00  0.00    +0.010 C 
ATOM     21  C   UNL     1       0.002  -0.004   0.002  0.00  0.00    +0.018 C 
ATOM     22  C   UNL     1       0.718  -0.497  -1.258  0.00  0.00    +0.006 C 
ATOM     23  C   UNL     1       0.756  -2.027  -1.256  0.00  0.00    +0.000 C 
ATOM     24  C   UNL     1       1.519  -2.517  -0.023  0.00  0.00    +0.003 C 
ATOM     25  C   UNL     1       0.807  -2.032   1.242  0.00  0.00    +0.035 C 
ATOM     26  C   UNL     1       0.739  -0.509   1.238  0.00  0.00    +0.115 C 
ATOM     27  C   UNL     1       2.128   0.083   1.303  0.00  0.00    +0.247 C 
ATOM     28  O   UNL     1       3.022  -0.055   0.496  0.00  0.00    -0.273 OA
ATOM     29  N   UNL     1       2.163   0.796   2.447  0.00  0.00    -0.215 N 
ATOM     30  C   UNL     1       0.998   0.734   3.103  0.00  0.00    +0.310 C 
ATOM     31  O   UNL     1       0.786   1.296   4.159  0.00  0.00    -0.252 OA
ATOM     32  N   UNL     1       0.086  -0.021   2.460  0.00  0.00    -0.285 N 
ATOM     33  H   UNL     1      -0.822  -0.205   2.747  0.00  0.00    +0.151 HD
ENDBRANCH  19  29
ENDBRANCH   1  19
TORSDOF 5
