REMARK  Name = ZINC23118958
REMARK  10 active torsions:
REMARK  status: ('A' for Active; 'I' for Inactive)
REMARK    1  A    between atoms: C_1  and  C_2
REMARK    2  A    between atoms: C_2  and  C_3
REMARK    3  A    between atoms: C_6  and  N_9
REMARK    4  A    between atoms: C_10  and  C_12
REMARK    5  A    between atoms: C_12  and  S_13
REMARK    6  A    between atoms: S_13  and  C_14
REMARK    7  A    between atoms: N_22  and  C_26
REMARK    8  A    between atoms: C_29  and  O_32
REMARK    9  A    between atoms: O_32  and  C_33
REMARK   10  A    between atoms: C_33  and  C_34
REMARK                            x       y       z     vdW  Elec       q    Type
REMARK                         _______ _______ _______ _____ _____    ______ ____
ROOT
ATOM      1  C   UNL     1       0.115   0.979  -2.723  0.00  0.00    +0.172 A 
ATOM      2  N   UNL     1      -0.222   1.202  -4.025  0.00  0.00    -0.301 N 
ATOM      3  H   UNL     1      -1.106   1.809  -4.268  0.00  0.00    +0.171 HD
ATOM      4  C   UNL     1       0.549   0.666  -5.002  0.00  0.00    +0.268 A 
ATOM      5  O   UNL     1       0.283   0.847  -6.180  0.00  0.00    -0.267 OA
ATOM      6  C   UNL     1       1.647  -0.098  -4.629  0.00  0.00    +0.122 A 
ATOM      7  C   UNL     1       1.970  -0.318  -3.288  0.00  0.00    +0.161 A 
ATOM      8  N   UNL     1       1.151   0.258  -2.374  0.00  0.00    -0.204 NA
ATOM      9  N   UNL     1       3.080  -1.091  -3.055  0.00  0.00    -0.282 N 
ATOM     10  C   UNL     1       3.799  -1.596  -4.078  0.00  0.00    +0.132 A 
ATOM     11  S   UNL     1       5.204  -2.574  -4.025  0.00  0.00    -0.024 S 
ATOM     12  S   UNL     1       2.912  -0.983  -5.502  0.00  0.00    -0.055 S 
ENDROOT
BRANCH   9  13
ATOM     13  C   UNL     1       3.472  -1.358  -1.735  0.00  0.00    +0.050 A 
ATOM     14  C   UNL     1       3.902  -0.324  -0.915  0.00  0.00    +0.030 A 
ATOM     15  C   UNL     1       4.284  -0.587   0.386  0.00  0.00    +0.047 A 
ATOM     16  C   UNL     1       4.246  -1.886   0.871  0.00  0.00    +0.121 A 
ATOM     17  C   UNL     1       3.821  -2.921   0.050  0.00  0.00    +0.047 A 
ATOM     18  C   UNL     1       3.434  -2.658  -1.249  0.00  0.00    +0.030 A 
BRANCH  16  19
ATOM     19  O   UNL     1       4.627  -2.146   2.150  0.00  0.00    -0.492 OA
BRANCH  19  20
ATOM     20  C   UNL     1       5.053  -1.032   2.938  0.00  0.00    +0.225 C 
ATOM     21  C   UNL     1       5.439  -1.516   4.337  0.00  0.00    +0.048 C 
ENDBRANCH  19  20
ENDBRANCH  16  19
ENDBRANCH   9  13
BRANCH   1  22
ATOM     22  S   UNL     1      -0.889   1.683  -1.458  0.00  0.00    -0.078 S 
BRANCH  22  23
ATOM     23  C   UNL     1      -0.016   1.080   0.008  0.00  0.00    +0.173 C 
BRANCH  23  25
ATOM     24  N   UNL     1      -0.242   1.246   2.466  0.00  0.00    -0.285 N 
ATOM     25  C   UNL     1      -0.717   1.573   1.248  0.00  0.00    +0.227 C 
ATOM     26  O   UNL     1      -1.709   2.264   1.150  0.00  0.00    -0.275 OA
ATOM     27  H   UNL     1       0.612   0.558   2.557  0.00  0.00    +0.155 HD
BRANCH  24  31
ATOM     28  C   UNL     1      -2.003   2.842   5.887  0.00  0.00    -0.048 A 
ATOM     29  C   UNL     1      -2.784   2.535   4.788  0.00  0.00    +0.005 A 
ATOM     30  C   UNL     1      -2.203   2.006   3.652  0.00  0.00    +0.023 A 
ATOM     31  C   UNL     1      -0.833   1.782   3.615  0.00  0.00    +0.033 A 
ATOM     32  C   UNL     1      -0.053   2.086   4.722  0.00  0.00    +0.023 A 
ATOM     33  C   UNL     1      -0.639   2.620   5.853  0.00  0.00    +0.005 A 
BRANCH  28  35
ATOM     34  C   UNL     1      -3.060   2.283   8.060  0.00  0.00    +0.009 C 
ATOM     35  C   UNL     1      -2.641   3.419   7.125  0.00  0.00    +0.032 C 
ENDBRANCH  28  35
ENDBRANCH  24  31
ENDBRANCH  23  25
ENDBRANCH  22  23
ENDBRANCH   1  22
TORSDOF 8
