REMARK  Name = ZINC38936026
REMARK  4 active torsions:
REMARK  status: ('A' for Active; 'I' for Inactive)
REMARK    1  A    between atoms: C_1  and  C_2
REMARK    2  A    between atoms: C_5  and  C_7
REMARK    3  A    between atoms: N_8  and  N_9
REMARK    4  A    between atoms: C_10  and  C_16
REMARK                            x       y       z     vdW  Elec       q    Type
REMARK                         _______ _______ _______ _____ _____    ______ ____
ROOT
ATOM      1  N   UNL     1       2.834  -5.527   0.066  0.00  0.00    -0.172 N 
ATOM      2  C   UNL     1       4.244  -5.944   0.182  0.00  0.00    +0.264 C 
ATOM      3  N   UNL     1       4.173  -7.411   0.247  0.00  0.00    -0.189 NA
ATOM      4  N   UNL     1       2.986  -7.742   0.181  0.00  0.00    -0.219 N 
ATOM      5  C   UNL     1       2.137  -6.685   0.079  0.00  0.00    +0.174 C 
ATOM      6  S   UNL     1       0.432  -6.804  -0.023  0.00  0.00    -0.015 S 
ATOM      7  H   UNL     1       2.688  -8.664   0.204  0.00  0.00    +0.176 HD
ENDROOT
BRANCH   2   8
ATOM      8  C   UNL     1       4.859  -5.384   1.439  0.00  0.00    -0.002 A 
ATOM      9  C   UNL     1       4.406  -4.185   1.955  0.00  0.00    +0.007 A 
ATOM     10  C   UNL     1       4.970  -3.672   3.108  0.00  0.00    +0.000 A 
ATOM     11  C   UNL     1       5.986  -4.359   3.746  0.00  0.00    +0.000 A 
ATOM     12  C   UNL     1       6.438  -5.559   3.230  0.00  0.00    +0.000 A 
ATOM     13  C   UNL     1       5.871  -6.074   2.079  0.00  0.00    +0.007 A 
ENDBRANCH   2   8
BRANCH   1  15
ATOM     14  C   UNL     1       1.059  -4.031  -0.236  0.00  0.00    +0.145 C 
ATOM     15  N   UNL     1       2.330  -4.223  -0.031  0.00  0.00    -0.183 NA
BRANCH  14  20
ATOM     16  C   UNL     1      -0.094   1.471  -0.040  0.00  0.00    +0.051 C 
ATOM     17  C   UNL     1      -0.045  -0.032  -0.139  0.00  0.00    -0.013 A 
ATOM     18  C   UNL     1      -1.060  -0.904  -0.376  0.00  0.00    +0.011 A 
ATOM     19  C   UNL     1      -0.792  -2.252  -0.427  0.00  0.00    +0.017 A 
ATOM     20  C   UNL     1       0.514  -2.670  -0.232  0.00  0.00    +0.032 A 
ATOM     21  S   UNL     1       1.362  -1.119   0.017  0.00  0.00    -0.093 S 
ENDBRANCH  14  20
ENDBRANCH   1  15
TORSDOF 3
