REMARK  Name = ZINC38980715
REMARK  8 active torsions:
REMARK  status: ('A' for Active; 'I' for Inactive)
REMARK    1  A    between atoms: C_1  and  O_2
REMARK    2  A    between atoms: O_2  and  C_3
REMARK    3  A    between atoms: C_5  and  O_31
REMARK    4  A    between atoms: C_8  and  N_9
REMARK    5  A    between atoms: N_9  and  C_10
REMARK    6  A    between atoms: N_13  and  S_14
REMARK    7  A    between atoms: S_14  and  C_17
REMARK    8  A    between atoms: O_31  and  C_32
REMARK                            x       y       z     vdW  Elec       q    Type
REMARK                         _______ _______ _______ _____ _____    ______ ____
ROOT
ATOM      1  C   UNL     1      -0.126  -4.239   0.091  0.00  0.00    +0.235 C 
ATOM      2  C   UNL     1       0.765  -4.654   1.240  0.00  0.00    +0.170 C 
ATOM      3  N   UNL     1       0.555  -4.195   2.438  0.00  0.00    -0.111 NA
ATOM      4  N   UNL     1       1.777  -5.505   1.004  0.00  0.00    -0.338 N 
ATOM      5  C   UNL     1       2.011  -5.984  -0.200  0.00  0.00    +0.064 A 
ATOM      6  C   UNL     1       3.089  -6.880  -0.412  0.00  0.00    +0.028 A 
ATOM      7  C   UNL     1       3.333  -7.374  -1.645  0.00  0.00    +0.002 A 
ATOM      8  C   UNL     1       2.555  -7.040  -2.766  0.00  0.00    +0.002 A 
ATOM      9  C   UNL     1       1.505  -6.195  -2.675  0.00  0.00    +0.027 A 
ATOM     10  C   UNL     1       1.172  -5.613  -1.366  0.00  0.00    +0.061 A 
ATOM     11  N   UNL     1       0.166  -4.795  -1.240  0.00  0.00    -0.359 N 
ATOM     12  H   UNL     1      -0.379  -4.557  -2.007  0.00  0.00    +0.162 HD
ATOM     13  H   UNL     1       2.350  -5.773   1.739  0.00  0.00    +0.167 HD
ENDROOT
BRANCH   3  14
ATOM     14  S   UNL     1       1.539  -4.658   3.687  0.00  0.00    +0.107 S 
ATOM     15  O   UNL     1       1.318  -6.048   3.884  0.00  0.00    -0.146 OA
ATOM     16  O   UNL     1       2.825  -4.122   3.410  0.00  0.00    -0.146 OA
BRANCH  14  17
ATOM     17  C   UNL     1       0.956  -3.845   5.138  0.00  0.00    +0.150 A 
ATOM     18  C   UNL     1       0.041  -4.268   6.043  0.00  0.00    +0.037 A 
ATOM     19  C   UNL     1      -0.264  -3.454   7.118  0.00  0.00    +0.010 A 
ATOM     20  C   UNL     1       0.361  -2.257   7.234  0.00  0.00    +0.047 A 
ATOM     21  S   UNL     1       1.424  -2.255   5.800  0.00  0.00    -0.076 S 
ENDBRANCH  14  17
ENDBRANCH   3  14
BRANCH   1  22
ATOM     22  N   UNL     1      -0.071  -2.779  -0.012  0.00  0.00    -0.315 N 
ATOM     23  H   UNL     1       0.786  -2.327  -0.055  0.00  0.00    +0.149 HD
BRANCH  22  29
ATOM     24  C   UNL     1      -1.209  -0.642  -0.008  0.00  0.00    +0.144 A 
ATOM     25  C   UNL     1      -2.383   0.092  -0.051  0.00  0.00    +0.094 A 
ATOM     26  C   UNL     1      -3.605  -0.559  -0.129  0.00  0.00    +0.142 A 
ATOM     27  C   UNL     1      -3.653  -1.945  -0.164  0.00  0.00    +0.084 A 
ATOM     28  C   UNL     1      -2.483  -2.681  -0.121  0.00  0.00    +0.050 A 
ATOM     29  C   UNL     1      -1.258  -2.033  -0.050  0.00  0.00    +0.073 A 
ATOM     30 CL   UNL     1      -5.184  -2.757  -0.262  0.00  0.00    -0.080 Cl
BRANCH  24  32
ATOM     31  C   UNL     1      -0.035   1.423   0.107  0.00  0.00    +0.277 C 
ATOM     32  O   UNL     1      -0.010  -0.005   0.068  0.00  0.00    -0.493 OA
ENDBRANCH  24  32
BRANCH  26  33
ATOM     33  O   UNL     1      -4.757   0.162  -0.171  0.00  0.00    -0.494 OA
ATOM     34  C   UNL     1      -4.634   1.585  -0.130  0.00  0.00    +0.277 C 
ENDBRANCH  26  33
ENDBRANCH  22  29
ENDBRANCH   1  22
TORSDOF 6
