REMARK  Name = ZINC67605212
REMARK  6 active torsions:
REMARK  status: ('A' for Active; 'I' for Inactive)
REMARK    1  A    between atoms: C_1  and  C_2
REMARK    2  A    between atoms: C_3  and  C_7
REMARK    3  A    between atoms: C_7  and  C_8
REMARK    4  A    between atoms: N_10  and  C_11
REMARK    5  A    between atoms: N_10  and  C_12
REMARK    6  A    between atoms: C_12  and  C_13
REMARK                            x       y       z     vdW  Elec       q    Type
REMARK                         _______ _______ _______ _____ _____    ______ ____
ROOT
ATOM      1  C   UNL     1       3.019   0.521  -4.767  0.00  0.00    +0.181 C 
ENDROOT
BRANCH   1   2
ATOM      2  C   UNL     1       3.507  -0.754  -5.406  0.00  0.00    +0.126 A 
ATOM      3  N   UNL     1       3.470  -1.021  -6.739  0.00  0.00    -0.341 N 
ATOM      4  H   UNL     1       3.131  -0.435  -7.434  0.00  0.00    +0.167 HD
ATOM      5  C   UNL     1       4.006  -2.281  -6.921  0.00  0.00    +0.066 A 
ATOM      6  C   UNL     1       4.231  -3.083  -8.031  0.00  0.00    +0.029 A 
ATOM      7  C   UNL     1       4.799  -4.328  -7.874  0.00  0.00    +0.022 A 
ATOM      8  C   UNL     1       5.149  -4.788  -6.610  0.00  0.00    +0.043 A 
ATOM      9  C   UNL     1       4.933  -4.006  -5.498  0.00  0.00    +0.050 A 
ATOM     10  C   UNL     1       4.358  -2.740  -5.641  0.00  0.00    +0.091 A 
ATOM     11  N   UNL     1       4.031  -1.756  -4.763  0.00  0.00    -0.231 NA
ATOM     12 CL   UNL     1       5.862  -6.361  -6.433  0.00  0.00    -0.083 Cl
ENDBRANCH   1   2
BRANCH   1  15
ATOM     13  C   UNL     1       1.409  -0.114  -3.051  0.00  0.00    +0.222 C 
ATOM     14  O   UNL     1       2.338  -0.366  -2.314  0.00  0.00    -0.275 OA
ATOM     15  N   UNL     1       1.642   0.336  -4.300  0.00  0.00    -0.297 N 
ATOM     16  C   UNL     1       0.520   0.641  -5.190  0.00  0.00    +0.132 C 
BRANCH  13  17
ATOM     17  C   UNL     1      -0.007  -0.304  -2.571  0.00  0.00    +0.156 C 
BRANCH  17  20
ATOM     18  C   UNL     1      -0.018   1.503   0.010  0.00  0.00    +0.071 C 
ATOM     19  C   UNL     1       0.002  -0.004   0.002  0.00  0.00    +0.105 A 
ATOM     20  C   UNL     1       0.008  -0.812  -1.152  0.00  0.00    +0.116 A 
ATOM     21  N   UNL     1       0.027  -2.063  -0.803  0.00  0.00    -0.053 NA
ATOM     22  O   UNL     1       0.035  -2.108   0.615  0.00  0.00    -0.242 OA
ATOM     23  N   UNL     1       0.023  -0.761   1.058  0.00  0.00    -0.054 NA
ENDBRANCH  17  20
ENDBRANCH  13  17
ENDBRANCH   1  15
TORSDOF 4
