REMARK  Name = ZINC24344746
REMARK  8 active torsions:
REMARK  status: ('A' for Active; 'I' for Inactive)
REMARK    1  A    between atoms: C_1  and  C_2
REMARK    2  A    between atoms: C_7  and  C_9
REMARK    3  A    between atoms: C_7  and  C_10
REMARK    4  A    between atoms: N_13  and  C_17
REMARK    5  A    between atoms: C_17  and  C_18
REMARK    6  A    between atoms: N_20  and  C_21
REMARK    7  A    between atoms: N_25  and  C_26
REMARK    8  A    between atoms: C_26  and  C_27
REMARK                            x       y       z     vdW  Elec       q    Type
REMARK                         _______ _______ _______ _____ _____    ______ ____
ROOT
ATOM      1  C   UNL     1      -2.293  -3.324  -4.361  0.00  0.00    +0.236 C 
ATOM      2  O   UNL     1      -1.950  -2.183  -4.591  0.00  0.00    -0.274 OA
ATOM      3  N   UNL     1      -3.319  -3.870  -5.043  0.00  0.00    -0.269 N 
ATOM      4  H   UNL     1      -3.593  -4.782  -4.859  0.00  0.00    +0.156 HD
ENDROOT
BRANCH   3   5
ATOM      5  C   UNL     1      -3.987  -3.123  -6.013  0.00  0.00    +0.124 A 
ATOM      6  C   UNL     1      -3.707  -1.841  -6.376  0.00  0.00    +0.065 A 
ATOM      7  C   UNL     1      -4.609  -1.473  -7.378  0.00  0.00    +0.136 A 
ATOM      8  N   UNL     1      -5.401  -2.488  -7.612  0.00  0.00    -0.178 NA
ATOM      9  N   UNL     1      -5.028  -3.542  -6.769  0.00  0.00    -0.246 N 
BRANCH   9  10
ATOM     10  C   UNL     1      -5.656  -4.865  -6.713  0.00  0.00    +0.182 C 
BRANCH  10  11
ATOM     11  C   UNL     1      -6.778  -4.846  -5.707  0.00  0.00    -0.006 A 
ATOM     12  C   UNL     1      -6.548  -5.259  -4.407  0.00  0.00    +0.007 A 
ATOM     13  C   UNL     1      -7.576  -5.242  -3.484  0.00  0.00    +0.002 A 
ATOM     14  C   UNL     1      -8.836  -4.813  -3.859  0.00  0.00    +0.021 A 
ATOM     15  C   UNL     1      -9.068  -4.400  -5.158  0.00  0.00    +0.060 A 
ATOM     16  C   UNL     1      -8.036  -4.411  -6.082  0.00  0.00    +0.064 A 
ATOM     17 CL   UNL     1      -8.323  -3.886  -7.711  0.00  0.00    -0.082 Cl
ATOM     18 CL   UNL     1     -10.649  -3.862  -5.629  0.00  0.00    -0.082 Cl
ENDBRANCH  10  11
ENDBRANCH   9  10
ENDBRANCH   3   5
BRANCH   1  19
ATOM     19  C   UNL     1      -1.571  -4.131  -3.313  0.00  0.00    +0.214 C 
BRANCH  19  31
ATOM     20  C   UNL     1      -0.019   1.528   0.010  0.00  0.00    +0.007 C 
ATOM     21  C   UNL     1       0.002  -0.004   0.002  0.00  0.00    -0.011 C 
ATOM     22  C   UNL     1       0.726  -0.492  -1.255  0.00  0.00    +0.038 C 
ATOM     23  C   UNL     1       0.711  -2.014  -1.298  0.00  0.00    +0.113 C 
ATOM     24  C   UNL     1       1.264  -2.646  -0.036  0.00  0.00    +0.041 C 
ATOM     25  C   UNL     1       0.787  -2.030   1.268  0.00  0.00    -0.032 C 
ATOM     26  C   UNL     1       0.764  -0.507   1.226  0.00  0.00    +0.009 C 
ATOM     27  C   UNL     1      -0.596  -2.567   1.647  0.00  0.00    +0.011 C 
ATOM     28  C   UNL     1       1.769  -2.455   2.382  0.00  0.00    +0.011 C 
ATOM     29  C   UNL     1      -0.665  -2.529  -1.638  0.00  0.00    +0.247 C 
ATOM     30  O   UNL     1      -1.716  -2.282  -1.086  0.00  0.00    -0.273 OA
ATOM     31  N   UNL     1      -0.504  -3.320  -2.721  0.00  0.00    -0.215 N 
ATOM     32  C   UNL     1       0.750  -3.268  -3.183  0.00  0.00    +0.310 C 
ATOM     33  O   UNL     1       1.137  -3.883  -4.158  0.00  0.00    -0.252 OA
ATOM     34  N   UNL     1       1.532  -2.462  -2.446  0.00  0.00    -0.285 N 
ATOM     35  H   UNL     1       2.452  -2.214  -2.618  0.00  0.00    +0.151 HD
ENDBRANCH  19  31
ENDBRANCH   1  19
TORSDOF 5
