REMARK  Name = ZINC13508198
REMARK  10 active torsions:
REMARK  status: ('A' for Active; 'I' for Inactive)
REMARK    1  A    between atoms: C_1  and  C_2
REMARK    2  A    between atoms: C_5  and  C_37
REMARK    3  A    between atoms: C_6  and  N_8
REMARK    4  A    between atoms: N_8  and  C_9
REMARK    5  A    between atoms: C_9  and  C_11
REMARK    6  A    between atoms: C_9  and  C_17
REMARK    7  A    between atoms: N_19  and  C_20
REMARK    8  A    between atoms: C_26  and  C_28
REMARK    9  A    between atoms: C_28  and  N_29
REMARK   10  A    between atoms: C_30  and  C_32
REMARK                            x       y       z     vdW  Elec       q    Type
REMARK                         _______ _______ _______ _____ _____    ______ ____
ROOT
ATOM      1  N   UNL     1      -0.115  -4.155   2.339  0.00  0.00    -0.254 N 
ATOM      2  C   UNL     1       0.800  -4.801   3.089  0.00  0.00    +0.238 C 
ATOM      3  O   UNL     1       0.823  -4.639   4.290  0.00  0.00    -0.274 OA
ENDROOT
BRANCH   1   9
ATOM      4  C   UNL     1       1.492  -2.889  -2.132  0.00  0.00    +0.044 C 
ATOM      5  C   UNL     1       0.628  -3.741  -1.238  0.00  0.00    -0.049 A 
ATOM      6  C   UNL     1      -0.192  -4.709  -1.790  0.00  0.00    +0.004 A 
ATOM      7  C   UNL     1      -0.986  -5.494  -0.973  0.00  0.00    +0.005 A 
ATOM      8  C   UNL     1      -0.962  -5.312   0.396  0.00  0.00    -0.029 A 
ATOM      9  C   UNL     1      -0.140  -4.342   0.952  0.00  0.00    +0.041 A 
ATOM     10  C   UNL     1       0.660  -3.559   0.130  0.00  0.00    +0.027 A 
ATOM     11  C   UNL     1      -1.828  -6.168   1.285  0.00  0.00    +0.045 C 
ENDBRANCH   1   9
BRANCH   1  12
ATOM     12  C   UNL     1      -1.083  -3.259   2.976  0.00  0.00    +0.199 C 
BRANCH  12  13
ATOM     13  C   UNL     1      -0.359  -2.077   3.568  0.00  0.00    +0.000 A 
ATOM     14  C   UNL     1      -0.638  -1.659   4.861  0.00  0.00    +0.009 A 
ATOM     15  C   UNL     1       0.052  -0.568   5.364  0.00  0.00    +0.020 A 
ATOM     16  C   UNL     1       0.990   0.063   4.568  0.00  0.00    +0.111 A 
ATOM     17  N   UNL     1       1.229  -0.362   3.343  0.00  0.00    -0.263 NA
ATOM     18  C   UNL     1       0.596  -1.401   2.833  0.00  0.00    +0.116 A 
ENDBRANCH  12  13
BRANCH  12  19
ATOM     19  C   UNL     1      -2.073  -2.777   1.947  0.00  0.00    +0.239 C 
ATOM     20  O   UNL     1      -1.684  -2.390   0.865  0.00  0.00    -0.273 OA
ATOM     21  N   UNL     1      -3.391  -2.775   2.229  0.00  0.00    -0.311 N 
ATOM     22  H   UNL     1      -3.702  -3.084   3.095  0.00  0.00    +0.149 HD
BRANCH  21  23
ATOM     23  C   UNL     1      -4.353  -2.306   1.229  0.00  0.00    +0.073 C 
ATOM     24  C   UNL     1      -4.482  -0.784   1.319  0.00  0.00    +0.022 C 
ATOM     25  C   UNL     1      -5.487  -0.295   0.275  0.00  0.00    +0.002 C 
ATOM     26  C   UNL     1      -6.850  -0.938   0.538  0.00  0.00    +0.000 C 
ATOM     27  C   UNL     1      -6.722  -2.460   0.449  0.00  0.00    +0.002 C 
ATOM     28  C   UNL     1      -5.716  -2.949   1.493  0.00  0.00    +0.022 C 
ENDBRANCH  21  23
ENDBRANCH  12  19
ENDBRANCH   1  12
BRANCH   2  29
ATOM     29  C   UNL     1       1.796  -5.723   2.434  0.00  0.00    +0.201 C 
BRANCH  29  30
ATOM     30  N   UNL     1       2.675  -6.298   3.455  0.00  0.00    -0.300 N 
ATOM     31  C   UNL     1       3.650  -7.158   3.099  0.00  0.00    +0.280 C 
ATOM     32  O   UNL     1       3.800  -7.457   1.929  0.00  0.00    -0.267 OA
ATOM     33  H   UNL     1       2.555  -6.059   4.388  0.00  0.00    +0.150 HD
BRANCH  31  34
ATOM     34  C   UNL     1       4.529  -7.733   4.122  0.00  0.00    +0.189 A 
ATOM     35  C   UNL     1       5.554  -8.608   3.899  0.00  0.00    +0.054 A 
ATOM     36  C   UNL     1       6.122  -8.892   5.151  0.00  0.00    +0.042 A 
ATOM     37  C   UNL     1       5.427  -8.187   6.072  0.00  0.00    +0.196 A 
ATOM     38  O   UNL     1       4.472  -7.487   5.447  0.00  0.00    -0.458 OA
ENDBRANCH  31  34
ENDBRANCH  29  30
ENDBRANCH   2  29
TORSDOF 8
