REMARK  Name = ZINC59305525
REMARK  9 active torsions:
REMARK  status: ('A' for Active; 'I' for Inactive)
REMARK    1  A    between atoms: C_1  and  C_2
REMARK    2  A    between atoms: C_5  and  C_8
REMARK    3  A    between atoms: C_10  and  C_29
REMARK    4  A    between atoms: C_11  and  C_28
REMARK    5  A    between atoms: C_18  and  C_19
REMARK    6  A    between atoms: C_22  and  N_24
REMARK    7  A    between atoms: N_24  and  C_25
REMARK    8  A    between atoms: N_24  and  C_26
REMARK    9  A    between atoms: N_31  and  C_32
REMARK                            x       y       z     vdW  Elec       q    Type
REMARK                         _______ _______ _______ _____ _____    ______ ____
ROOT
ATOM      1  C   UNL     1       0.547  -4.872   0.250  0.00  0.00    +0.160 C 
ATOM      2  C   UNL     1       2.041  -5.021   0.422  0.00  0.00    +0.063 C 
ATOM      3  C   UNL     1       2.505  -5.565   1.587  0.00  0.00    +0.051 C 
ATOM      4  N   UNL     1       1.660  -5.948   2.537  0.00  0.00    -0.228 NA
ATOM      5  C   UNL     1       0.358  -5.849   2.458  0.00  0.00    +0.178 A 
ATOM      6  N   UNL     1      -0.314  -5.332   1.375  0.00  0.00    -0.275 N 
ATOM      7  C   UNL     1      -1.650  -5.288   1.424  0.00  0.00    +0.268 A 
ATOM      8  O   UNL     1      -2.285  -4.838   0.486  0.00  0.00    -0.266 OA
ATOM      9  C   UNL     1      -2.321  -5.769   2.574  0.00  0.00    +0.084 A 
ATOM     10  C   UNL     1      -3.673  -5.822   2.840  0.00  0.00    +0.067 C 
ATOM     11  S   UNL     1      -0.948  -6.291   3.587  0.00  0.00    -0.046 S 
ATOM     12  C   UNL     1       3.989  -5.731   1.795  0.00  0.00    +0.066 C 
ENDROOT
BRANCH   1  17
ATOM     13  C   UNL     1      -0.587   0.717  -0.683  0.00  0.00    +0.044 C 
ATOM     14  C   UNL     1      -0.291  -0.740  -0.440  0.00  0.00    -0.050 A 
ATOM     15  C   UNL     1      -0.243  -1.623  -1.503  0.00  0.00    +0.004 A 
ATOM     16  C   UNL     1       0.029  -2.959  -1.280  0.00  0.00    +0.006 A 
ATOM     17  C   UNL     1       0.252  -3.414   0.007  0.00  0.00    -0.020 A 
ATOM     18  C   UNL     1       0.204  -2.531   1.070  0.00  0.00    +0.006 A 
ATOM     19  C   UNL     1      -0.063  -1.194   0.846  0.00  0.00    +0.004 A 
ENDBRANCH   1  17
BRANCH  10  20
ATOM     20  C   UNL     1      -4.130  -6.346   4.063  0.00  0.00    +0.131 A 
ATOM     21  C   UNL     1      -5.453  -6.464   4.457  0.00  0.00    +0.051 A 
ATOM     22  C   UNL     1      -5.442  -7.031   5.732  0.00  0.00    +0.066 A 
ATOM     23  C   UNL     1      -4.136  -7.239   6.072  0.00  0.00    +0.189 A 
ATOM     24  O   UNL     1      -3.354  -6.830   5.060  0.00  0.00    -0.442 OA
BRANCH  23  25
ATOM     25  N   UNL     1      -3.692  -7.786   7.259  0.00  0.00    -0.308 N 
ATOM     26  C   UNL     1      -4.656  -8.199   8.281  0.00  0.00    +0.132 C 
ATOM     27  C   UNL     1      -2.256  -7.954   7.496  0.00  0.00    +0.132 C 
ENDBRANCH  23  25
ENDBRANCH  10  20
BRANCH   2  28
ATOM     28  C   UNL     1       2.929  -4.613  -0.589  0.00  0.00    +0.248 C 
ATOM     29  O   UNL     1       3.188  -5.365  -1.513  0.00  0.00    -0.270 OA
ATOM     30  N   UNL     1       3.495  -3.391  -0.536  0.00  0.00    -0.282 N 
ATOM     31  H   UNL     1       3.209  -2.753   0.137  0.00  0.00    +0.155 HD
BRANCH  30  32
ATOM     32  C   UNL     1       4.494  -3.043  -1.450  0.00  0.00    +0.034 A 
ATOM     33  C   UNL     1       4.417  -3.482  -2.766  0.00  0.00    +0.023 A 
ATOM     34  C   UNL     1       5.404  -3.135  -3.667  0.00  0.00    +0.002 A 
ATOM     35  C   UNL     1       6.470  -2.353  -3.260  0.00  0.00    +0.000 A 
ATOM     36  C   UNL     1       6.550  -1.915  -1.951  0.00  0.00    +0.002 A 
ATOM     37  C   UNL     1       5.562  -2.253  -1.046  0.00  0.00    +0.023 A 
ENDBRANCH  30  32
ENDBRANCH   2  28
TORSDOF 5
