REMARK  Name = ZINC18322620
REMARK  7 active torsions:
REMARK  status: ('A' for Active; 'I' for Inactive)
REMARK    1  A    between atoms: C_4  and  C_7
REMARK    2  A    between atoms: C_14  and  C_23
REMARK    3  A    between atoms: C_15  and  C_17
REMARK    4  A    between atoms: C_23  and  C_25
REMARK    5  A    between atoms: C_23  and  C_31
REMARK    6  A    between atoms: C_31  and  C_32
REMARK    7  A    between atoms: C_31  and  C_34
REMARK                            x       y       z     vdW  Elec       q    Type
REMARK                         _______ _______ _______ _____ _____    ______ ____
ROOT
ATOM      1  C   UNL     1       3.809   0.811  -0.958  0.00  0.00    +0.080 A 
ATOM      2  C   UNL     1       3.526  -0.515  -0.778  0.00  0.00    +0.077 A 
ATOM      3  S   UNL     1       5.165  -1.166  -0.486  0.00  0.00    -0.056 S 
ATOM      4  C   UNL     1       6.050   0.380  -0.632  0.00  0.00    +0.196 A 
ATOM      5  N   UNL     1       5.066   1.223  -0.885  0.00  0.00    -0.221 NA
ATOM      6  N   UNL     1       7.410   0.628  -0.516  0.00  0.00    -0.194 N 
ATOM      7  C   UNL     1       8.364  -0.289  -0.260  0.00  0.00    +0.278 A 
ATOM      8  C   UNL     1       9.607   0.373  -0.223  0.00  0.00    +0.054 A 
ATOM      9  C   UNL     1       9.386   1.697  -0.460  0.00  0.00    +0.072 A 
ATOM     10  N   UNL     1       8.035   1.875  -0.649  0.00  0.00    -0.287 N 
ATOM     11  O   UNL     1       8.183  -1.482  -0.090  0.00  0.00    -0.265 OA
ATOM     12  H   UNL     1       7.592   2.717  -0.840  0.00  0.00    +0.188 HD
ENDROOT
BRANCH   1  16
ATOM     13  C   UNL     1       0.685   3.581  -1.761  0.00  0.00    +0.000 A 
ATOM     14  C   UNL     1       1.994   4.021  -1.685  0.00  0.00    +0.001 A 
ATOM     15  C   UNL     1       3.012   3.127  -1.425  0.00  0.00    +0.010 A 
ATOM     16  C   UNL     1       2.719   1.777  -1.237  0.00  0.00    +0.001 A 
ATOM     17  C   UNL     1       1.398   1.339  -1.314  0.00  0.00    +0.010 A 
ATOM     18  C   UNL     1       0.388   2.243  -1.576  0.00  0.00    +0.001 A 
ENDBRANCH   1  16
BRANCH   9  19
ATOM     19  C   UNL     1      10.416   2.754  -0.509  0.00  0.00    +0.000 A 
ATOM     20  C   UNL     1      11.579   2.566  -1.260  0.00  0.00    +0.010 A 
ATOM     21  C   UNL     1      12.537   3.557  -1.302  0.00  0.00    +0.001 A 
ATOM     22  C   UNL     1      12.348   4.736  -0.602  0.00  0.00    +0.000 A 
ATOM     23  C   UNL     1      11.199   4.929   0.143  0.00  0.00    +0.001 A 
ATOM     24  C   UNL     1      10.230   3.949   0.190  0.00  0.00    +0.010 A 
ENDBRANCH   9  19
BRANCH   8  25
ATOM     25  C   UNL     1      10.946  -0.270   0.033  0.00  0.00    +0.087 C 
BRANCH  25  26
ATOM     26  C   UNL     1      11.289  -1.189  -1.110  0.00  0.00    -0.038 A 
ATOM     27  C   UNL     1      10.571  -2.356  -1.298  0.00  0.00    +0.004 A 
ATOM     28  C   UNL     1      10.886  -3.199  -2.348  0.00  0.00    +0.000 A 
ATOM     29  C   UNL     1      11.918  -2.875  -3.209  0.00  0.00    +0.000 A 
ATOM     30  C   UNL     1      12.634  -1.708  -3.021  0.00  0.00    +0.000 A 
ATOM     31  C   UNL     1      12.317  -0.863  -1.975  0.00  0.00    +0.004 A 
ENDBRANCH  25  26
BRANCH  25  32
ATOM     32  C   UNL     1      10.885  -1.074   1.333  0.00  0.00    +0.205 C 
BRANCH  32  33
ATOM     33  C   UNL     1      12.193  -1.701   1.584  0.00  0.00    +0.082 C 
ATOM     34  N   UNL     1      13.202  -2.186   1.777  0.00  0.00    -0.195 NA
ENDBRANCH  32  33
BRANCH  32  35
ATOM     35  C   UNL     1      10.550  -0.176   2.451  0.00  0.00    +0.082 C 
ATOM     36  N   UNL     1      10.291   0.517   3.313  0.00  0.00    -0.195 NA
ENDBRANCH  32  35
ENDBRANCH  25  32
ENDBRANCH   8  25
TORSDOF 7
