REMARK  Name = ZINC07925827
REMARK  4 active torsions:
REMARK  status: ('A' for Active; 'I' for Inactive)
REMARK    1  A    between atoms: C_3  and  N_24
REMARK    2  A    between atoms: C_6  and  C_7
REMARK    3  A    between atoms: C_10  and  C_11
REMARK    4  A    between atoms: C_15  and  N_17
REMARK                            x       y       z     vdW  Elec       q    Type
REMARK                         _______ _______ _______ _____ _____    ______ ____
ROOT
ATOM      1  C   UNL     1       2.940   5.584  -0.224  0.00  0.00    +0.232 C 
ATOM      2  N   UNL     1       2.544   4.344  -0.133  0.00  0.00    -0.205 NA
ATOM      3  C   UNL     1       3.636   3.526  -0.128  0.00  0.00    +0.152 C 
ATOM      4  C   UNL     1       3.648   2.151  -0.045  0.00  0.00    +0.043 C 
ATOM      5  C   UNL     1       4.801   4.426  -0.224  0.00  0.00    +0.364 C 
ATOM      6  O   UNL     1       5.976   4.114  -0.246  0.00  0.00    -0.243 OA
ATOM      7  O   UNL     1       4.283   5.672  -0.283  0.00  0.00    -0.402 OA
ENDROOT
BRANCH   4   8
ATOM      8  C   UNL     1       2.387   1.404  -0.064  0.00  0.00    -0.021 A 
ATOM      9  C   UNL     1       1.163   2.087  -0.045  0.00  0.00    +0.009 A 
ATOM     10  C   UNL     1      -0.018   1.378  -0.062  0.00  0.00    +0.023 A 
ATOM     11  C   UNL     1       0.002  -0.007  -0.099  0.00  0.00    +0.071 A 
ATOM     12  C   UNL     1       1.208  -0.691  -0.119  0.00  0.00    +0.145 A 
ATOM     13  C   UNL     1       2.398   0.004  -0.101  0.00  0.00    +0.042 A 
ATOM     14 CL   UNL     1      -1.491  -0.892  -0.121  0.00  0.00    -0.081 Cl
BRANCH  12  15
ATOM     15  N   UNL     1       1.217  -2.170  -0.158  0.00  0.00    +0.058 N 
ATOM     16  O   UNL     1       2.276  -2.772  -0.176  0.00  0.00    -0.126 OA
ATOM     17  O   UNL     1       0.166  -2.786  -0.173  0.00  0.00    -0.126 OA
ENDBRANCH  12  15
ENDBRANCH   4   8
BRANCH   1  23
ATOM     18  C   UNL     1       0.647   6.554  -0.196  0.00  0.00    +0.015 A 
ATOM     19  C   UNL     1      -0.198   7.641  -0.221  0.00  0.00    +0.024 A 
ATOM     20  C   UNL     1       0.322   8.927  -0.320  0.00  0.00    +0.036 A 
ATOM     21  C   UNL     1       1.698   9.121  -0.387  0.00  0.00    +0.024 A 
ATOM     22  C   UNL     1       2.550   8.040  -0.355  0.00  0.00    +0.015 A 
ATOM     23  C   UNL     1       2.031   6.745  -0.257  0.00  0.00    +0.037 A 
BRANCH  20  24
ATOM     24  N   UNL     1      -0.538  10.025  -0.352  0.00  0.00    -0.271 N 
ATOM     25  C   UNL     1      -1.992   9.944  -0.170  0.00  0.00    +0.114 C 
ATOM     26  C   UNL     1      -2.447  11.386   0.154  0.00  0.00    +0.029 C 
ATOM     27  C   UNL     1      -1.335  12.224  -0.518  0.00  0.00    +0.098 C 
ATOM     28  C   UNL     1      -0.142  11.293  -0.558  0.00  0.00    +0.220 C 
ATOM     29  O   UNL     1       1.004  11.641  -0.750  0.00  0.00    -0.275 OA
ENDBRANCH  20  24
ENDBRANCH   1  23
TORSDOF 4
