REMARK  Name = ZINC54094397
REMARK  4 active torsions:
REMARK  status: ('A' for Active; 'I' for Inactive)
REMARK    1  A    between atoms: C_1  and  C_2
REMARK    2  A    between atoms: C_8  and  N_10
REMARK    3  A    between atoms: N_16  and  C_19
REMARK    4  A    between atoms: C_19  and  C_20
REMARK                            x       y       z     vdW  Elec       q    Type
REMARK                         _______ _______ _______ _____ _____    ______ ____
ROOT
ATOM      1  N   UNL     1       2.329  -0.366   1.420  0.00  0.00    -0.296 N 
ATOM      2  C   UNL     1       3.007  -0.144   2.564  0.00  0.00    +0.303 C 
ATOM      3  O   UNL     1       2.473  -0.349   3.637  0.00  0.00    -0.253 OA
ATOM      4  N   UNL     1       4.277   0.306   2.518  0.00  0.00    -0.283 N 
ATOM      5  C   UNL     1       4.902   0.673   1.238  0.00  0.00    +0.124 C 
ATOM      6  C   UNL     1       5.505   2.074   1.375  0.00  0.00    +0.104 C 
ATOM      7  N   UNL     1       6.404   2.106   2.537  0.00  0.00    -0.294 NA
ATOM      8  C   UNL     1       5.671   1.853   3.784  0.00  0.00    +0.104 C 
ATOM      9  C   UNL     1       5.072   0.448   3.747  0.00  0.00    +0.124 C 
ATOM     10  H   UNL     1       2.728  -0.134   0.567  0.00  0.00    +0.151 HD
ENDROOT
BRANCH   1  17
ATOM     11  C   UNL     1       0.092   0.976   0.160  0.00  0.00    +0.009 C 
ATOM     12  C   UNL     1       0.209  -0.549   0.215  0.00  0.00    +0.006 C 
ATOM     13  C   UNL     1       0.944  -1.049  -1.030  0.00  0.00    +0.005 C 
ATOM     14  C   UNL     1       1.060  -2.574  -0.975  0.00  0.00    +0.000 C 
ATOM     15  C   UNL     1       1.841  -2.981   0.276  0.00  0.00    +0.002 C 
ATOM     16  C   UNL     1       1.105  -2.481   1.521  0.00  0.00    +0.022 C 
ATOM     17  C   UNL     1       0.989  -0.956   1.466  0.00  0.00    +0.077 C 
ENDBRANCH   1  17
BRANCH   7  18
ATOM     18  C   UNL     1       7.134   3.378   2.603  0.00  0.00    +0.138 C 
BRANCH  18  19
ATOM     19  C   UNL     1       8.068   3.484   1.425  0.00  0.00    +0.037 A 
ATOM     20  C   UNL     1       7.878   4.455   0.465  0.00  0.00    +0.093 A 
ATOM     21  C   UNL     1       8.753   4.537  -0.619  0.00  0.00    +0.259 A 
ATOM     22  O   UNL     1       8.590   5.395  -1.472  0.00  0.00    -0.267 OA
ATOM     23  N   UNL     1       9.793   3.657  -0.724  0.00  0.00    -0.264 N 
ATOM     24  C   UNL     1      10.733   3.612  -1.725  0.00  0.00    +0.104 A 
ATOM     25  C   UNL     1      11.705   2.700  -1.715  0.00  0.00    +0.067 A 
ATOM     26  S   UNL     1      11.344   1.797  -0.217  0.00  0.00    -0.059 S 
ATOM     27  C   UNL     1       9.908   2.726   0.274  0.00  0.00    +0.158 A 
ATOM     28  N   UNL     1       9.093   2.646   1.296  0.00  0.00    -0.338 N 
ATOM     29  H   UNL     1       9.237   1.962   1.969  0.00  0.00    +0.168 HD
ENDBRANCH  18  19
ENDBRANCH   7  18
TORSDOF 3
