REMARK  Name = ZINC39695142
REMARK  7 active torsions:
REMARK  status: ('A' for Active; 'I' for Inactive)
REMARK    1  A    between atoms: C_1  and  C_2
REMARK    2  A    between atoms: C_3  and  C_9
REMARK    3  A    between atoms: C_9  and  N_10
REMARK    4  A    between atoms: C_11  and  C_13
REMARK    5  A    between atoms: C_24  and  C_26
REMARK    6  A    between atoms: C_27  and  C_37
REMARK    7  A    between atoms: C_30  and  C_31
REMARK                            x       y       z     vdW  Elec       q    Type
REMARK                         _______ _______ _______ _____ _____    ______ ____
ROOT
ATOM      1  C   UNL     1       2.959   1.739  -4.246  0.00  0.00    +0.100 C 
ATOM      2  C   UNL     1       3.394   2.822  -3.233  0.00  0.00    +0.121 C 
ATOM      3  N   UNL     1       4.169   3.797  -4.036  0.00  0.00    -0.296 N 
ATOM      4  C   UNL     1       3.429   3.891  -5.317  0.00  0.00    +0.115 C 
ATOM      5  C   UNL     1       2.983   2.445  -5.612  0.00  0.00    -0.004 C 
ATOM      6  C   UNL     1       3.983   1.764  -6.542  0.00  0.00    -0.010 C 
ATOM      7  C   UNL     1       3.947   2.447  -7.912  0.00  0.00    -0.082 C 
ATOM      8  N   UNL     1       2.592   2.359  -8.469  0.00  0.00    +0.379 N 
ATOM      9  C   UNL     1       1.651   3.095  -7.617  0.00  0.00    -0.082 C 
ATOM     10  C   UNL     1       1.590   2.439  -6.234  0.00  0.00    -0.010 C 
ATOM     11  C   UNL     1       5.293   4.450  -3.682  0.00  0.00    +0.252 C 
ATOM     12  O   UNL     1       5.816   5.226  -4.459  0.00  0.00    -0.270 OA
ATOM     13  H   UNL     1       2.584   2.756  -9.397  0.00  0.00    -0.086 HD
ATOM     14  H   UNL     1       2.312   1.391  -8.518  0.00  0.00    -0.086 HD
ENDROOT
BRANCH  11  15
ATOM     15  C   UNL     1       5.889   4.225  -2.354  0.00  0.00    +0.106 A 
ATOM     16  C   UNL     1       6.826   3.288  -2.031  0.00  0.00    +0.147 A 
ATOM     17  O   UNL     1       7.106   3.406  -0.731  0.00  0.00    -0.359 OA
ATOM     18  N   UNL     1       6.333   4.451  -0.175  0.00  0.00    -0.077 NA
ATOM     19  C   UNL     1       5.593   4.971  -1.122  0.00  0.00    +0.126 A 
ATOM     20  C   UNL     1       7.440   2.290  -2.979  0.00  0.00    +0.090 C 
BRANCH  19  21
ATOM     21  C   UNL     1       4.637   6.095  -0.978  0.00  0.00    +0.004 A 
ATOM     22  C   UNL     1       4.462   7.002  -2.022  0.00  0.00    +0.010 A 
ATOM     23  C   UNL     1       3.570   8.046  -1.883  0.00  0.00    +0.001 A 
ATOM     24  C   UNL     1       2.852   8.194  -0.710  0.00  0.00    +0.000 A 
ATOM     25  C   UNL     1       3.022   7.298   0.329  0.00  0.00    +0.001 A 
ATOM     26  C   UNL     1       3.906   6.246   0.199  0.00  0.00    +0.010 A 
ENDBRANCH  19  21
ENDBRANCH  11  15
BRANCH   1  28
ATOM     27  N   UNL     1       1.203  -0.003  -4.256  0.00  0.00    -0.311 N 
ATOM     28  C   UNL     1       1.568   1.253  -3.930  0.00  0.00    +0.218 C 
ATOM     29  O   UNL     1       0.778   1.992  -3.383  0.00  0.00    -0.275 OA
ATOM     30  H   UNL     1       1.836  -0.594  -4.694  0.00  0.00    +0.149 HD
BRANCH  27  31
ATOM     31  C   UNL     1      -0.149  -0.475  -3.949  0.00  0.00    +0.139 C 
BRANCH  31  34
ATOM     32  C   UNL     1       0.894  -2.635  -2.338  0.00  0.00    +0.045 C 
ATOM     33  C   UNL     1       0.199  -2.935  -3.641  0.00  0.00    -0.027 A 
ATOM     34  C   UNL     1      -0.300  -1.901  -4.412  0.00  0.00    -0.026 A 
ATOM     35  C   UNL     1      -0.938  -2.176  -5.607  0.00  0.00    +0.005 A 
ATOM     36  C   UNL     1      -1.077  -3.484  -6.032  0.00  0.00    +0.002 A 
ATOM     37  C   UNL     1      -0.579  -4.518  -5.262  0.00  0.00    +0.020 A 
ATOM     38  C   UNL     1       0.065  -4.243  -4.068  0.00  0.00    +0.044 A 
ATOM     39 CL   UNL     1       0.697  -5.541  -3.104  0.00  0.00    -0.083 Cl
ENDBRANCH  31  34
ENDBRANCH  27  31
ENDBRANCH   1  28
TORSDOF 5
