REMARK  Name = ZINC48482900
REMARK  3 active torsions:
REMARK  status: ('A' for Active; 'I' for Inactive)
REMARK    1  A    between atoms: N_10  and  C_13
REMARK    2  A    between atoms: C_13  and  S_14
REMARK    3  A    between atoms: S_14  and  C_15
REMARK                            x       y       z     vdW  Elec       q    Type
REMARK                         _______ _______ _______ _____ _____    ______ ____
ROOT
ATOM      1  C   UNL     1      -0.017   1.385   0.010  0.00  0.00    +0.017 A 
ATOM      2  C   UNL     1       1.156   2.106   0.002  0.00  0.00    +0.031 A 
ATOM      3  C   UNL     1       2.382   1.436  -0.013  0.00  0.00    +0.100 A 
ATOM      4  C   UNL     1       2.397   0.023  -0.021  0.00  0.00    +0.069 A 
ATOM      5  C   UNL     1       1.199  -0.688  -0.014  0.00  0.00    +0.030 A 
ATOM      6  C   UNL     1       0.002  -0.004   0.002  0.00  0.00    +0.019 A 
ATOM      7 BR   UNL     1      -1.627  -0.964   0.013  0.00  0.00    -0.050 Br
ATOM      8  C   UNL     1       3.700  -0.658  -0.037  0.00  0.00    +0.279 A 
ATOM      9  O   UNL     1       3.779  -1.873  -0.045  0.00  0.00    -0.265 OA
ATOM     10  N   UNL     1       4.809   0.119  -0.043  0.00  0.00    -0.200 N 
ATOM     11  N   UNL     1       4.689   1.511  -0.034  0.00  0.00    -0.061 NA
ATOM     12  N   UNL     1       3.556   2.114  -0.021  0.00  0.00    -0.131 NA
ENDROOT
BRANCH  10  13
ATOM     13  C   UNL     1       6.137  -0.501  -0.059  0.00  0.00    +0.225 C 
BRANCH  13  14
ATOM     14  S   UNL     1       6.668  -0.747  -1.776  0.00  0.00    -0.073 S 
BRANCH  14  15
ATOM     15  C   UNL     1       7.112   0.868  -2.321  0.00  0.00    +0.162 A 
ATOM     16  N   UNL     1       7.084   2.010  -1.661  0.00  0.00    -0.133 NA
ATOM     17  N   UNL     1       7.480   3.171  -2.285  0.00  0.00    -0.125 NA
ATOM     18  C   UNL     1       7.885   3.137  -3.539  0.00  0.00    +0.180 A 
ATOM     19  S   UNL     1       7.728   1.397  -3.913  0.00  0.00    -0.025 S 
ATOM     20  N   UNL     1       8.322   4.176  -4.352  0.00  0.00    -0.336 N 
ATOM     21  H   UNL     1       8.358   5.081  -4.005  0.00  0.00    +0.144 HD
ATOM     22  H   UNL     1       8.591   3.996  -5.267  0.00  0.00    +0.144 HD
ENDBRANCH  14  15
ENDBRANCH  13  14
ENDBRANCH  10  13
TORSDOF 3
