REMARK  Name = ZINC21322879
REMARK  10 active torsions:
REMARK  status: ('A' for Active; 'I' for Inactive)
REMARK    1  A    between atoms: C_1  and  C_2
REMARK    2  A    between atoms: C_2  and  C_26
REMARK    3  A    between atoms: N_3  and  N_4
REMARK    4  A    between atoms: C_8  and  S_11
REMARK    5  A    between atoms: N_9  and  N_10
REMARK    6  A    between atoms: S_11  and  C_12
REMARK    7  A    between atoms: C_12  and  C_13
REMARK    8  A    between atoms: N_15  and  C_16
REMARK    9  A    between atoms: C_20  and  N_22
REMARK   10  A    between atoms: C_23  and  C_25
REMARK                            x       y       z     vdW  Elec       q    Type
REMARK                         _______ _______ _______ _____ _____    ______ ____
ROOT
ATOM      1  N   UNL     1       0.773   0.505  -6.245  0.00  0.00    -0.204 N 
ATOM      2  C   UNL     1       0.695   0.564  -4.861  0.00  0.00    +0.254 A 
ATOM      3  N   UNL     1       1.514  -0.015  -4.018  0.00  0.00    -0.109 NA
ATOM      4  N   UNL     1       1.090   0.296  -2.719  0.00  0.00    -0.119 NA
ATOM      5  C   UNL     1       0.019   1.048  -2.812  0.00  0.00    +0.210 A 
ATOM      6  N   UNL     1      -0.251   1.236  -4.138  0.00  0.00    -0.211 N 
ATOM      7  H   UNL     1       0.028   1.031  -6.861  0.00  0.00    +0.178 HD
ENDROOT
BRANCH   1  10
ATOM      8  C   UNL     1       0.853   0.441  -8.998  0.00  0.00    +0.068 C 
ATOM      9  C   UNL     1       1.873  -0.280  -8.154  0.00  0.00    +0.063 C 
ATOM     10  N   UNL     1       1.800  -0.225  -6.859  0.00  0.00    -0.184 NA
BRANCH   9  11
ATOM     11  C   UNL     1       2.953  -1.047  -8.799  0.00  0.00    -0.002 A 
ATOM     12  C   UNL     1       3.031  -1.114 -10.193  0.00  0.00    +0.011 A 
ATOM     13  C   UNL     1       4.047  -1.830 -10.790  0.00  0.00    +0.016 A 
ATOM     14  C   UNL     1       4.983  -2.491 -10.012  0.00  0.00    +0.018 A 
ATOM     15  C   UNL     1       4.908  -2.433  -8.630  0.00  0.00    +0.016 A 
ATOM     16  C   UNL     1       3.900  -1.717  -8.020  0.00  0.00    +0.011 A 
ATOM     17 BR   UNL     1       6.369  -3.475 -10.840  0.00  0.00    -0.050 Br
ENDBRANCH   9  11
ENDBRANCH   1  10
BRANCH   6  18
ATOM     18  N   UNL     1      -1.284   1.968  -4.650  0.00  0.00    -0.294 N 
ATOM     19  H   UNL     1      -1.991   2.471  -3.974  0.00  0.00    +0.163 HD
ATOM     20  H   UNL     1      -1.409   2.055  -5.740  0.00  0.00    +0.163 HD
ENDBRANCH   6  18
BRANCH   5  21
ATOM     21  S   UNL     1      -0.904   1.706  -1.463  0.00  0.00    -0.075 S 
BRANCH  21  22
ATOM     22  C   UNL     1      -0.033   1.092   0.005  0.00  0.00    +0.173 C 
BRANCH  22  23
ATOM     23  C   UNL     1      -0.730   1.589   1.246  0.00  0.00    +0.227 C 
ATOM     24  O   UNL     1      -1.716   2.288   1.149  0.00  0.00    -0.275 OA
ATOM     25  N   UNL     1      -0.256   1.256   2.463  0.00  0.00    -0.285 N 
ATOM     26  H   UNL     1       0.592   0.561   2.553  0.00  0.00    +0.155 HD
BRANCH  25  27
ATOM     27  C   UNL     1      -0.843   1.794   3.614  0.00  0.00    +0.035 A 
ATOM     28  C   UNL     1      -2.212   2.028   3.651  0.00  0.00    +0.023 A 
ATOM     29  C   UNL     1      -2.793   2.559   4.787  0.00  0.00    +0.004 A 
ATOM     30  C   UNL     1      -2.015   2.860   5.888  0.00  0.00    +0.023 A 
ATOM     31  C   UNL     1      -0.645   2.629   5.857  0.00  0.00    +0.035 A 
ATOM     32  C   UNL     1      -0.060   2.090   4.720  0.00  0.00    +0.046 A 
BRANCH  31  33
ATOM     33  N   UNL     1       0.142   2.934   6.972  0.00  0.00    -0.286 N 
ATOM     34  C   UNL     1      -0.354   2.766   8.214  0.00  0.00    +0.214 C 
ATOM     35  O   UNL     1      -1.510   2.430   8.365  0.00  0.00    -0.276 OA
ATOM     36  C   UNL     1       0.527   2.994   9.415  0.00  0.00    +0.109 C 
ATOM     37  H   UNL     1       1.166   3.311   6.836  0.00  0.00    +0.155 HD
ENDBRANCH  31  33
ENDBRANCH  25  27
ENDBRANCH  22  23
ENDBRANCH  21  22
ENDBRANCH   5  21
TORSDOF 8
