REMARK  Name = ZINC40538182
REMARK  12 active torsions:
REMARK  status: ('A' for Active; 'I' for Inactive)
REMARK    1  A    between atoms: C_1  and  C_2
REMARK    2  A    between atoms: C_10  and  O_38
REMARK    3  A    between atoms: C_20  and  C_24
REMARK    4  A    between atoms: C_20  and  C_36
REMARK    5  A    between atoms: C_21  and  O_23
REMARK    6  A    between atoms: C_24  and  C_25
REMARK    7  A    between atoms: C_25  and  C_26
REMARK    8  A    between atoms: C_26  and  C_27
REMARK    9  A    between atoms: C_27  and  N_28
REMARK   10  A    between atoms: N_28  and  C_29
REMARK   11  A    between atoms: C_29  and  C_30
REMARK   12  A    between atoms: C_36  and  O_37
REMARK                            x       y       z     vdW  Elec       q    Type
REMARK                         _______ _______ _______ _____ _____    ______ ____
ROOT
ATOM      1  C   UNL     1      -0.147   1.360   0.020  0.00  0.00    +0.014 C 
ATOM      2  C   UNL     1       0.022  -0.159   0.077  0.00  0.00    -0.002 C 
ATOM      3  C   UNL     1      -1.335  -0.822   0.219  0.00  0.00    +0.010 C 
ATOM      4  C   UNL     1      -2.019  -0.192   1.443  0.00  0.00    +0.009 C 
ATOM      5  C   UNL     1      -1.175  -0.344   2.702  0.00  0.00    +0.023 C 
ATOM      6  C   UNL     1      -1.168  -1.778   3.155  0.00  0.00    -0.041 A 
ATOM      7  C   UNL     1      -2.346  -2.504   3.025  0.00  0.00    +0.008 A 
ATOM      8  C   UNL     1      -2.408  -3.821   3.426  0.00  0.00    +0.046 A 
ATOM      9  C   UNL     1      -1.285  -4.429   3.967  0.00  0.00    +0.117 A 
ATOM     10  C   UNL     1      -0.111  -3.707   4.096  0.00  0.00    +0.049 A 
ATOM     11  C   UNL     1      -0.050  -2.382   3.688  0.00  0.00    -0.040 A 
ATOM     12  C   UNL     1       1.262  -1.658   3.846  0.00  0.00    +0.036 C 
ATOM     13  C   UNL     1       1.053  -0.147   3.780  0.00  0.00    +0.009 C 
ATOM     14  C   UNL     1       0.257   0.159   2.507  0.00  0.00    +0.000 C 
ATOM     15  C   UNL     1       0.857  -0.549   1.326  0.00  0.00    +0.002 C 
ATOM     16  C   UNL     1       2.261  -0.091   0.915  0.00  0.00    +0.016 C 
ATOM     17  C   UNL     1       2.349  -0.530  -0.572  0.00  0.00    +0.021 C 
ATOM     18  C   UNL     1       0.891  -0.626  -1.087  0.00  0.00    +0.129 C 
ENDROOT
BRANCH  18  19
ATOM     19  O   UNL     1       0.707   0.230  -2.216  0.00  0.00    -0.391 OA
ATOM     20  H   UNL     1       1.235  -0.018  -2.987  0.00  0.00    +0.210 HD
ENDBRANCH  18  19
BRANCH   9  21
ATOM     21  O   UNL     1      -1.336  -5.727   4.368  0.00  0.00    -0.507 OA
ATOM     22  H   UNL     1      -1.103  -6.362   3.677  0.00  0.00    +0.292 HD
ENDBRANCH   9  21
BRANCH  17  23
ATOM     23  C   UNL     1       3.124   0.512  -1.382  0.00  0.00    +0.011 C 
BRANCH  23  24
ATOM     24  C   UNL     1       4.485   0.757  -0.728  0.00  0.00    -0.001 C 
BRANCH  24  25
ATOM     25  C   UNL     1       5.200   1.900  -1.451  0.00  0.00    -0.019 C 
BRANCH  25  26
ATOM     26  C   UNL     1       6.561   2.145  -0.796  0.00  0.00    -0.082 C 
BRANCH  26  27
ATOM     27  N   UNL     1       7.248   3.243  -1.491  0.00  0.00    +0.383 N 
ATOM     28  H   UNL     1       7.380   2.997  -2.460  0.00  0.00    -0.085 HD
ATOM     29  H   UNL     1       6.690   4.081  -1.430  0.00  0.00    -0.085 HD
BRANCH  27  30
ATOM     30  C   UNL     1       8.555   3.478  -0.862  0.00  0.00    -0.026 C 
BRANCH  30  31
ATOM     31  C   UNL     1       9.259   4.604  -1.575  0.00  0.00    +0.024 A 
ATOM     32  C   UNL     1       9.162   5.891  -1.081  0.00  0.00    +0.021 A 
ATOM     33  C   UNL     1       9.814   6.920  -1.744  0.00  0.00    +0.003 A 
ATOM     34  C   UNL     1      10.542   6.614  -2.884  0.00  0.00    +0.020 A 
ATOM     35  C   UNL     1      10.593   5.303  -3.318  0.00  0.00    +0.111 A 
ATOM     36  N   UNL     1       9.965   4.349  -2.659  0.00  0.00    -0.262 NA
ENDBRANCH  30  31
ENDBRANCH  27  30
ENDBRANCH  26  27
ENDBRANCH  25  26
ENDBRANCH  24  25
ENDBRANCH  23  24
ENDBRANCH  17  23
BRANCH  17  37
ATOM     37  C   UNL     1       3.034  -1.894  -0.678  0.00  0.00    +0.165 C 
BRANCH  37  38
ATOM     38  O   UNL     1       4.297  -1.845  -0.011  0.00  0.00    -0.394 OA
ATOM     39  H   UNL     1       4.788  -2.678  -0.038  0.00  0.00    +0.209 HD
ENDBRANCH  37  38
ENDBRANCH  17  37
TORSDOF 11
