REMARK  Name = ZINC51993212
REMARK  5 active torsions:
REMARK  status: ('A' for Active; 'I' for Inactive)
REMARK    1  A    between atoms: C_2  and  N_22
REMARK    2  A    between atoms: C_6  and  S_7
REMARK    3  A    between atoms: S_7  and  N_10
REMARK    4  A    between atoms: N_10  and  C_11
REMARK    5  A    between atoms: C_17  and  O_19
REMARK                            x       y       z     vdW  Elec       q    Type
REMARK                         _______ _______ _______ _____ _____    ______ ____
ROOT
ATOM      1  S   UNL     1      -1.512  -0.905   0.012  0.00  0.00    +0.062 S 
ATOM      2  O   UNL     1      -1.394  -1.888   1.031  0.00  0.00    -0.153 OA
ATOM      3  O   UNL     1      -2.558   0.058  -0.000  0.00  0.00    -0.153 OA
ENDROOT
BRANCH   1   9
ATOM      4  C   UNL     1      -0.017   1.377   0.010  0.00  0.00    +0.057 A 
ATOM      5  C   UNL     1       1.176   2.087   0.002  0.00  0.00    +0.062 A 
ATOM      6  C   UNL     1       2.388   1.406  -0.013  0.00  0.00    +0.147 A 
ATOM      7  C   UNL     1       2.401   0.023  -0.021  0.00  0.00    +0.080 A 
ATOM      8  C   UNL     1       1.209  -0.682  -0.014  0.00  0.00    +0.152 A 
ATOM      9  C   UNL     1       0.002  -0.004   0.002  0.00  0.00    +0.142 A 
ATOM     10  F   UNL     1       1.224  -2.033  -0.021  0.00  0.00    -0.203 F 
ATOM     11  F   UNL     1       3.551   2.093  -0.021  0.00  0.00    -0.203 F 
BRANCH   5  12
ATOM     12  N   UNL     1       1.159   3.487   0.009  0.00  0.00    -0.356 N 
ATOM     13  H   UNL     1       0.313   3.962   0.020  0.00  0.00    +0.142 HD
ATOM     14  H   UNL     1       1.993   3.982   0.004  0.00  0.00    +0.142 HD
ENDBRANCH   5  12
ENDBRANCH   1   9
BRANCH   1  15
ATOM     15  N   UNL     1      -1.605  -1.722  -1.426  0.00  0.00    -0.184 NA
ATOM     16  H   UNL     1      -2.301  -1.502  -2.064  0.00  0.00    +0.148 HD
BRANCH  15  17
ATOM     17  C   UNL     1      -0.636  -2.777  -1.732  0.00  0.00    +0.105 C 
ATOM     18  C   UNL     1       0.511  -2.191  -2.559  0.00  0.00    +0.023 C 
ATOM     19  C   UNL     1       1.523  -3.292  -2.879  0.00  0.00    +0.002 C 
ATOM     20  C   UNL     1       0.834  -4.402  -3.677  0.00  0.00    +0.003 C 
ATOM     21  C   UNL     1      -0.312  -4.987  -2.851  0.00  0.00    +0.033 C 
ATOM     22  C   UNL     1      -1.325  -3.886  -2.530  0.00  0.00    +0.133 C 
BRANCH  22  23
ATOM     23  O   UNL     1      -2.396  -4.433  -1.758  0.00  0.00    -0.390 OA
ATOM     24  H   UNL     1      -2.878  -5.143  -2.203  0.00  0.00    +0.210 HD
ENDBRANCH  22  23
ENDBRANCH  15  17
ENDBRANCH   1  15
TORSDOF 5
