REMARK  Name = ZINC12414168
REMARK  10 active torsions:
REMARK  status: ('A' for Active; 'I' for Inactive)
REMARK    1  A    between atoms: C_1  and  C_2
REMARK    2  A    between atoms: C_7  and  C_34
REMARK    3  A    between atoms: C_9  and  C_10
REMARK    4  A    between atoms: C_9  and  N_63
REMARK    5  A    between atoms: C_10  and  C_12
REMARK    6  A    between atoms: C_10  and  O_33
REMARK    7  A    between atoms: C_12  and  N_13
REMARK    8  A    between atoms: C_15  and  C_22
REMARK    9  A    between atoms: N_23  and  N_24
REMARK   10  A    between atoms: C_25  and  C_27
REMARK                            x       y       z     vdW  Elec       q    Type
REMARK                         _______ _______ _______ _____ _____    ______ ____
ROOT
ATOM      1  N   UNL     1      -9.278   4.357  -0.312  0.00  0.00    -0.344 N 
ATOM      2  C   UNL     1      -8.472   3.258  -0.322  0.00  0.00    +0.096 A 
ATOM      3  C   UNL     1      -7.183   3.636  -0.543  0.00  0.00    +0.020 A 
ATOM      4  C   UNL     1      -7.195   5.102  -0.692  0.00  0.00    +0.008 A 
ATOM      5  C   UNL     1      -8.535   5.497  -0.537  0.00  0.00    +0.050 A 
ATOM      6  C   UNL     1      -8.864   6.845  -0.627  0.00  0.00    +0.026 A 
ATOM      7  C   UNL     1      -7.879   7.779  -0.866  0.00  0.00    +0.002 A 
ATOM      8  C   UNL     1      -6.557   7.388  -1.018  0.00  0.00    +0.001 A 
ATOM      9  C   UNL     1      -6.210   6.058  -0.933  0.00  0.00    +0.010 A 
ENDROOT
BRANCH   3  10
ATOM     10  C   UNL     1      -6.009   2.753  -0.624  0.00  0.00    +0.140 C 
ATOM     11  N   UNL     1      -4.832   3.257  -0.848  0.00  0.00    -0.187 NA
BRANCH  11  12
ATOM     12  N   UNL     1      -3.714   2.416  -0.925  0.00  0.00    -0.203 N 
ATOM     13  C   UNL     1      -2.493   2.938  -1.157  0.00  0.00    +0.263 C 
ATOM     14  O   UNL     1      -2.362   4.138  -1.299  0.00  0.00    -0.268 OA
ATOM     15  H   UNL     1      -3.818   1.458  -0.811  0.00  0.00    +0.178 HD
BRANCH  13  16
ATOM     16  C   UNL     1      -1.311   2.050  -1.238  0.00  0.00    +0.041 A 
ATOM     17  C   UNL     1      -1.441   0.665  -1.083  0.00  0.00    +0.033 A 
ATOM     18  C   UNL     1      -0.311  -0.125  -1.161  0.00  0.00    +0.111 A 
ATOM     19  N   UNL     1       0.874   0.407  -1.389  0.00  0.00    -0.263 NA
ATOM     20  C   UNL     1       1.039   1.705  -1.546  0.00  0.00    +0.111 A 
ATOM     21  C   UNL     1      -0.036   2.570  -1.478  0.00  0.00    +0.033 A 
ENDBRANCH  13  16
ENDBRANCH  11  12
ENDBRANCH   3  10
BRANCH   1  22
ATOM     22  C   UNL     1     -10.727   4.331  -0.098  0.00  0.00    +0.151 C 
BRANCH  22  23
ATOM     23  C   UNL     1     -11.441   4.301  -1.451  0.00  0.00    +0.118 C 
BRANCH  23  24
ATOM     24  O   UNL     1     -11.185   5.520  -2.152  0.00  0.00    -0.392 OA
ATOM     25  H   UNL     1     -11.484   6.312  -1.686  0.00  0.00    +0.210 HD
ENDBRANCH  23  24
BRANCH  23  26
ATOM     26  C   UNL     1     -12.947   4.148  -1.229  0.00  0.00    -0.045 C 
BRANCH  26  34
ATOM     27  C   UNL     1     -15.405   5.483  -1.540  0.00  0.00    -0.013 C 
ATOM     28  C   UNL     1     -15.087   4.231  -2.359  0.00  0.00    -0.071 C 
ATOM     29  C   UNL     1     -15.754   4.337  -3.732  0.00  0.00    -0.016 C 
ATOM     30  C   UNL     1     -15.417   3.091  -4.556  0.00  0.00    -0.003 C 
ATOM     31  C   UNL     1     -13.896   2.965  -4.676  0.00  0.00    -0.016 C 
ATOM     32  C   UNL     1     -13.282   2.898  -3.275  0.00  0.00    -0.071 C 
ATOM     33  C   UNL     1     -13.824   1.672  -2.539  0.00  0.00    -0.013 C 
ATOM     34  N   UNL     1     -13.623   4.137  -2.543  0.00  0.00    +0.385 N 
ATOM     35  H   UNL     1     -13.303   4.945  -3.089  0.00  0.00    -0.081 HD
ENDBRANCH  26  34
ENDBRANCH  23  26
ENDBRANCH  22  23
ENDBRANCH   1  22
TORSDOF 8
