REMARK  Name = ZINC16364049
REMARK  8 active torsions:
REMARK  status: ('A' for Active; 'I' for Inactive)
REMARK    1  A    between atoms: C_1  and  N_2
REMARK    2  A    between atoms: C_11  and  C_14
REMARK    3  A    between atoms: C_14  and  C_16
REMARK    4  A    between atoms: C_16  and  C_17
REMARK    5  A    between atoms: C_17  and  C_19
REMARK    6  A    between atoms: C_17  and  N_28
REMARK    7  A    between atoms: N_28  and  C_29
REMARK    8  A    between atoms: C_35  and  N_39
REMARK                            x       y       z     vdW  Elec       q    Type
REMARK                         _______ _______ _______ _____ _____    ______ ____
ROOT
ATOM      1  C   UNL     1       4.213  -5.304   0.282  0.00  0.00    +0.108 C 
ENDROOT
BRANCH   1   2
ATOM      2  C   UNL     1       4.283  -6.750   0.701  0.00  0.00    -0.023 A 
ATOM      3  C   UNL     1       4.015  -7.102   2.011  0.00  0.00    +0.009 A 
ATOM      4  C   UNL     1       4.078  -8.427   2.400  0.00  0.00    +0.050 A 
ATOM      5  C   UNL     1       4.410  -9.406   1.477  0.00  0.00    +0.166 A 
ATOM      6  C   UNL     1       4.680  -9.051   0.157  0.00  0.00    +0.167 A 
ATOM      7  C   UNL     1       4.609  -7.721  -0.227  0.00  0.00    +0.055 A 
ATOM      8  O   UNL     1       4.978 -10.181  -0.546  0.00  0.00    -0.453 OA
ATOM      9  C   UNL     1       5.287 -11.180   0.444  0.00  0.00    +0.466 C 
ATOM     10  O   UNL     1       4.539 -10.759   1.600  0.00  0.00    -0.453 OA
ENDBRANCH   1   2
BRANCH   1  11
ATOM     11  N   UNL     1       4.790  -4.462   1.333  0.00  0.00    -0.336 N 
ATOM     12  H   UNL     1       4.215  -4.056   2.000  0.00  0.00    +0.147 HD
BRANCH  11  13
ATOM     13  C   UNL     1       6.165  -4.245   1.375  0.00  0.00    +0.037 A 
ATOM     14  C   UNL     1       6.968  -4.661   0.332  0.00  0.00    +0.023 A 
ATOM     15  C   UNL     1       8.342  -4.449   0.365  0.00  0.00    +0.002 A 
ATOM     16  C   UNL     1       8.932  -3.826   1.423  0.00  0.00    +0.009 A 
ATOM     17  C   UNL     1       8.150  -3.386   2.504  0.00  0.00    -0.014 A 
ATOM     18  C   UNL     1       6.749  -3.592   2.479  0.00  0.00    +0.024 A 
ATOM     19  C   UNL     1       5.965  -3.146   3.563  0.00  0.00    +0.034 A 
ATOM     20  C   UNL     1       6.575  -2.511   4.625  0.00  0.00    +0.023 A 
ATOM     21  C   UNL     1       7.952  -2.309   4.636  0.00  0.00    +0.002 A 
ATOM     22  C   UNL     1       8.734  -2.741   3.608  0.00  0.00    +0.009 A 
BRANCH  19  23
ATOM     23  N   UNL     1       4.586  -3.343   3.560  0.00  0.00    -0.357 N 
ATOM     24  H   UNL     1       4.224  -4.239   3.482  0.00  0.00    +0.142 HD
ATOM     25  H   UNL     1       3.987  -2.583   3.638  0.00  0.00    +0.142 HD
ENDBRANCH  19  23
ENDBRANCH  11  13
ENDBRANCH   1  11
BRANCH   1  26
ATOM     26  C   UNL     1       2.752  -4.908   0.056  0.00  0.00    +0.107 C 
BRANCH  26  27
ATOM     27  C   UNL     1       2.690  -3.501  -0.480  0.00  0.00    +0.174 C 
ATOM     28  O   UNL     1       3.714  -2.876  -0.664  0.00  0.00    -0.292 OA
BRANCH  27  39
ATOM     29  C   UNL     1       0.194   0.350  -2.070  0.00  0.00    +0.152 C 
ATOM     30  N   UNL     1       0.189  -1.019  -1.550  0.00  0.00    -0.310 N 
ATOM     31  C   UNL     1      -1.024  -1.654  -1.372  0.00  0.00    +0.055 A 
ATOM     32  C   UNL     1      -2.213  -0.999  -1.682  0.00  0.00    +0.026 A 
ATOM     33  C   UNL     1      -3.420  -1.638  -1.502  0.00  0.00    +0.002 A 
ATOM     34  C   UNL     1      -3.468  -2.936  -1.012  0.00  0.00    +0.001 A 
ATOM     35  C   UNL     1      -2.304  -3.603  -0.700  0.00  0.00    +0.014 A 
ATOM     36  C   UNL     1      -1.075  -2.967  -0.877  0.00  0.00    +0.046 A 
ATOM     37  C   UNL     1       0.190  -3.654  -0.551  0.00  0.00    +0.204 A 
ATOM     38  O   UNL     1       0.198  -4.794  -0.120  0.00  0.00    -0.286 OA
ATOM     39  C   UNL     1       1.438  -2.909  -0.769  0.00  0.00    +0.129 A 
ATOM     40  C   UNL     1       1.365  -1.607  -1.272  0.00  0.00    +0.266 A 
ATOM     41  O   UNL     1       2.505  -0.921  -1.479  0.00  0.00    -0.267 OA
ENDBRANCH  27  39
ENDBRANCH  26  27
ENDBRANCH   1  26
TORSDOF 7
