REMARK  Name = ZINC53111676
REMARK  5 active torsions:
REMARK  status: ('A' for Active; 'I' for Inactive)
REMARK    1  A    between atoms: C_3  and  N_19
REMARK    2  A    between atoms: C_4  and  C_8
REMARK    3  A    between atoms: N_10  and  C_11
REMARK    4  A    between atoms: C_11  and  C_17
REMARK    5  A    between atoms: C_17  and  O_18
REMARK                            x       y       z     vdW  Elec       q    Type
REMARK                         _______ _______ _______ _____ _____    ______ ____
ROOT
ATOM      1  C   UNL     1       2.566  -2.505   1.438  0.00  0.00    +0.246 C 
ATOM      2  O   UNL     1       2.765  -3.300   2.337  0.00  0.00    -0.270 OA
ATOM      3  N   UNL     1       3.532  -2.257   0.531  0.00  0.00    -0.304 N 
ATOM      4  H   UNL     1       3.400  -1.572  -0.142  0.00  0.00    +0.150 HD
ENDROOT
BRANCH   1   8
ATOM      5  C   UNL     1      -1.174  -0.505   1.161  0.00  0.00    +0.022 A 
ATOM      6  C   UNL     1      -0.911  -1.309   2.251  0.00  0.00    +0.025 A 
ATOM      7  C   UNL     1       0.307  -1.968   2.353  0.00  0.00    +0.037 A 
ATOM      8  C   UNL     1       1.268  -1.811   1.342  0.00  0.00    +0.059 A 
ATOM      9  C   UNL     1       0.989  -0.994   0.244  0.00  0.00    +0.035 A 
ATOM     10  C   UNL     1      -0.227  -0.347   0.161  0.00  0.00    +0.042 A 
ATOM     11 CL   UNL     1      -0.572   0.668  -1.205  0.00  0.00    -0.084 Cl
BRANCH   7  12
ATOM     12  N   UNL     1       0.573  -2.778   3.450  0.00  0.00    -0.357 N 
ATOM     13  H   UNL     1      -0.058  -2.821   4.185  0.00  0.00    +0.142 HD
ATOM     14  H   UNL     1       1.390  -3.301   3.480  0.00  0.00    +0.142 HD
ENDBRANCH   7  12
ENDBRANCH   1   8
BRANCH   3  15
ATOM     15  C   UNL     1       4.780  -3.023   0.563  0.00  0.00    +0.058 C 
ATOM     16  C   UNL     1       5.659  -2.615  -0.621  0.00  0.00    +0.028 C 
ATOM     17  C   UNL     1       4.918  -2.902  -1.929  0.00  0.00    +0.002 C 
ATOM     18  C   UNL     1       4.602  -4.396  -2.018  0.00  0.00    +0.000 C 
ATOM     19  C   UNL     1       3.724  -4.804  -0.834  0.00  0.00    +0.002 C 
ATOM     20  C   UNL     1       4.465  -4.517   0.473  0.00  0.00    +0.028 C 
BRANCH  15  21
ATOM     21  C   UNL     1       5.521  -2.736   1.871  0.00  0.00    +0.181 C 
BRANCH  21  22
ATOM     22  O   UNL     1       5.709  -1.326   2.012  0.00  0.00    -0.393 OA
ATOM     23  H   UNL     1       6.173  -1.071   2.821  0.00  0.00    +0.209 HD
ENDBRANCH  21  22
ENDBRANCH  15  21
ENDBRANCH   3  15
TORSDOF 5
