REMARK  Name = ZINC39627115
REMARK  11 active torsions:
REMARK  status: ('A' for Active; 'I' for Inactive)
REMARK    1  A    between atoms: C_1  and  C_2
REMARK    2  A    between atoms: C_2  and  N_3
REMARK    3  A    between atoms: N_3  and  C_4
REMARK    4  A    between atoms: N_3  and  C_6
REMARK    5  A    between atoms: C_4  and  C_5
REMARK    6  A    between atoms: C_6  and  C_7
REMARK    7  A    between atoms: C_7  and  N_8
REMARK    8  A    between atoms: C_9  and  C_11
REMARK    9  A    between atoms: C_22  and  C_24
REMARK   10  A    between atoms: C_25  and  C_35
REMARK   11  A    between atoms: C_28  and  C_29
REMARK                            x       y       z     vdW  Elec       q    Type
REMARK                         _______ _______ _______ _____ _____    ______ ____
ROOT
ATOM      1  C   UNL     1      -1.116  -5.536   3.501  0.00  0.00    +0.100 C 
ATOM      2  C   UNL     1      -2.614  -5.915   3.461  0.00  0.00    +0.121 C 
ATOM      3  N   UNL     1      -2.765  -6.954   4.506  0.00  0.00    -0.296 N 
ATOM      4  C   UNL     1      -1.899  -6.488   5.616  0.00  0.00    +0.115 C 
ATOM      5  C   UNL     1      -0.651  -5.913   4.918  0.00  0.00    -0.004 C 
ATOM      6  C   UNL     1      -0.157  -4.675   5.659  0.00  0.00    -0.010 C 
ATOM      7  C   UNL     1       0.355  -5.084   7.043  0.00  0.00    -0.082 C 
ATOM      8  N   UNL     1       1.442  -6.059   6.897  0.00  0.00    +0.379 N 
ATOM      9  C   UNL     1       0.935  -7.284   6.267  0.00  0.00    -0.082 C 
ATOM     10  C   UNL     1       0.449  -6.968   4.849  0.00  0.00    -0.010 C 
ATOM     11  C   UNL     1      -3.520  -8.069   4.459  0.00  0.00    +0.252 C 
ATOM     12  O   UNL     1      -3.539  -8.831   5.408  0.00  0.00    -0.270 OA
ATOM     13  H   UNL     1       2.171  -5.663   6.322  0.00  0.00    -0.086 HD
ATOM     14  H   UNL     1       1.818  -6.280   7.807  0.00  0.00    -0.086 HD
ENDROOT
BRANCH  11  15
ATOM     15  C   UNL     1      -4.320  -8.367   3.259  0.00  0.00    +0.106 A 
ATOM     16  C   UNL     1      -3.920  -9.089   2.173  0.00  0.00    +0.147 A 
ATOM     17  O   UNL     1      -4.932  -9.132   1.303  0.00  0.00    -0.359 OA
ATOM     18  N   UNL     1      -6.035  -8.418   1.827  0.00  0.00    -0.077 NA
ATOM     19  C   UNL     1      -5.707  -7.949   3.003  0.00  0.00    +0.126 A 
ATOM     20  C   UNL     1      -2.568  -9.729   1.987  0.00  0.00    +0.090 C 
BRANCH  19  21
ATOM     21  C   UNL     1      -6.567  -7.145   3.906  0.00  0.00    +0.004 A 
ATOM     22  C   UNL     1      -6.465  -7.296   5.287  0.00  0.00    +0.010 A 
ATOM     23  C   UNL     1      -7.269  -6.546   6.122  0.00  0.00    +0.001 A 
ATOM     24  C   UNL     1      -8.174  -5.646   5.589  0.00  0.00    +0.000 A 
ATOM     25  C   UNL     1      -8.280  -5.492   4.219  0.00  0.00    +0.001 A 
ATOM     26  C   UNL     1      -7.477  -6.233   3.375  0.00  0.00    +0.010 A 
ENDBRANCH  19  21
ENDBRANCH  11  15
BRANCH   1  28
ATOM     27  N   UNL     1       0.182  -3.594   2.687  0.00  0.00    -0.317 N 
ATOM     28  C   UNL     1      -0.943  -4.057   3.268  0.00  0.00    +0.218 C 
ATOM     29  O   UNL     1      -1.815  -3.284   3.604  0.00  0.00    -0.275 OA
ATOM     30  H   UNL     1       0.879  -4.212   2.418  0.00  0.00    +0.149 HD
BRANCH  27  31
ATOM     31  C   UNL     1       0.350  -2.156   2.460  0.00  0.00    +0.085 C 
BRANCH  31  32
ATOM     32  C   UNL     1       1.702  -1.901   1.792  0.00  0.00    -0.060 C 
BRANCH  32  33
ATOM     33  N   UNL     1       1.872  -0.459   1.565  0.00  0.00    +0.380 N 
ATOM     34  H   UNL     1       1.088  -0.108   1.035  0.00  0.00    -0.082 HD
BRANCH  33  36
ATOM     35  C   UNL     1       1.972   1.747   2.623  0.00  0.00    -0.017 C 
ATOM     36  C   UNL     1       1.940   0.235   2.857  0.00  0.00    -0.082 C 
ENDBRANCH  33  36
BRANCH  33  37
ATOM     37  C   UNL     1       3.114  -0.224   0.816  0.00  0.00    -0.082 C 
ATOM     38  C   UNL     1       2.986  -0.825  -0.585  0.00  0.00    -0.017 C 
ENDBRANCH  33  37
ENDBRANCH  32  33
ENDBRANCH  31  32
ENDBRANCH  27  31
ENDBRANCH   1  28
TORSDOF 8
