REMARK  Name = ZINC13113348
REMARK  6 active torsions:
REMARK  status: ('A' for Active; 'I' for Inactive)
REMARK    1  A    between atoms: C_1  and  C_2
REMARK    2  A    between atoms: C_12  and  C_14
REMARK    3  A    between atoms: C_14  and  C_16
REMARK    4  A    between atoms: C_14  and  N_17
REMARK    5  A    between atoms: C_20  and  C_24
REMARK    6  A    between atoms: C_20  and  C_25
REMARK                            x       y       z     vdW  Elec       q    Type
REMARK                         _______ _______ _______ _____ _____    ______ ____
ROOT
ATOM      1  N   UNL     1      -0.508  -5.136  -1.963  0.00  0.00    -0.212 N 
ATOM      2  C   UNL     1      -0.951  -4.612  -0.799  0.00  0.00    +0.251 C 
ATOM      3  O   UNL     1      -1.958  -4.910  -0.194  0.00  0.00    -0.272 OA
ATOM      4  C   UNL     1       0.077  -3.568  -0.408  0.00  0.00    +0.135 C 
ATOM      5  N   UNL     1       1.071  -3.633  -1.494  0.00  0.00    -0.281 N 
ATOM      6  C   UNL     1       0.643  -4.576  -2.352  0.00  0.00    +0.310 C 
ATOM      7  O   UNL     1       1.235  -4.885  -3.367  0.00  0.00    -0.252 OA
ATOM      8  C   UNL     1       0.721  -3.923   0.933  0.00  0.00    +0.047 C 
ATOM      9  H   UNL     1       1.878  -3.100  -1.573  0.00  0.00    +0.152 HD
ENDROOT
BRANCH   4  10
ATOM     10  C   UNL     1      -0.553  -2.200  -0.348  0.00  0.00    -0.015 A 
ATOM     11  C   UNL     1      -1.876  -2.064   0.030  0.00  0.00    +0.006 A 
ATOM     12  C   UNL     1      -2.451  -0.809   0.085  0.00  0.00    +0.004 A 
ATOM     13  C   UNL     1      -1.707   0.313  -0.238  0.00  0.00    -0.044 A 
ATOM     14  C   UNL     1      -0.384   0.177  -0.616  0.00  0.00    -0.044 A 
ATOM     15  C   UNL     1       0.191  -1.082  -0.670  0.00  0.00    +0.010 A 
ATOM     16  C   UNL     1       0.206   1.538  -0.915  0.00  0.00    +0.036 C 
ATOM     17  C   UNL     1      -0.761   2.550  -0.262  0.00  0.00    +0.009 C 
ATOM     18  C   UNL     1      -2.096   1.776  -0.258  0.00  0.00    +0.036 C 
ENDBRANCH   4  10
BRANCH   1  19
ATOM     19  C   UNL     1      -1.203  -6.191  -2.706  0.00  0.00    +0.169 C 
ATOM     20  C   UNL     1      -0.289  -7.412  -2.831  0.00  0.00    +0.038 C 
BRANCH  19  31
ATOM     21  C   UNL     1      -3.921  -7.518  -3.391  0.00  0.00    +0.029 C 
ATOM     22  C   UNL     1      -2.928  -7.722  -4.538  0.00  0.00    +0.083 C 
ATOM     23  C   UNL     1      -3.665  -8.190  -5.803  0.00  0.00    +0.059 C 
ATOM     24  C   UNL     1      -3.394  -7.107  -6.824  0.00  0.00    -0.024 A 
ATOM     25  C   UNL     1      -3.797  -6.981  -8.140  0.00  0.00    +0.005 A 
ATOM     26  C   UNL     1      -3.427  -5.870  -8.875  0.00  0.00    +0.000 A 
ATOM     27  C   UNL     1      -2.640  -4.892  -8.296  0.00  0.00    +0.002 A 
ATOM     28  C   UNL     1      -2.232  -5.016  -6.985  0.00  0.00    +0.024 A 
ATOM     29  C   UNL     1      -2.609  -6.130  -6.233  0.00  0.00    +0.040 A 
ATOM     30  N   UNL     1      -2.307  -6.446  -4.904  0.00  0.00    -0.267 N 
ATOM     31  C   UNL     1      -1.558  -5.687  -4.081  0.00  0.00    +0.241 C 
ATOM     32  O   UNL     1      -1.170  -4.597  -4.446  0.00  0.00    -0.273 OA
ENDBRANCH  19  31
ENDBRANCH   1  19
TORSDOF 3
