REMARK  Name = ZINC39660800
REMARK  6 active torsions:
REMARK  status: ('A' for Active; 'I' for Inactive)
REMARK    1  A    between atoms: C_4  and  C_7
REMARK    2  A    between atoms: C_7  and  C_8
REMARK    3  A    between atoms: C_8  and  C_9
REMARK    4  A    between atoms: C_9  and  C_10
REMARK    5  A    between atoms: C_14  and  C_23
REMARK    6  A    between atoms: N_25  and  C_26
REMARK                            x       y       z     vdW  Elec       q    Type
REMARK                         _______ _______ _______ _____ _____    ______ ____
ROOT
ATOM      1  C   UNL     1       5.931  -2.085   2.480  0.00  0.00    +0.216 C 
ATOM      2  O   UNL     1       5.166  -1.700   3.339  0.00  0.00    -0.276 OA
ATOM      3  N   UNL     1       7.088  -2.683   2.827  0.00  0.00    -0.300 N 
ATOM      4  C   UNL     1       8.142  -3.209   1.929  0.00  0.00    +0.121 C 
ATOM      5  C   UNL     1       9.470  -2.836   2.626  0.00  0.00    +0.100 C 
ATOM      6  C   UNL     1       9.103  -2.677   4.111  0.00  0.00    -0.004 C 
ATOM      7  C   UNL     1       7.596  -2.956   4.193  0.00  0.00    +0.115 C 
ATOM      8  C   UNL     1       9.396  -1.254   4.578  0.00  0.00    -0.010 C 
ATOM      9  C   UNL     1       9.076  -1.137   6.071  0.00  0.00    -0.082 C 
ATOM     10  N   UNL     1       9.891  -2.098   6.824  0.00  0.00    +0.379 N 
ATOM     11  C   UNL     1       9.537  -3.468   6.435  0.00  0.00    -0.082 C 
ATOM     12  C   UNL     1       9.875  -3.684   4.957  0.00  0.00    -0.010 C 
ATOM     13  H   UNL     1      10.867  -1.936   6.629  0.00  0.00    -0.086 HD
ATOM     14  H   UNL     1       9.724  -1.977   7.812  0.00  0.00    -0.086 HD
ENDROOT
BRANCH   5  15
ATOM     15  C   UNL     1      10.006  -1.540   2.073  0.00  0.00    +0.219 C 
ATOM     16  O   UNL     1       9.241  -0.693   1.663  0.00  0.00    -0.275 OA
ATOM     17  N   UNL     1      11.335  -1.323   2.035  0.00  0.00    -0.302 N 
ATOM     18  H   UNL     1      11.947  -2.000   2.364  0.00  0.00    +0.150 HD
BRANCH  17  19
ATOM     19  C   UNL     1      11.856  -0.063   1.498  0.00  0.00    +0.185 C 
ATOM     20  C   UNL     1      13.320  -0.240   1.020  0.00  0.00    +0.075 C 
ATOM     21  C   UNL     1      13.957   1.074   1.547  0.00  0.00    +0.234 C 
ATOM     22  O   UNL     1      13.250   1.295   2.786  0.00  0.00    -0.463 OA
ATOM     23  C   UNL     1      11.950   0.983   2.593  0.00  0.00    +0.328 C 
ATOM     24  O   UNL     1      11.015   1.459   3.192  0.00  0.00    -0.249 OA
ENDBRANCH  17  19
ENDBRANCH   5  15
BRANCH   1  25
ATOM     25  C   UNL     1       5.587  -1.895   1.025  0.00  0.00    +0.096 C 
BRANCH  25  26
ATOM     26  C   UNL     1       4.231  -1.197   0.909  0.00  0.00    +0.014 C 
BRANCH  26  27
ATOM     27  C   UNL     1       3.882  -1.004  -0.569  0.00  0.00    +0.035 C 
BRANCH  27  31
ATOM     28  C   UNL     1       0.095   0.946  -0.897  0.00  0.00    +0.000 A 
ATOM     29  C   UNL     1       1.255   1.695  -0.833  0.00  0.00    +0.000 A 
ATOM     30  C   UNL     1       2.480   1.064  -0.727  0.00  0.00    +0.003 A 
ATOM     31  C   UNL     1       2.546  -0.316  -0.684  0.00  0.00    -0.047 A 
ATOM     32  C   UNL     1       1.386  -1.065  -0.747  0.00  0.00    +0.003 A 
ATOM     33  C   UNL     1       0.160  -0.434  -0.854  0.00  0.00    +0.000 A 
ENDBRANCH  27  31
ENDBRANCH  26  27
ENDBRANCH  25  26
ENDBRANCH   1  25
TORSDOF 6
