REMARK  Name = ZINC40570572
REMARK  2 active torsions:
REMARK  status: ('A' for Active; 'I' for Inactive)
REMARK    1  A    between atoms: C_1  and  C_2
REMARK    2  A    between atoms: C_13  and  C_14
REMARK                            x       y       z     vdW  Elec       q    Type
REMARK                         _______ _______ _______ _____ _____    ______ ____
ROOT
ATOM      1  C   UNL     1      -0.019   1.526   0.010  0.00  0.00    +0.007 C 
ATOM      2  C   UNL     1       0.002  -0.004   0.002  0.00  0.00    -0.011 C 
ATOM      3  C   UNL     1      -1.434  -0.533   0.011  0.00  0.00    +0.022 C 
ATOM      4  C   UNL     1      -1.409  -2.065  -0.032  0.00  0.00    +0.107 C 
ATOM      5  N   UNL     1      -0.578  -2.556   1.075  0.00  0.00    -0.311 N 
ATOM      6  C   UNL     1       0.791  -2.042   1.212  0.00  0.00    +0.107 C 
ATOM      7  C   UNL     1       0.742  -0.511   1.242  0.00  0.00    +0.022 C 
ATOM      8  C   UNL     1      -1.071  -3.477   1.964  0.00  0.00    +0.154 C 
ATOM      9  N   UNL     1      -2.267  -4.042   1.982  0.00  0.00    -0.154 NA
ATOM     10  C   UNL     1      -2.618  -4.919   2.898  0.00  0.00    +0.276 C 
ATOM     11  O   UNL     1      -3.726  -5.435   2.905  0.00  0.00    -0.267 OA
ATOM     12  C   UNL     1      -1.601  -5.247   3.918  0.00  0.00    +0.079 C 
ATOM     13  C   UNL     1      -1.670  -6.104   4.974  0.00  0.00    +0.030 C 
ATOM     14  S   UNL     1      -0.252  -4.209   3.371  0.00  0.00    -0.052 S 
ENDROOT
BRANCH  13  15
ATOM     15  C   UNL     1      -0.519  -6.266   5.860  0.00  0.00    +0.001 A 
ATOM     16  C   UNL     1       0.687  -5.627   5.763  0.00  0.00    +0.091 A 
ATOM     17  N   UNL     1       1.504  -6.037   6.765  0.00  0.00    -0.360 N 
ATOM     18  H   UNL     1       2.411  -5.722   6.902  0.00  0.00    +0.165 HD
ATOM     19  C   UNL     1       0.862  -6.964   7.561  0.00  0.00    +0.047 A 
ATOM     20  C   UNL     1      -0.429  -7.146   7.041  0.00  0.00    +0.007 A 
ATOM     21  C   UNL     1      -1.310  -8.031   7.655  0.00  0.00    +0.010 A 
ATOM     22  C   UNL     1      -0.910  -8.724   8.778  0.00  0.00    +0.001 A 
ATOM     23  C   UNL     1       0.363  -8.542   9.295  0.00  0.00    +0.002 A 
ATOM     24  C   UNL     1       1.249  -7.675   8.692  0.00  0.00    +0.026 A 
ENDBRANCH  13  15
TORSDOF 1
