REMARK  Name = ZINC09666541
REMARK  8 active torsions:
REMARK  status: ('A' for Active; 'I' for Inactive)
REMARK    1  A    between atoms: C_1  and  N_2
REMARK    2  A    between atoms: C_6  and  C_29
REMARK    3  A    between atoms: C_11  and  S_12
REMARK    4  A    between atoms: S_12  and  C_13
REMARK    5  A    between atoms: C_13  and  C_14
REMARK    6  A    between atoms: N_16  and  C_17
REMARK    7  A    between atoms: C_22  and  C_23
REMARK    8  A    between atoms: N_25  and  C_26
REMARK                            x       y       z     vdW  Elec       q    Type
REMARK                         _______ _______ _______ _____ _____    ______ ____
ROOT
ATOM      1  S   UNL     1       1.107  -2.415   0.019  0.00  0.00    -0.078 S 
ENDROOT
BRANCH   1  12
ATOM      2  C   UNL     1       3.560  -0.749   0.022  0.00  0.00    +0.154 C 
ATOM      3  N   UNL     1       2.309   0.013   0.053  0.00  0.00    -0.290 N 
ATOM      4  C   UNL     1       2.355   1.358   0.078  0.00  0.00    +0.263 A 
ATOM      5  O   UNL     1       3.427   1.938   0.076  0.00  0.00    -0.267 OA
ATOM      6  C   UNL     1       1.132   2.096   0.108  0.00  0.00    +0.080 A 
ATOM      7  C   UNL     1       0.929   3.542   0.139  0.00  0.00    +0.004 A 
ATOM      8  C   UNL     1      -0.336   4.021   0.163  0.00  0.00    +0.056 A 
ATOM      9  S   UNL     1      -1.338   2.547   0.139  0.00  0.00    -0.076 S 
ATOM     10  C   UNL     1      -0.046   1.331   0.107  0.00  0.00    +0.117 A 
ATOM     11  N   UNL     1      -0.024   0.004   0.080  0.00  0.00    -0.216 NA
ATOM     12  C   UNL     1       1.118  -0.653   0.053  0.00  0.00    +0.173 A 
BRANCH   7  13
ATOM     13  C   UNL     1       2.087   4.467   0.143  0.00  0.00    -0.017 A 
ATOM     14  C   UNL     1       3.127   4.284   1.054  0.00  0.00    +0.008 A 
ATOM     15  C   UNL     1       4.205   5.144   1.049  0.00  0.00    +0.001 A 
ATOM     16  C   UNL     1       4.251   6.194   0.150  0.00  0.00    +0.000 A 
ATOM     17  C   UNL     1       3.220   6.385  -0.752  0.00  0.00    +0.001 A 
ATOM     18  C   UNL     1       2.139   5.527  -0.761  0.00  0.00    +0.008 A 
ENDBRANCH   7  13
ENDBRANCH   1  12
BRANCH   1  19
ATOM     19  C   UNL     1      -0.677  -2.719   0.035  0.00  0.00    +0.173 C 
BRANCH  19  20
ATOM     20  C   UNL     1      -0.934  -4.204   0.009  0.00  0.00    +0.228 C 
ATOM     21  O   UNL     1      -0.002  -4.980  -0.018  0.00  0.00    -0.275 OA
ATOM     22  N   UNL     1      -2.199  -4.669   0.015  0.00  0.00    -0.284 N 
ATOM     23  H   UNL     1      -2.942  -4.052   0.102  0.00  0.00    +0.155 HD
BRANCH  22  24
ATOM     24  C   UNL     1      -2.438  -6.036  -0.102  0.00  0.00    +0.046 A 
ATOM     25  C   UNL     1      -1.566  -6.949   0.475  0.00  0.00    +0.024 A 
ATOM     26  C   UNL     1      -1.808  -8.303   0.361  0.00  0.00    +0.002 A 
ATOM     27  C   UNL     1      -2.914  -8.762  -0.336  0.00  0.00    +0.001 A 
ATOM     28  C   UNL     1      -3.788  -7.870  -0.920  0.00  0.00    +0.015 A 
ATOM     29  C   UNL     1      -3.559  -6.497  -0.809  0.00  0.00    +0.058 A 
BRANCH  29  30
ATOM     30  C   UNL     1      -4.489  -5.537  -1.432  0.00  0.00    +0.246 C 
ATOM     31  O   UNL     1      -4.235  -4.348  -1.419  0.00  0.00    -0.270 OA
ATOM     32  N   UNL     1      -5.622  -5.978  -2.016  0.00  0.00    -0.308 N 
ATOM     33  H   UNL     1      -5.824  -6.926  -2.026  0.00  0.00    +0.149 HD
BRANCH  32  34
ATOM     34  C   UNL     1      -6.546  -5.024  -2.634  0.00  0.00    +0.073 C 
ATOM     35  C   UNL     1      -8.041  -5.216  -2.370  0.00  0.00    +0.024 C 
ATOM     36  C   UNL     1      -7.458  -5.545  -3.747  0.00  0.00    +0.024 C 
ENDBRANCH  32  34
ENDBRANCH  29  30
ENDBRANCH  22  24
ENDBRANCH  19  20
ENDBRANCH   1  19
TORSDOF 7
