REMARK  Name = ZINC44419242
REMARK  4 active torsions:
REMARK  status: ('A' for Active; 'I' for Inactive)
REMARK    1  A    between atoms: C_3  and  C_6
REMARK    2  A    between atoms: C_8  and  C_12
REMARK    3  A    between atoms: C_14  and  C_17
REMARK    4  A    between atoms: N_22  and  C_24
REMARK                            x       y       z     vdW  Elec       q    Type
REMARK                         _______ _______ _______ _____ _____    ______ ____
ROOT
ATOM      1  C   UNL     1       7.395   1.421  -0.078  0.00  0.00    +0.276 A 
ATOM      2  N   UNL     1       8.428   2.237  -0.068  0.00  0.00    -0.190 NA
ATOM      3  C   UNL     1       9.562   1.536  -0.094  0.00  0.00    +0.177 A 
ATOM      4  N   UNL     1       9.279   0.264  -0.121  0.00  0.00    -0.060 NA
ATOM      5  O   UNL     1       7.863   0.160  -0.106  0.00  0.00    -0.331 OA
ENDROOT
BRANCH   1   8
ATOM      6  C   UNL     1       3.739   1.764  -0.032  0.00  0.00    +0.100 A 
ATOM      7  C   UNL     1       4.901   0.976  -0.059  0.00  0.00    +0.063 A 
ATOM      8  C   UNL     1       5.977   1.819  -0.055  0.00  0.00    +0.123 A 
ATOM      9  N   UNL     1       5.497   3.098  -0.026  0.00  0.00    -0.272 N 
ATOM     10  H   UNL     1       6.031   3.908  -0.017  0.00  0.00    +0.189 HD
ATOM     11  N   UNL     1       4.098   3.033  -0.017  0.00  0.00    -0.173 NA
BRANCH   6  14
ATOM     12  C   UNL     1      -0.015   1.264  -0.007  0.00  0.00    +0.008 A 
ATOM     13  C   UNL     1       1.175   1.961  -0.007  0.00  0.00    +0.018 A 
ATOM     14  C   UNL     1       2.349   1.258  -0.027  0.00  0.00    +0.039 A 
ATOM     15  S   UNL     1       1.766  -0.430  -0.048  0.00  0.00    -0.095 S 
ATOM     16  C   UNL     1       0.013  -0.092  -0.028  0.00  0.00    +0.046 A 
ENDBRANCH   6  14
ENDBRANCH   1   8
BRANCH   3  17
ATOM     17  C   UNL     1      10.951   2.121  -0.093  0.00  0.00    +0.087 C 
ATOM     18  C   UNL     1      11.768   1.610  -1.303  0.00  0.00    +0.109 C 
ATOM     19  C   UNL     1      13.169   1.439  -0.759  0.00  0.00    +0.221 C 
ATOM     20  O   UNL     1      14.168   1.325  -1.437  0.00  0.00    -0.275 OA
ATOM     21  N   UNL     1      13.146   1.433   0.585  0.00  0.00    -0.271 N 
ATOM     22  C   UNL     1      11.777   1.583   1.096  0.00  0.00    +0.125 C 
BRANCH  21  23
ATOM     23  C   UNL     1      14.281   1.300   1.395  0.00  0.00    +0.040 A 
ATOM     24  C   UNL     1      14.168   1.418   2.774  0.00  0.00    +0.027 A 
ATOM     25  C   UNL     1      15.287   1.287   3.574  0.00  0.00    +0.051 A 
ATOM     26  C   UNL     1      16.525   1.038   3.003  0.00  0.00    +0.166 A 
ATOM     27  C   UNL     1      16.641   0.920   1.620  0.00  0.00    +0.168 A 
ATOM     28  C   UNL     1      15.518   1.046   0.819  0.00  0.00    +0.073 A 
ATOM     29  O   UNL     1      17.949   0.679   1.311  0.00  0.00    -0.453 OA
ATOM     30  C   UNL     1      18.697   1.057   2.482  0.00  0.00    +0.466 C 
ATOM     31  O   UNL     1      17.761   0.872   3.560  0.00  0.00    -0.453 OA
ENDBRANCH  21  23
ENDBRANCH   3  17
TORSDOF 4
