REMARK  Name = ZINC64970738
REMARK  11 active torsions:
REMARK  status: ('A' for Active; 'I' for Inactive)
REMARK    1  A    between atoms: C_1  and  C_2
REMARK    2  A    between atoms: C_2  and  C_3
REMARK    3  A    between atoms: N_9  and  C_10
REMARK    4  A    between atoms: C_10  and  C_11
REMARK    5  A    between atoms: C_11  and  C_12
REMARK    6  A    between atoms: C_12  and  N_13
REMARK    7  A    between atoms: C_14  and  C_16
REMARK    8  A    between atoms: C_16  and  N_17
REMARK    9  A    between atoms: C_21  and  C_34
REMARK   10  A    between atoms: N_22  and  C_28
REMARK   11  A    between atoms: C_25  and  C_27
REMARK                            x       y       z     vdW  Elec       q    Type
REMARK                         _______ _______ _______ _____ _____    ______ ____
ROOT
ATOM      1  N   UNL     1       7.513   6.314  -0.353  0.00  0.00    -0.220 N 
ATOM      2  C   UNL     1       7.573   6.909   0.857  0.00  0.00    +0.279 A 
ATOM      3  O   UNL     1       7.480   6.251   1.877  0.00  0.00    -0.265 OA
ATOM      4  C   UNL     1       7.752   8.362   0.919  0.00  0.00    +0.091 A 
ATOM      5  C   UNL     1       7.856   9.299   1.917  0.00  0.00    +0.055 A 
ATOM      6  N   UNL     1       8.012  10.502   1.336  0.00  0.00    -0.236 N 
ATOM      7  N   UNL     1       8.011  10.361  -0.057  0.00  0.00    -0.164 NA
ATOM      8  C   UNL     1       7.857   9.093  -0.357  0.00  0.00    +0.121 A 
ATOM      9  C   UNL     1       7.774   8.315  -1.597  0.00  0.00    +0.086 A 
ATOM     10  N   UNL     1       7.620   7.028  -1.544  0.00  0.00    -0.171 NA
ATOM     11  C   UNL     1       7.875   9.009  -2.930  0.00  0.00    +0.070 C 
ATOM     12  C   UNL     1       7.805   9.027   3.398  0.00  0.00    +0.066 C 
ENDROOT
BRANCH   6  13
ATOM     13  C   UNL     1       8.155  11.715   2.023  0.00  0.00    +0.066 A 
ATOM     14  C   UNL     1       8.977  11.790   3.139  0.00  0.00    +0.028 A 
ATOM     15  C   UNL     1       9.115  12.988   3.814  0.00  0.00    +0.002 A 
ATOM     16  C   UNL     1       8.435  14.111   3.378  0.00  0.00    +0.000 A 
ATOM     17  C   UNL     1       7.616  14.039   2.267  0.00  0.00    +0.002 A 
ATOM     18  C   UNL     1       7.478  12.846   1.585  0.00  0.00    +0.028 A 
ENDBRANCH   6  13
BRANCH   1  19
ATOM     19  C   UNL     1       7.334   4.862  -0.416  0.00  0.00    +0.243 C 
BRANCH  19  21
ATOM     20  N   UNL     1       5.457   3.254  -0.520  0.00  0.00    -0.314 N 
ATOM     21  C   UNL     1       5.863   4.538  -0.460  0.00  0.00    +0.235 C 
ATOM     22  O   UNL     1       5.044   5.432  -0.441  0.00  0.00    -0.274 OA
ATOM     23  H   UNL     1       6.112   2.538  -0.536  0.00  0.00    +0.149 HD
BRANCH  20  24
ATOM     24  C   UNL     1       4.027   2.939  -0.563  0.00  0.00    +0.102 C 
BRANCH  24  25
ATOM     25  C   UNL     1       3.840   1.422  -0.629  0.00  0.00    +0.000 C 
BRANCH  25  26
ATOM     26  C   UNL     1       2.346   1.093  -0.674  0.00  0.00    -0.077 C 
BRANCH  26  32
ATOM     27  C   UNL     1       0.737  -0.682  -0.660  0.00  0.00    -0.069 C 
ATOM     28  C   UNL     1       0.550  -2.201  -0.644  0.00  0.00    -0.015 C 
ATOM     29  C   UNL     1       1.140  -2.796  -1.925  0.00  0.00    -0.003 C 
ATOM     30  C   UNL     1       2.613  -2.394  -2.032  0.00  0.00    -0.019 C 
ATOM     31  C   UNL     1       2.724  -0.868  -1.998  0.00  0.00    -0.078 C 
ATOM     32  N   UNL     1       2.167  -0.363  -0.737  0.00  0.00    +0.382 N 
ATOM     33  H   UNL     1       2.649  -0.793   0.039  0.00  0.00    -0.081 HD
BRANCH  27  35
ATOM     34  C   UNL     1      -1.359  -0.338   0.655  0.00  0.00    +0.002 C 
ATOM     35  C   UNL     1       0.149  -0.083   0.619  0.00  0.00    -0.019 C 
ENDBRANCH  27  35
ENDBRANCH  26  32
ENDBRANCH  25  26
ENDBRANCH  24  25
ENDBRANCH  20  24
ENDBRANCH  19  21
ENDBRANCH   1  19
TORSDOF 8
