REMARK  Name = ZINC35991345
REMARK  13 active torsions:
REMARK  status: ('A' for Active; 'I' for Inactive)
REMARK    1  A    between atoms: C_1  and  C_2
REMARK    2  A    between atoms: C_2  and  N_3
REMARK    3  A    between atoms: C_4  and  C_24
REMARK    4  A    between atoms: C_5  and  C_19
REMARK    5  A    between atoms: C_6  and  C_11
REMARK    6  A    between atoms: C_15  and  O_17
REMARK    7  A    between atoms: O_17  and  C_18
REMARK    8  A    between atoms: C_19  and  O_21
REMARK    9  A    between atoms: O_21  and  C_22
REMARK   10  A    between atoms: C_22  and  C_23
REMARK   11  A    between atoms: C_24  and  N_25
REMARK   12  A    between atoms: N_28  and  C_31
REMARK   13  A    between atoms: C_31  and  C_32
REMARK                            x       y       z     vdW  Elec       q    Type
REMARK                         _______ _______ _______ _____ _____    ______ ____
ROOT
ATOM      1  N   UNL     1       0.768  -0.412  -1.193  0.00  0.00    -0.258 N 
ATOM      2  C   UNL     1      -0.024  -0.546  -2.298  0.00  0.00    +0.041 C 
ATOM      3  C   UNL     1       0.468  -1.046  -3.452  0.00  0.00    +0.080 C 
ATOM      4  C   UNL     1       1.927  -1.454  -3.478  0.00  0.00    +0.144 C 
ATOM      5  N   UNL     1       2.694  -1.269  -2.235  0.00  0.00    -0.288 N 
ATOM      6  C   UNL     1       2.063  -0.751  -1.163  0.00  0.00    +0.307 C 
ATOM      7  O   UNL     1       2.688  -0.591  -0.133  0.00  0.00    -0.252 OA
ATOM      8  H   UNL     1       3.632  -1.511  -2.189  0.00  0.00    +0.151 HD
ENDROOT
BRANCH   4   9
ATOM      9  C   UNL     1       2.610  -0.665  -4.566  0.00  0.00    -0.019 A 
ATOM     10  C   UNL     1       3.000   0.641  -4.331  0.00  0.00    +0.006 A 
ATOM     11  C   UNL     1       3.626   1.367  -5.327  0.00  0.00    +0.004 A 
ATOM     12  C   UNL     1       3.864   0.790  -6.559  0.00  0.00    +0.045 A 
ATOM     13  C   UNL     1       3.474  -0.520  -6.797  0.00  0.00    +0.120 A 
ATOM     14  C   UNL     1       2.851  -1.249  -5.794  0.00  0.00    +0.051 A 
BRANCH  13  15
ATOM     15  O   UNL     1       3.707  -1.090  -8.009  0.00  0.00    -0.495 OA
ATOM     16  C   UNL     1       4.358  -0.283  -8.992  0.00  0.00    +0.277 C 
ENDBRANCH  13  15
ENDBRANCH   4   9
BRANCH   1  18
ATOM     17  C   UNL     1       0.318   1.661   0.024  0.00  0.00    +0.025 C 
ATOM     18  C   UNL     1       0.168   0.138   0.025  0.00  0.00    +0.111 C 
ENDBRANCH   1  18
BRANCH   3  19
ATOM     19  C   UNL     1      -0.351  -1.186  -4.596  0.00  0.00    +0.339 C 
ATOM     20  O   UNL     1      -0.802  -2.277  -4.892  0.00  0.00    -0.245 OA
BRANCH  19  21
ATOM     21  O   UNL     1      -0.632  -0.110  -5.360  0.00  0.00    -0.462 OA
BRANCH  21  22
ATOM     22  C   UNL     1      -1.466  -0.324  -6.501  0.00  0.00    +0.229 C 
ATOM     23  C   UNL     1      -1.672   1.001  -7.238  0.00  0.00    +0.048 C 
ENDBRANCH  21  22
ENDBRANCH  19  21
ENDBRANCH   3  19
BRANCH   2  24
ATOM     24  C   UNL     1      -1.470  -0.129  -2.228  0.00  0.00    +0.136 C 
BRANCH  24  25
ATOM     25  N   UNL     1      -2.194  -1.022  -1.314  0.00  0.00    -0.300 NA
ATOM     26  C   UNL     1      -2.256  -2.389  -1.852  0.00  0.00    +0.066 C 
ATOM     27  C   UNL     1      -2.963  -3.298  -0.846  0.00  0.00    -0.063 C 
ATOM     28  N   UNL     1      -4.319  -2.791  -0.595  0.00  0.00    +0.384 N 
ATOM     29  C   UNL     1      -4.240  -1.435  -0.035  0.00  0.00    -0.063 C 
ATOM     30  C   UNL     1      -3.543  -0.510  -1.035  0.00  0.00    +0.066 C 
ATOM     31  H   UNL     1      -4.834  -2.767  -1.462  0.00  0.00    -0.081 HD
BRANCH  28  32
ATOM     32  C   UNL     1      -5.004  -3.675   0.357  0.00  0.00    -0.043 C 
BRANCH  32  33
ATOM     33  C   UNL     1      -6.434  -3.225   0.520  0.00  0.00    -0.064 A 
ATOM     34  C   UNL     1      -6.760  -2.299   1.492  0.00  0.00    +0.002 A 
ATOM     35  C   UNL     1      -8.071  -1.887   1.642  0.00  0.00    +0.000 A 
ATOM     36  C   UNL     1      -9.056  -2.401   0.819  0.00  0.00    +0.000 A 
ATOM     37  C   UNL     1      -8.729  -3.327  -0.154  0.00  0.00    +0.000 A 
ATOM     38  C   UNL     1      -7.417  -3.736  -0.306  0.00  0.00    +0.002 A 
ENDBRANCH  32  33
ENDBRANCH  28  32
ENDBRANCH  24  25
ENDBRANCH   2  24
TORSDOF 10
