REMARK  Name = ZINC23714514
REMARK  13 active torsions:
REMARK  status: ('A' for Active; 'I' for Inactive)
REMARK    1  A    between atoms: C_1  and  C_2
REMARK    2  A    between atoms: C_2  and  C_3
REMARK    3  A    between atoms: C_2  and  N_4
REMARK    4  A    between atoms: C_10  and  N_16
REMARK    5  A    between atoms: C_11  and  C_12
REMARK    6  A    between atoms: N_14  and  C_15
REMARK    7  A    between atoms: C_17  and  C_19
REMARK    8  A    between atoms: C_22  and  S_25
REMARK    9  A    between atoms: S_25  and  N_28
REMARK   10  A    between atoms: N_28  and  C_29
REMARK   11  A    between atoms: N_28  and  C_32
REMARK   12  A    between atoms: C_29  and  C_30
REMARK   13  A    between atoms: C_32  and  C_33
REMARK                            x       y       z     vdW  Elec       q    Type
REMARK                         _______ _______ _______ _____ _____    ______ ____
ROOT
ATOM      1  N   UNL     1      -7.425  -0.871  -1.817  0.00  0.00    -0.275 N 
ATOM      2  C   UNL     1      -7.894  -0.092  -2.812  0.00  0.00    +0.249 C 
ATOM      3  O   UNL     1      -7.146   0.674  -3.388  0.00  0.00    -0.270 OA
ATOM      4  H   UNL     1      -8.022  -1.483  -1.358  0.00  0.00    +0.156 HD
ENDROOT
BRANCH   1  11
ATOM      5  N   UNL     1      -1.441  -0.258   0.104  0.00  0.00    +0.384 N 
ATOM      6  C   UNL     1      -1.671  -1.690   0.331  0.00  0.00    -0.073 C 
ATOM      7  C   UNL     1      -3.125  -1.933   0.749  0.00  0.00    +0.018 C 
ATOM      8  C   UNL     1      -4.025  -1.256  -0.276  0.00  0.00    -0.027 A 
ATOM      9  C   UNL     1      -3.519  -0.320  -1.111  0.00  0.00    -0.021 A 
ATOM     10  S   UNL     1      -4.892   0.179  -2.106  0.00  0.00    -0.079 S 
ATOM     11  C   UNL     1      -6.091  -0.800  -1.452  0.00  0.00    +0.085 A 
ATOM     12  C   UNL     1      -5.438  -1.520  -0.461  0.00  0.00    +0.068 A 
ATOM     13  C   UNL     1      -2.102   0.159  -1.147  0.00  0.00    -0.035 C 
ATOM     14  H   UNL     1      -1.821   0.269   0.876  0.00  0.00    -0.081 HD
BRANCH  12  15
ATOM     15  C   UNL     1      -6.147  -2.504   0.362  0.00  0.00    +0.246 C 
ATOM     16  O   UNL     1      -6.674  -2.160   1.404  0.00  0.00    -0.270 OA
ATOM     17  N   UNL     1      -6.215  -3.790  -0.035  0.00  0.00    -0.314 N 
ATOM     18  C   UNL     1      -6.924  -4.774   0.787  0.00  0.00    +0.128 C 
ATOM     19  H   UNL     1      -5.796  -4.064  -0.866  0.00  0.00    +0.149 HD
ENDBRANCH  12  15
BRANCH   5  21
ATOM     20  C   UNL     1       0.238   1.469  -0.338  0.00  0.00    -0.014 C 
ATOM     21  C   UNL     1       0.002  -0.004   0.002  0.00  0.00    -0.074 C 
ATOM     22  C   UNL     1       0.673  -0.333   1.337  0.00  0.00    -0.014 C 
ENDBRANCH   5  21
ENDBRANCH   1  11
BRANCH   2  23
ATOM     23  C   UNL     1      -9.318  -0.168  -3.201  0.00  0.00    +0.037 A 
ATOM     24  C   UNL     1     -10.180  -1.042  -2.538  0.00  0.00    +0.015 A 
ATOM     25  C   UNL     1     -11.508  -1.108  -2.907  0.00  0.00    +0.029 A 
ATOM     26  C   UNL     1     -11.985  -0.311  -3.932  0.00  0.00    +0.106 A 
ATOM     27  C   UNL     1     -11.135   0.558  -4.594  0.00  0.00    +0.029 A 
ATOM     28  C   UNL     1      -9.807   0.638  -4.231  0.00  0.00    +0.015 A 
BRANCH  26  29
ATOM     29  S   UNL     1     -13.682  -0.402  -4.397  0.00  0.00    +0.061 S 
ATOM     30  O   UNL     1     -13.759   0.047  -5.743  0.00  0.00    -0.153 OA
ATOM     31  O   UNL     1     -14.146  -1.683  -3.993  0.00  0.00    -0.153 OA
BRANCH  29  32
ATOM     32  N   UNL     1     -14.501   0.709  -3.481  0.00  0.00    -0.166 NA
BRANCH  32  33
ATOM     33  C   UNL     1     -14.666   2.080  -3.967  0.00  0.00    +0.156 C 
BRANCH  33  34
ATOM     34  C   UNL     1     -15.996   2.210  -4.664  0.00  0.00    +0.091 C 
ATOM     35  N   UNL     1     -16.828   3.108  -4.294  0.00  0.00    -0.310 NA
ATOM     36  H   UNL     1     -17.684   3.191  -4.742  0.00  0.00    +0.186 HD
ENDBRANCH  33  34
ENDBRANCH  32  33
BRANCH  32  37
ATOM     37  C   UNL     1     -15.060   0.319  -2.184  0.00  0.00    +0.156 C 
BRANCH  37  38
ATOM     38  C   UNL     1     -14.085   0.670  -1.090  0.00  0.00    +0.091 C 
ATOM     39  N   UNL     1     -14.458   1.405  -0.112  0.00  0.00    -0.310 NA
ATOM     40  H   UNL     1     -15.369   1.737  -0.075  0.00  0.00    +0.186 HD
ENDBRANCH  37  38
ENDBRANCH  32  37
ENDBRANCH  29  32
ENDBRANCH  26  29
ENDBRANCH   2  23
TORSDOF 10
