REMARK  Name = ZINC05216719
REMARK  4 active torsions:
REMARK  status: ('A' for Active; 'I' for Inactive)
REMARK    1  A    between atoms: N_9  and  C_12
REMARK    2  A    between atoms: C_12  and  C_13
REMARK    3  A    between atoms: N_15  and  C_16
REMARK    4  A    between atoms: C_16  and  C_22
REMARK                            x       y       z     vdW  Elec       q    Type
REMARK                         _______ _______ _______ _____ _____    ______ ____
ROOT
ATOM      1  C   UNL     1       0.256   0.907   4.905  0.00  0.00    +0.244 C 
ENDROOT
BRANCH   1  10
ATOM      2  C   UNL     1      -3.659   1.000   9.653  0.00  0.00    +0.001 A 
ATOM      3  C   UNL     1      -3.234   2.225  10.149  0.00  0.00    +0.002 A 
ATOM      4  C   UNL     1      -2.229   2.929   9.525  0.00  0.00    +0.030 A 
ATOM      5  C   UNL     1      -1.627   2.406   8.378  0.00  0.00    +0.100 A 
ATOM      6  C   UNL     1      -2.061   1.160   7.876  0.00  0.00    +0.068 A 
ATOM      7  C   UNL     1      -3.080   0.463   8.524  0.00  0.00    +0.015 A 
ATOM      8  C   UNL     1      -1.411   0.631   6.668  0.00  0.00    +0.278 A 
ATOM      9  O   UNL     1      -1.742  -0.437   6.187  0.00  0.00    -0.265 OA
ATOM     10  N   UNL     1      -0.430   1.380   6.110  0.00  0.00    -0.201 N 
ATOM     11  N   UNL     1      -0.068   2.600   6.686  0.00  0.00    -0.062 NA
ATOM     12  N   UNL     1      -0.633   3.071   7.738  0.00  0.00    -0.131 NA
ENDBRANCH   1  10
BRANCH   1  13
ATOM     13  C   UNL     1      -0.473   1.407   3.684  0.00  0.00    +0.236 C 
ATOM     14  O   UNL     1      -1.468   2.090   3.808  0.00  0.00    -0.274 OA
ATOM     15  N   UNL     1      -0.020   1.094   2.454  0.00  0.00    -0.296 N 
ATOM     16  H   UNL     1       0.775   0.547   2.354  0.00  0.00    +0.150 HD
BRANCH  15  17
ATOM     17  C   UNL     1      -0.729   1.579   1.267  0.00  0.00    +0.121 C 
ATOM     18  C   UNL     1      -0.013   1.086   0.008  0.00  0.00    +0.041 C 
ATOM     19  C   UNL     1      -0.753   1.593  -1.232  0.00  0.00    +0.003 C 
ATOM     20  C   UNL     1      -0.773   3.123  -1.223  0.00  0.00    +0.000 C 
ATOM     21  C   UNL     1      -1.490   3.616   0.036  0.00  0.00    +0.003 C 
ATOM     22  C   UNL     1      -0.750   3.109   1.275  0.00  0.00    +0.041 C 
BRANCH  17  23
ATOM     23  C   UNL     1      -2.110   1.070   1.277  0.00  0.00    +0.088 C 
ATOM     24  N   UNL     1      -3.176   0.676   1.285  0.00  0.00    -0.194 NA
ENDBRANCH  17  23
ENDBRANCH  15  17
ENDBRANCH   1  13
TORSDOF 4
