REMARK  Name = ZINC12882060
REMARK  7 active torsions:
REMARK  status: ('A' for Active; 'I' for Inactive)
REMARK    1  A    between atoms: C_1  and  C_2
REMARK    2  A    between atoms: C_4  and  N_27
REMARK    3  A    between atoms: C_6  and  S_9
REMARK    4  A    between atoms: C_7  and  C_8
REMARK    5  A    between atoms: S_9  and  N_12
REMARK    6  A    between atoms: C_19  and  C_21
REMARK    7  A    between atoms: C_24  and  C_26
REMARK                            x       y       z     vdW  Elec       q    Type
REMARK                         _______ _______ _______ _____ _____    ______ ____
ROOT
ATOM      1  N   UNL     1       2.172   1.020  -0.044  0.00  0.00    -0.202 N 
ATOM      2  C   UNL     1       1.385  -0.189   0.211  0.00  0.00    +0.136 C 
ATOM      3  C   UNL     1      -0.083   0.252   0.094  0.00  0.00    +0.058 C 
ATOM      4  C   UNL     1      -0.011   1.728  -0.229  0.00  0.00    -0.023 A 
ATOM      5  C   UNL     1       1.323   2.101  -0.293  0.00  0.00    +0.055 A 
ATOM      6  C   UNL     1       1.647   3.430  -0.580  0.00  0.00    +0.025 A 
ATOM      7  C   UNL     1       0.655   4.359  -0.797  0.00  0.00    +0.012 A 
ATOM      8  C   UNL     1      -0.685   3.978  -0.731  0.00  0.00    +0.001 A 
ATOM      9  C   UNL     1      -1.010   2.655  -0.441  0.00  0.00    +0.015 A 
ENDROOT
BRANCH   8  10
ATOM     10  C   UNL     1      -1.756   4.977  -0.965  0.00  0.00    +0.078 A 
ATOM     11  C   UNL     1      -1.458   6.258  -1.346  0.00  0.00    +0.075 A 
ATOM     12  S   UNL     1      -3.098   6.956  -1.467  0.00  0.00    -0.080 S 
ATOM     13  C   UNL     1      -3.986   5.534  -1.016  0.00  0.00    +0.076 A 
ATOM     14  N   UNL     1      -3.032   4.657  -0.817  0.00  0.00    -0.244 NA
ATOM     15  C   UNL     1      -5.476   5.353  -0.892  0.00  0.00    +0.073 C 
ENDBRANCH   8  10
BRANCH   1  16
ATOM     16  S   UNL     1       3.826   1.095  -0.038  0.00  0.00    +0.075 S 
ATOM     17  O   UNL     1       4.173   2.391   0.429  0.00  0.00    -0.150 OA
ATOM     18  O   UNL     1       4.284  -0.091   0.596  0.00  0.00    -0.150 OA
BRANCH  16  24
ATOM     19  C   UNL     1       4.258  -1.444  -4.587  0.00  0.00    +0.044 C 
ATOM     20  C   UNL     1       4.527  -0.202  -3.776  0.00  0.00    -0.044 A 
ATOM     21  C   UNL     1       5.191   0.867  -4.349  0.00  0.00    +0.036 A 
ATOM     22  C   UNL     1       5.437   2.006  -3.605  0.00  0.00    +0.128 A 
ATOM     23  C   UNL     1       5.021   2.075  -2.288  0.00  0.00    +0.061 A 
ATOM     24  C   UNL     1       4.357   1.006  -1.716  0.00  0.00    +0.114 A 
ATOM     25  C   UNL     1       4.115  -0.135  -2.458  0.00  0.00    -0.021 A 
ATOM     26  C   UNL     1       3.398  -1.303  -1.833  0.00  0.00    +0.046 C 
BRANCH  22  27
ATOM     27  N   UNL     1       6.148   3.150  -4.218  0.00  0.00    +0.056 N 
ATOM     28  O   UNL     1       6.365   4.154  -3.562  0.00  0.00    -0.126 OA
ATOM     29  O   UNL     1       6.515   3.089  -5.377  0.00  0.00    -0.126 OA
ENDBRANCH  22  27
ENDBRANCH  16  24
ENDBRANCH   1  16
TORSDOF 4
