REMARK  Name = ZINC11551259
REMARK  6 active torsions:
REMARK  status: ('A' for Active; 'I' for Inactive)
REMARK    1  A    between atoms: C_1  and  C_2
REMARK    2  A    between atoms: C_8  and  C_10
REMARK    3  A    between atoms: C_11  and  C_29
REMARK    4  A    between atoms: C_16  and  C_18
REMARK    5  A    between atoms: C_21  and  O_24
REMARK    6  A    between atoms: O_24  and  C_25
REMARK                            x       y       z     vdW  Elec       q    Type
REMARK                         _______ _______ _______ _____ _____    ______ ____
ROOT
ATOM      1  C   UNL     1      -1.099   2.826  -0.164  0.00  0.00    +0.056 C 
ATOM      2  C   UNL     1      -0.970   1.503   0.074  0.00  0.00    +0.017 C 
ATOM      3  N   UNL     1       0.242   0.958   0.384  0.00  0.00    -0.300 N 
ATOM      4  C   UNL     1       1.376   1.666   0.465  0.00  0.00    +0.135 C 
ATOM      5  S   UNL     1       2.832   0.855   0.857  0.00  0.00    -0.019 S 
ATOM      6  N   UNL     1       1.408   2.995   0.248  0.00  0.00    -0.315 N 
ATOM      7  C   UNL     1       0.149   3.681  -0.088  0.00  0.00    +0.139 C 
ATOM      8  C   UNL     1      -2.186   0.615   0.003  0.00  0.00    +0.061 C 
ATOM      9  H   UNL     1       0.286   0.003   0.552  0.00  0.00    +0.154 HD
ATOM     10  H   UNL     1       2.241   3.489   0.311  0.00  0.00    +0.149 HD
ENDROOT
BRANCH   1  18
ATOM     11  C   UNL     1      -7.037   5.980  -1.637  0.00  0.00    +0.089 C 
ATOM     12  C   UNL     1      -5.894   5.072  -2.011  0.00  0.00    +0.136 A 
ATOM     13  C   UNL     1      -4.852   4.717  -1.225  0.00  0.00    +0.091 A 
ATOM     14  C   UNL     1      -4.076   3.861  -2.050  0.00  0.00    +0.168 A 
ATOM     15  N   UNL     1      -4.700   3.795  -3.197  0.00  0.00    -0.063 NA
ATOM     16  O   UNL     1      -5.713   4.457  -3.189  0.00  0.00    -0.358 OA
ATOM     17  N   UNL     1      -2.885   3.222  -1.708  0.00  0.00    -0.264 N 
ATOM     18  C   UNL     1      -2.358   3.393  -0.480  0.00  0.00    +0.249 C 
ATOM     19  O   UNL     1      -2.963   4.036   0.358  0.00  0.00    -0.270 OA
ATOM     20  H   UNL     1      -2.436   2.655  -2.355  0.00  0.00    +0.157 HD
ENDBRANCH   1  18
BRANCH   7  21
ATOM     21  C   UNL     1       0.330   4.358  -1.423  0.00  0.00    -0.022 A 
ATOM     22  C   UNL     1       0.920   3.674  -2.469  0.00  0.00    +0.009 A 
ATOM     23  C   UNL     1       1.082   4.290  -3.695  0.00  0.00    +0.046 A 
ATOM     24  C   UNL     1       0.663   5.601  -3.872  0.00  0.00    +0.130 A 
ATOM     25  C   UNL     1       0.077   6.287  -2.818  0.00  0.00    +0.046 A 
ATOM     26  C   UNL     1      -0.088   5.664  -1.596  0.00  0.00    +0.009 A 
BRANCH  24  27
ATOM     27  O   UNL     1       0.826   6.211  -5.075  0.00  0.00    -0.406 OA
BRANCH  27  28
ATOM     28  C   UNL     1       1.437   5.443  -6.114  0.00  0.00    +0.575 C 
ATOM     29  F   UNL     1       0.663   4.307  -6.371  0.00  0.00    -0.133 F 
ATOM     30  F   UNL     1       1.527   6.219  -7.275  0.00  0.00    -0.133 F 
ATOM     31  F   UNL     1       2.719   5.053  -5.713  0.00  0.00    -0.133 F 
ENDBRANCH  27  28
ENDBRANCH  24  27
ENDBRANCH   7  21
TORSDOF 4
