REMARK  Name = ZINC25783584
REMARK  2 active torsions:
REMARK  status: ('A' for Active; 'I' for Inactive)
REMARK    1  A    between atoms: C_9  and  C_17
REMARK    2  A    between atoms: C_24  and  C_27
REMARK                            x       y       z     vdW  Elec       q    Type
REMARK                         _______ _______ _______ _____ _____    ______ ____
ROOT
ATOM      1  C   UNL     1      -0.017   1.378   0.010  0.00  0.00    +0.001 A 
ATOM      2  C   UNL     1       1.170   2.091   0.002  0.00  0.00    +0.004 A 
ATOM      3  C   UNL     1       2.385   1.432  -0.013  0.00  0.00    +0.046 A 
ATOM      4  C   UNL     1       2.419   0.048  -0.021  0.00  0.00    +0.131 A 
ATOM      5  C   UNL     1       1.218  -0.673  -0.013  0.00  0.00    +0.042 A 
ATOM      6  C   UNL     1       0.002  -0.004   0.002  0.00  0.00    +0.013 A 
ATOM      7  C   UNL     1       1.288  -2.156  -0.016  0.00  0.00    +0.083 C 
ATOM      8  C   UNL     1       2.471  -2.724   0.297  0.00  0.00    +0.027 C 
ATOM      9  C   UNL     1       2.561  -4.234   0.289  0.00  0.00    +0.159 C 
ATOM     10  N   UNL     1       1.328  -4.949  -0.065  0.00  0.00    -0.208 N 
ATOM     11  C   UNL     1       0.193  -4.219  -0.357  0.00  0.00    +0.237 C 
ATOM     12  N   UNL     1       0.202  -2.907  -0.325  0.00  0.00    -0.213 NA
ATOM     13  N   UNL     1      -0.783  -5.108  -0.643  0.00  0.00    -0.205 NA
ATOM     14  C   UNL     1      -0.329  -6.327  -0.549  0.00  0.00    +0.203 C 
ATOM     15  N   UNL     1       0.985  -6.296  -0.191  0.00  0.00    -0.251 N 
ATOM     16  C   UNL     1       3.656  -1.874   0.651  0.00  0.00    +0.234 C 
ATOM     17  O   UNL     1       3.598  -0.624  -0.039  0.00  0.00    -0.479 OA
ATOM     18  H   UNL     1       1.567  -7.059  -0.052  0.00  0.00    +0.171 HD
ENDROOT
BRANCH   9  19
ATOM     19  C   UNL     1       3.631  -4.636  -0.692  0.00  0.00    -0.021 A 
ATOM     20  C   UNL     1       3.354  -4.658  -2.046  0.00  0.00    +0.007 A 
ATOM     21  C   UNL     1       4.336  -5.027  -2.947  0.00  0.00    +0.020 A 
ATOM     22  C   UNL     1       5.596  -5.374  -2.493  0.00  0.00    +0.041 A 
ATOM     23  C   UNL     1       5.872  -5.352  -1.137  0.00  0.00    +0.020 A 
ATOM     24  C   UNL     1       4.892  -4.978  -0.238  0.00  0.00    +0.007 A 
ATOM     25 CL   UNL     1       6.829  -5.838  -3.623  0.00  0.00    -0.084 Cl
ENDBRANCH   9  19
BRANCH  16  26
ATOM     26  C   UNL     1       3.661  -1.619   2.136  0.00  0.00    -0.000 A 
ATOM     27  C   UNL     1       2.842  -0.648   2.692  0.00  0.00    +0.027 A 
ATOM     28  C   UNL     1       2.873  -0.442   4.059  0.00  0.00    +0.111 A 
ATOM     29  N   UNL     1       3.670  -1.155   4.830  0.00  0.00    -0.263 NA
ATOM     30  C   UNL     1       4.461  -2.087   4.336  0.00  0.00    +0.111 A 
ATOM     31  C   UNL     1       4.480  -2.353   2.980  0.00  0.00    +0.027 A 
ENDBRANCH  16  26
TORSDOF 2
