REMARK  Name = ZINC12411140
REMARK  10 active torsions:
REMARK  status: ('A' for Active; 'I' for Inactive)
REMARK    1  A    between atoms: C_1  and  C_2
REMARK    2  A    between atoms: C_2  and  O_3
REMARK    3  A    between atoms: O_3  and  C_4
REMARK    4  A    between atoms: C_4  and  C_6
REMARK    5  A    between atoms: C_15  and  C_22
REMARK    6  A    between atoms: C_15  and  C_26
REMARK    7  A    between atoms: N_19  and  C_20
REMARK    8  A    between atoms: N_19  and  C_21
REMARK    9  A    between atoms: C_22  and  O_24
REMARK   10  A    between atoms: O_24  and  C_25
REMARK                            x       y       z     vdW  Elec       q    Type
REMARK                         _______ _______ _______ _____ _____    ______ ____
ROOT
ATOM      1  C   UNL     1       0.508   3.548   0.078  0.00  0.00    +0.060 A 
ATOM      2  C   UNL     1       0.704   2.163   0.050  0.00  0.00    +0.017 A 
ATOM      3  C   UNL     1      -0.360   1.299   0.044  0.00  0.00    +0.026 A 
ATOM      4  C   UNL     1      -1.684   1.778   0.060  0.00  0.00    +0.057 A 
ATOM      5  C   UNL     1      -1.854   3.166   0.093  0.00  0.00    +0.038 A 
ATOM      6  C   UNL     1      -0.801   4.045   0.099  0.00  0.00    +0.032 A 
ATOM      7  S   UNL     1      -3.618   3.367   0.113  0.00  0.00    -0.052 S 
ATOM      8  C   UNL     1      -4.058   1.642   0.085  0.00  0.00    +0.171 C 
ATOM      9  N   UNL     1      -5.206   1.043   0.084  0.00  0.00    -0.214 NA
ATOM     10  C   UNL     1      -5.233  -0.429   0.057  0.00  0.00    +0.349 C 
ATOM     11  N   UNL     1      -3.930  -1.112   0.033  0.00  0.00    -0.206 NA
ATOM     12  C   UNL     1      -2.843  -0.410   0.036  0.00  0.00    +0.194 C 
ATOM     13  N   UNL     1      -2.844   0.988   0.061  0.00  0.00    -0.220 N 
ATOM     14  N   UNL     1      -1.636  -1.067   0.013  0.00  0.00    -0.309 N 
ATOM     15  C   UNL     1      -1.010  -1.404  -1.268  0.00  0.00    +0.131 C 
ATOM     16  C   UNL     1      -0.976  -1.430   1.269  0.00  0.00    +0.131 C 
ENDROOT
BRANCH  10  17
ATOM     17  C   UNL     1      -6.019  -0.865  -1.181  0.00  0.00    +0.446 C 
ATOM     18  F   UNL     1      -6.200  -2.252  -1.154  0.00  0.00    -0.166 F 
ATOM     19  F   UNL     1      -7.266  -0.232  -1.188  0.00  0.00    -0.166 F 
ATOM     20  F   UNL     1      -5.309  -0.510  -2.333  0.00  0.00    -0.166 F 
ENDBRANCH  10  17
BRANCH   1  21
ATOM     21  C   UNL     1       1.660   4.469   0.084  0.00  0.00    +0.339 C 
ATOM     22  O   UNL     1       1.478   5.670   0.108  0.00  0.00    -0.245 OA
BRANCH  21  23
ATOM     23  O   UNL     1       2.915   3.978   0.064  0.00  0.00    -0.461 OA
BRANCH  23  25
ATOM     24  C   UNL     1       5.340   4.204   0.046  0.00  0.00    +0.048 C 
ATOM     25  C   UNL     1       4.000   4.943   0.072  0.00  0.00    +0.229 C 
ENDBRANCH  23  25
ENDBRANCH  21  23
ENDBRANCH   1  21
BRANCH  10  26
ATOM     26  C   UNL     1      -5.985  -0.905   1.273  0.00  0.00    +0.367 C 
ATOM     27  O   UNL     1      -5.482  -1.713   2.017  0.00  0.00    -0.246 OA
BRANCH  26  28
ATOM     28  O   UNL     1      -7.214  -0.430   1.530  0.00  0.00    -0.465 OA
ATOM     29  C   UNL     1      -7.880  -0.932   2.719  0.00  0.00    +0.280 C 
ENDBRANCH  26  28
ENDBRANCH  10  26
TORSDOF 6
