REMARK  Name = ZINC02088459
REMARK  7 active torsions:
REMARK  status: ('A' for Active; 'I' for Inactive)
REMARK    1  A    between atoms: C_1  and  C_2
REMARK    2  A    between atoms: C_2  and  C_3
REMARK    3  A    between atoms: C_3  and  C_4
REMARK    4  A    between atoms: C_4  and  N_5
REMARK    5  A    between atoms: C_6  and  C_8
REMARK    6  A    between atoms: C_13  and  C_26
REMARK    7  A    between atoms: C_16  and  C_19
REMARK                            x       y       z     vdW  Elec       q    Type
REMARK                         _______ _______ _______ _____ _____    ______ ____
ROOT
ATOM      1  C   UNL     1      -4.401  -4.410   0.020  0.00  0.00    +0.167 A 
ATOM      2  C   UNL     1      -4.783  -5.771   0.022  0.00  0.00    +0.112 A 
ATOM      3  C   UNL     1      -6.130  -5.816   0.032  0.00  0.00    +0.137 A 
ATOM      4  N   UNL     1      -6.598  -4.532   0.039  0.00  0.00    -0.237 N 
ATOM      5  N   UNL     1      -5.499  -3.674   0.035  0.00  0.00    -0.163 NA
ATOM      6  C   UNL     1      -8.023  -4.186   0.055  0.00  0.00    +0.215 C 
ATOM      7  C   UNL     1      -8.822  -5.399   0.542  0.00  0.00    +0.063 C 
ATOM      8  C   UNL     1      -8.406  -6.649  -0.242  0.00  0.00    +0.104 C 
ATOM      9  N   UNL     1      -6.983  -6.925   0.035  0.00  0.00    -0.321 N 
ATOM     10 CL   UNL     1      -3.712  -7.137   0.013  0.00  0.00    -0.078 Cl
ATOM     11  H   UNL     1      -6.658  -7.822   0.209  0.00  0.00    +0.148 HD
ENDROOT
BRANCH   8  12
ATOM     12  C   UNL     1      -9.247  -7.822   0.191  0.00  0.00    -0.027 A 
ATOM     13  C   UNL     1      -8.945  -8.494   1.361  0.00  0.00    +0.006 A 
ATOM     14  C   UNL     1      -9.716  -9.569   1.759  0.00  0.00    +0.015 A 
ATOM     15  C   UNL     1     -10.790  -9.974   0.987  0.00  0.00    +0.018 A 
ATOM     16  C   UNL     1     -11.092  -9.301  -0.183  0.00  0.00    +0.015 A 
ATOM     17  C   UNL     1     -10.323  -8.222  -0.578  0.00  0.00    +0.006 A 
ATOM     18 BR   UNL     1     -11.845 -11.446   1.531  0.00  0.00    -0.050 Br
ENDBRANCH   8  12
BRANCH   1  20
ATOM     19  N   UNL     1      -2.787  -2.571   0.015  0.00  0.00    -0.310 N 
ATOM     20  C   UNL     1      -3.015  -3.899   0.010  0.00  0.00    +0.266 C 
ATOM     21  O   UNL     1      -2.081  -4.676  -0.003  0.00  0.00    -0.268 OA
ATOM     22  H   UNL     1      -3.533  -1.950   0.025  0.00  0.00    +0.149 HD
BRANCH  19  23
ATOM     23  C   UNL     1      -1.413  -2.063   0.004  0.00  0.00    +0.104 C 
BRANCH  23  24
ATOM     24  C   UNL     1      -1.433  -0.534   0.013  0.00  0.00    +0.018 C 
BRANCH  24  26
ATOM     25  C   UNL     1      -0.019   1.526   0.010  0.00  0.00    +0.004 C 
ATOM     26  C   UNL     1       0.002  -0.004   0.002  0.00  0.00    -0.002 C 
ENDBRANCH  24  26
ENDBRANCH  23  24
ENDBRANCH  19  23
ENDBRANCH   1  20
BRANCH   6  27
ATOM     27  C   UNL     1      -8.252  -3.005   0.999  0.00  0.00    +0.412 C 
ATOM     28  F   UNL     1      -7.511  -1.903   0.557  0.00  0.00    -0.168 F 
ATOM     29  F   UNL     1      -9.612  -2.676   1.013  0.00  0.00    -0.168 F 
ATOM     30  F   UNL     1      -7.844  -3.354   2.291  0.00  0.00    -0.168 F 
ENDBRANCH   6  27
TORSDOF 6
