REMARK  Name = ZINC35694137
REMARK  9 active torsions:
REMARK  status: ('A' for Active; 'I' for Inactive)
REMARK    1  A    between atoms: C_1  and  C_2
REMARK    2  A    between atoms: C_3  and  C_33
REMARK    3  A    between atoms: C_4  and  C_24
REMARK    4  A    between atoms: C_7  and  C_12
REMARK    5  A    between atoms: C_13  and  N_15
REMARK    6  A    between atoms: C_21  and  C_23
REMARK    7  A    between atoms: C_27  and  N_30
REMARK    8  A    between atoms: C_33  and  O_35
REMARK    9  A    between atoms: O_35  and  C_36
REMARK                            x       y       z     vdW  Elec       q    Type
REMARK                         _______ _______ _______ _____ _____    ______ ____
ROOT
ATOM      1  C   UNL     1       0.077   1.398   0.544  0.00  0.00    +0.066 C 
ATOM      2  C   UNL     1       0.050  -0.099   0.376  0.00  0.00    +0.053 C 
ATOM      3  C   UNL     1      -1.161  -0.762   0.325  0.00  0.00    +0.082 C 
ATOM      4  C   UNL     1      -1.136  -2.265   0.155  0.00  0.00    +0.150 C 
ATOM      5  N   UNL     1       0.199  -2.912   0.055  0.00  0.00    -0.267 N 
ATOM      6  C   UNL     1       0.460  -4.259  -0.102  0.00  0.00    +0.048 C 
ATOM      7  C   UNL     1       1.754  -4.643  -0.172  0.00  0.00    +0.072 C 
ATOM      8  S   UNL     1       2.609  -3.088  -0.013  0.00  0.00    -0.060 S 
ATOM      9  C   UNL     1       1.278  -2.075   0.128  0.00  0.00    +0.166 C 
ATOM     10  N   UNL     1       1.186  -0.769   0.272  0.00  0.00    -0.230 NA
ENDROOT
BRANCH   4  11
ATOM     11  C   UNL     1      -1.909  -2.603  -1.093  0.00  0.00    -0.022 A 
ATOM     12  C   UNL     1      -1.351  -2.373  -2.336  0.00  0.00    +0.008 A 
ATOM     13  C   UNL     1      -2.060  -2.683  -3.481  0.00  0.00    +0.033 A 
ATOM     14  C   UNL     1      -3.328  -3.225  -3.383  0.00  0.00    +0.126 A 
ATOM     15  C   UNL     1      -3.886  -3.457  -2.140  0.00  0.00    +0.033 A 
ATOM     16  C   UNL     1      -3.175  -3.150  -0.995  0.00  0.00    +0.008 A 
BRANCH  14  17
ATOM     17  N   UNL     1      -4.088  -3.557  -4.609  0.00  0.00    +0.056 N 
ATOM     18  O   UNL     1      -3.600  -3.354  -5.697  0.00  0.00    -0.126 OA
ATOM     19  O   UNL     1      -5.197  -4.030  -4.523  0.00  0.00    -0.126 OA
ENDBRANCH  14  17
ENDBRANCH   4  11
BRANCH   6  20
ATOM     20  C   UNL     1      -0.631  -5.240  -0.191  0.00  0.00    +0.091 C 
ATOM     21  C   UNL     1      -0.351  -6.557  -0.222  0.00  0.00    +0.241 C 
ATOM     22  O   UNL     1       0.924  -6.983  -0.051  0.00  0.00    -0.271 OA
BRANCH  21  23
ATOM     23  N   UNL     1      -1.366  -7.476  -0.428  0.00  0.00    -0.295 N 
ATOM     24  C   UNL     1      -2.588  -7.091  -1.149  0.00  0.00    +0.127 C 
ATOM     25  C   UNL     1      -2.788  -8.056  -2.324  0.00  0.00    +0.126 C 
ATOM     26  N   UNL     1      -2.663  -9.434  -1.827  0.00  0.00    -0.299 N 
ATOM     27  C   UNL     1      -1.441  -9.818  -1.107  0.00  0.00    +0.126 C 
ATOM     28  C   UNL     1      -1.238  -8.855   0.064  0.00  0.00    +0.127 C 
ATOM     29  C   UNL     1      -3.651 -10.328  -2.028  0.00  0.00    +0.213 C 
ATOM     30  O   UNL     1      -4.605 -10.033  -2.716  0.00  0.00    -0.276 OA
ATOM     31  C   UNL     1      -3.570 -11.695  -1.398  0.00  0.00    +0.109 C 
ENDBRANCH  21  23
ENDBRANCH   6  20
BRANCH   3  32
ATOM     32  C   UNL     1      -2.372  -0.066   0.428  0.00  0.00    +0.339 C 
ATOM     33  O   UNL     1      -2.369   1.145   0.566  0.00  0.00    -0.245 OA
BRANCH  32  34
ATOM     34  O   UNL     1      -3.543  -0.737   0.376  0.00  0.00    -0.465 OA
ATOM     35  C   UNL     1      -4.740   0.037   0.488  0.00  0.00    +0.280 C 
ENDBRANCH  32  34
ENDBRANCH   3  32
TORSDOF 6
