REMARK  Name = ZINC44932551
REMARK  11 active torsions:
REMARK  status: ('A' for Active; 'I' for Inactive)
REMARK    1  A    between atoms: C_1  and  C_2
REMARK    2  A    between atoms: N_6  and  C_7
REMARK    3  A    between atoms: C_12  and  C_13
REMARK    4  A    between atoms: C_13  and  N_14
REMARK    5  A    between atoms: C_15  and  C_17
REMARK    6  A    between atoms: N_20  and  S_32
REMARK    7  A    between atoms: C_23  and  C_28
REMARK    8  A    between atoms: C_28  and  C_29
REMARK    9  A    between atoms: C_28  and  C_30
REMARK   10  A    between atoms: C_28  and  C_31
REMARK   11  A    between atoms: S_32  and  C_35
REMARK                            x       y       z     vdW  Elec       q    Type
REMARK                         _______ _______ _______ _____ _____    ______ ____
ROOT
ATOM      1  N   UNL     1      -3.177  -0.629   2.117  0.00  0.00    -0.308 N 
ATOM      2  C   UNL     1      -4.282  -0.607   1.346  0.00  0.00    +0.256 C 
ATOM      3  O   UNL     1      -4.595   0.410   0.764  0.00  0.00    -0.272 OA
ATOM      4  H   UNL     1      -2.927  -1.442   2.583  0.00  0.00    +0.149 HD
ENDROOT
BRANCH   2   5
ATOM      5  C   UNL     1      -5.129  -1.846   1.207  0.00  0.00    +0.277 C 
ATOM      6  C   UNL     1      -4.325  -2.940   0.491  0.00  0.00    +0.185 C 
ATOM      7  N   UNL     1      -5.207  -4.110   0.335  0.00  0.00    -0.200 N 
ATOM      8  C   UNL     1      -6.538  -3.877  -0.048  0.00  0.00    +0.093 A 
ATOM      9  C   UNL     1      -7.329  -4.928  -0.486  0.00  0.00    +0.032 A 
ATOM     10  C   UNL     1      -8.640  -4.694  -0.859  0.00  0.00    -0.040 A 
ATOM     11  C   UNL     1      -9.161  -3.415  -0.795  0.00  0.00    +0.008 A 
ATOM     12  C   UNL     1      -8.376  -2.364  -0.360  0.00  0.00    +0.048 A 
ATOM     13  C   UNL     1      -7.059  -2.588   0.014  0.00  0.00    +0.144 A 
ATOM     14  O   UNL     1      -6.294  -1.546   0.435  0.00  0.00    -0.476 OA
BRANCH  10  15
ATOM     15  C   UNL     1      -9.501  -5.835  -1.335  0.00  0.00    -0.013 C 
ATOM     16  C   UNL     1      -9.613  -6.886  -0.229  0.00  0.00    +0.015 C 
ATOM     17  C   UNL     1     -10.896  -5.311  -1.682  0.00  0.00    +0.015 C 
ATOM     18  C   UNL     1      -8.870  -6.467  -2.577  0.00  0.00    +0.015 C 
ENDBRANCH  10  15
BRANCH   7  19
ATOM     19  S   UNL     1      -4.649  -5.646   0.601  0.00  0.00    +0.043 S 
ATOM     20  O   UNL     1      -3.468  -5.473   1.373  0.00  0.00    -0.155 OA
ATOM     21  O   UNL     1      -5.764  -6.351   1.129  0.00  0.00    -0.155 OA
ATOM     22  C   UNL     1      -4.231  -6.282  -1.046  0.00  0.00    +0.218 C 
ENDBRANCH   7  19
ENDBRANCH   2   5
BRANCH   1  23
ATOM     23  C   UNL     1      -2.354   0.575   2.252  0.00  0.00    +0.141 C 
BRANCH  23  29
ATOM     24  C   UNL     1      -0.072  -0.378   2.671  0.00  0.00    +0.052 A 
ATOM     25  C   UNL     1       1.003  -0.637   3.511  0.00  0.00    +0.026 A 
ATOM     26  C   UNL     1       0.958  -0.237   4.832  0.00  0.00    +0.002 A 
ATOM     27  C   UNL     1      -0.157   0.420   5.319  0.00  0.00    +0.000 A 
ATOM     28  C   UNL     1      -1.229   0.679   4.486  0.00  0.00    +0.007 A 
ATOM     29  C   UNL     1      -1.187   0.287   3.162  0.00  0.00    -0.006 A 
BRANCH  24  35
ATOM     30  C   UNL     1      -0.046   1.537   0.268  0.00  0.00    +0.084 C 
ATOM     31  C   UNL     1      -0.016   0.031   0.241  0.00  0.00    +0.088 A 
ATOM     32  N   UNL     1       0.033  -0.711  -0.832  0.00  0.00    -0.350 N 
ATOM     33  C   UNL     1       0.047  -2.005  -0.477  0.00  0.00    +0.102 A 
ATOM     34  C   UNL     1       0.005  -2.072   0.867  0.00  0.00    +0.110 A 
ATOM     35  N   UNL     1      -0.029  -0.782   1.329  0.00  0.00    -0.305 N 
ATOM     36  H   UNL     1       0.055  -0.379  -1.743  0.00  0.00    +0.166 HD
ENDBRANCH  24  35
ENDBRANCH  23  29
ENDBRANCH   1  23
TORSDOF 6
