REMARK  Name = ZINC35543915
REMARK  5 active torsions:
REMARK  status: ('A' for Active; 'I' for Inactive)
REMARK    1  A    between atoms: C_4  and  C_7
REMARK    2  A    between atoms: C_7  and  N_8
REMARK    3  A    between atoms: C_9  and  C_11
REMARK    4  A    between atoms: C_16  and  N_32
REMARK    5  A    between atoms: N_24  and  C_27
REMARK                            x       y       z     vdW  Elec       q    Type
REMARK                         _______ _______ _______ _____ _____    ______ ____
ROOT
ATOM      1  C   UNL     1       5.764  -1.853   2.984  0.00  0.00    +0.098 C 
ATOM      2  C   UNL     1       4.686  -2.638   3.700  0.00  0.00    +0.051 C 
ATOM      3  C   UNL     1       4.691  -4.088   3.312  0.00  0.00    -0.023 A 
ATOM      4  C   UNL     1       3.512  -4.811   3.341  0.00  0.00    +0.038 A 
ATOM      5  C   UNL     1       3.508  -6.147   2.988  0.00  0.00    +0.127 A 
ATOM      6  C   UNL     1       4.683  -6.767   2.604  0.00  0.00    +0.034 A 
ATOM      7  C   UNL     1       5.863  -6.051   2.572  0.00  0.00    +0.025 A 
ATOM      8  C   UNL     1       5.870  -4.706   2.925  0.00  0.00    +0.033 A 
ATOM      9  N   UNL     1       7.056  -3.985   2.881  0.00  0.00    -0.329 N 
ATOM     10  C   UNL     1       7.105  -2.533   2.940  0.00  0.00    +0.069 C 
ATOM     11  C   UNL     1       8.005  -2.116   4.104  0.00  0.00    -0.055 C 
ATOM     12  N   UNL     1       9.319  -2.755   3.943  0.00  0.00    +0.384 N 
ATOM     13  C   UNL     1       9.193  -4.215   3.996  0.00  0.00    -0.059 C 
ATOM     14  C   UNL     1       8.347  -4.699   2.817  0.00  0.00    +0.087 C 
ATOM     15  H   UNL     1       9.713  -2.486   3.054  0.00  0.00    -0.081 HD
ENDROOT
BRANCH  12  16
ATOM     16  C   UNL     1      10.211  -2.306   5.021  0.00  0.00    -0.068 C 
ATOM     17  C   UNL     1      10.434  -0.783   4.923  0.00  0.00    -0.015 C 
ATOM     18  C   UNL     1      11.917  -0.590   5.327  0.00  0.00    -0.002 C 
ATOM     19  C   UNL     1      12.609  -1.817   4.685  0.00  0.00    -0.002 C 
ATOM     20  C   UNL     1      11.594  -2.964   4.870  0.00  0.00    -0.015 C 
ENDBRANCH  12  16
BRANCH   1  22
ATOM     21  N   UNL     1       4.152  -0.952   1.338  0.00  0.00    -0.311 N 
ATOM     22  C   UNL     1       5.311  -1.601   1.569  0.00  0.00    +0.218 C 
ATOM     23  O   UNL     1       5.989  -1.981   0.638  0.00  0.00    -0.275 OA
ATOM     24  H   UNL     1       3.610  -0.648   2.082  0.00  0.00    +0.149 HD
BRANCH  21  25
ATOM     25  C   UNL     1       3.711  -0.707  -0.038  0.00  0.00    +0.139 C 
BRANCH  25  29
ATOM     26  C   UNL     1      -0.017   1.378   0.010  0.00  0.00    +0.000 A 
ATOM     27  C   UNL     1       1.171   2.086   0.002  0.00  0.00    +0.000 A 
ATOM     28  C   UNL     1       2.377   1.411  -0.013  0.00  0.00    +0.005 A 
ATOM     29  C   UNL     1       2.396   0.029  -0.020  0.00  0.00    -0.030 A 
ATOM     30  C   UNL     1       1.208  -0.679  -0.012  0.00  0.00    +0.005 A 
ATOM     31  C   UNL     1       0.002  -0.004   0.002  0.00  0.00    +0.000 A 
ENDBRANCH  25  29
ENDBRANCH  21  25
ENDBRANCH   1  22
BRANCH   5  32
ATOM     32  N   UNL     1       2.244  -6.916   3.020  0.00  0.00    +0.056 N 
ATOM     33  O   UNL     1       1.216  -6.375   3.355  0.00  0.00    -0.126 OA
ATOM     34  O   UNL     1       2.239  -8.085   2.712  0.00  0.00    -0.126 OA
ENDBRANCH   5  32
TORSDOF 5
