REMARK  Name = ZINC34791052
REMARK  10 active torsions:
REMARK  status: ('A' for Active; 'I' for Inactive)
REMARK    1  A    between atoms: C_1  and  C_2
REMARK    2  A    between atoms: C_2  and  N_3
REMARK    3  A    between atoms: C_6  and  C_11
REMARK    4  A    between atoms: C_14  and  C_17
REMARK    5  A    between atoms: N_23  and  C_25
REMARK    6  A    between atoms: C_25  and  C_27
REMARK    7  A    between atoms: C_25  and  C_30
REMARK    8  A    between atoms: C_27  and  C_28
REMARK    9  A    between atoms: C_27  and  C_29
REMARK   10  A    between atoms: N_32  and  C_33
REMARK                            x       y       z     vdW  Elec       q    Type
REMARK                         _______ _______ _______ _____ _____    ______ ____
ROOT
ATOM      1  N   UNL     1      -1.469   0.079   0.182  0.00  0.00    -0.257 N 
ATOM      2  C   UNL     1      -1.758  -0.421   1.419  0.00  0.00    +0.042 C 
ATOM      3  C   UNL     1      -2.067  -1.722   1.593  0.00  0.00    +0.058 C 
ATOM      4  C   UNL     1      -2.083  -2.612   0.367  0.00  0.00    +0.142 C 
ATOM      5  N   UNL     1      -1.758  -1.978  -0.922  0.00  0.00    -0.288 N 
ATOM      6  C   UNL     1      -1.474  -0.660  -0.935  0.00  0.00    +0.307 C 
ATOM      7  O   UNL     1      -1.208  -0.127  -1.995  0.00  0.00    -0.252 OA
ATOM      8  C   UNL     1      -2.322  -1.988   2.954  0.00  0.00    +0.247 C 
ATOM      9  O   UNL     1      -2.624  -3.081   3.397  0.00  0.00    -0.270 OA
ATOM     10  N   UNL     1      -2.188  -0.877   3.700  0.00  0.00    -0.280 N 
ATOM     11  C   UNL     1      -1.817   0.217   2.789  0.00  0.00    +0.160 C 
ATOM     12  H   UNL     1      -1.752  -2.495  -1.742  0.00  0.00    +0.151 HD
ENDROOT
BRANCH   4  13
ATOM     13  C   UNL     1      -3.458  -3.219   0.251  0.00  0.00    -0.023 A 
ATOM     14  C   UNL     1      -4.494  -2.484  -0.294  0.00  0.00    +0.006 A 
ATOM     15  C   UNL     1      -5.755  -3.041  -0.400  0.00  0.00    +0.013 A 
ATOM     16  C   UNL     1      -5.979  -4.333   0.038  0.00  0.00    +0.055 A 
ATOM     17  C   UNL     1      -4.943  -5.068   0.583  0.00  0.00    +0.013 A 
ATOM     18  C   UNL     1      -3.681  -4.512   0.685  0.00  0.00    +0.006 A 
BRANCH  16  19
ATOM     19  C   UNL     1      -7.354  -4.939  -0.076  0.00  0.00    +0.417 C 
ATOM     20  F   UNL     1      -7.477  -5.587  -1.310  0.00  0.00    -0.166 F 
ATOM     21  F   UNL     1      -7.543  -5.864   0.956  0.00  0.00    -0.166 F 
ATOM     22  F   UNL     1      -8.318  -3.930   0.019  0.00  0.00    -0.166 F 
ENDBRANCH  16  19
ENDBRANCH   4  13
BRANCH   1  24
ATOM     23  C   UNL     1      -2.425   2.303  -0.167  0.00  0.00    +0.025 C 
ATOM     24  C   UNL     1      -1.143   1.502   0.069  0.00  0.00    +0.111 C 
ENDBRANCH   1  24
BRANCH  10  25
ATOM     25  C   UNL     1      -2.376  -0.774   5.149  0.00  0.00    +0.165 C 
BRANCH  25  26
ATOM     26  C   UNL     1      -1.157  -0.142   5.770  0.00  0.00    +0.234 C 
ATOM     27  O   UNL     1      -0.224   0.191   5.071  0.00  0.00    -0.274 OA
ATOM     28  N   UNL     1      -1.105   0.054   7.103  0.00  0.00    -0.311 N 
ATOM     29  H   UNL     1      -1.851  -0.212   7.662  0.00  0.00    +0.149 HD
BRANCH  28  30
ATOM     30  C   UNL     1       0.080   0.669   7.707  0.00  0.00    +0.073 C 
ATOM     31  C   UNL     1       1.134  -0.407   7.971  0.00  0.00    +0.022 C 
ATOM     32  C   UNL     1       2.372   0.235   8.602  0.00  0.00    +0.002 C 
ATOM     33  C   UNL     1       1.982   0.903   9.923  0.00  0.00    +0.000 C 
ATOM     34  C   UNL     1       0.927   1.979   9.658  0.00  0.00    +0.002 C 
ATOM     35  C   UNL     1      -0.310   1.337   9.027  0.00  0.00    +0.022 C 
ENDBRANCH  28  30
ENDBRANCH  25  26
BRANCH  25  36
ATOM     36  C   UNL     1      -3.605   0.088   5.444  0.00  0.00    +0.012 C 
ATOM     37  C   UNL     1      -3.412   1.477   4.833  0.00  0.00    +0.009 C 
ATOM     38  C   UNL     1      -4.846  -0.569   4.837  0.00  0.00    +0.009 C 
ENDBRANCH  25  36
ENDBRANCH  10  25
TORSDOF 7
