REMARK  Name = ZINC10284643
REMARK  11 active torsions:
REMARK  status: ('A' for Active; 'I' for Inactive)
REMARK    1  A    between atoms: C_1  and  C_2
REMARK    2  A    between atoms: C_6  and  C_31
REMARK    3  A    between atoms: C_7  and  O_8
REMARK    4  A    between atoms: O_8  and  C_9
REMARK    5  A    between atoms: C_9  and  C_11
REMARK    6  A    between atoms: C_9  and  C_12
REMARK    7  A    between atoms: N_14  and  C_15
REMARK    8  A    between atoms: C_18  and  S_21
REMARK    9  A    between atoms: S_21  and  N_24
REMARK   10  A    between atoms: N_24  and  C_25
REMARK   11  A    between atoms: C_25  and  C_26
REMARK                            x       y       z     vdW  Elec       q    Type
REMARK                         _______ _______ _______ _____ _____    ______ ____
ROOT
ATOM      1  C   UNL     1       4.748   3.170  -0.761  0.00  0.00    +0.034 A 
ATOM      2  C   UNL     1       5.453   1.979  -0.647  0.00  0.00    +0.025 A 
ATOM      3  C   UNL     1       6.466   1.690  -1.541  0.00  0.00    +0.030 A 
ATOM      4  C   UNL     1       6.785   2.589  -2.542  0.00  0.00    +0.105 A 
ATOM      5  C   UNL     1       6.088   3.778  -2.655  0.00  0.00    +0.030 A 
ATOM      6  C   UNL     1       5.071   4.071  -1.768  0.00  0.00    +0.025 A 
ENDROOT
BRANCH   1   9
ATOM      7  C   UNL     1       2.944   2.474   0.625  0.00  0.00    +0.258 C 
ATOM      8  O   UNL     1       3.079   1.341   0.212  0.00  0.00    -0.271 OA
ATOM      9  N   UNL     1       3.718   3.464   0.139  0.00  0.00    -0.282 N 
ATOM     10  H   UNL     1       3.562   4.381   0.414  0.00  0.00    +0.155 HD
BRANCH   7  11
ATOM     11  C   UNL     1       1.911   2.773   1.680  0.00  0.00    +0.256 C 
ATOM     12  C   UNL     1       2.600   3.345   2.921  0.00  0.00    +0.062 C 
BRANCH  11  13
ATOM     13  O   UNL     1       1.224   1.570   2.029  0.00  0.00    -0.479 OA
BRANCH  13  20
ATOM     14  C   UNL     1      -0.644   1.625  -0.089  0.00  0.00    +0.047 C 
ATOM     15  C   UNL     1      -1.054   1.715   1.359  0.00  0.00    -0.007 A 
ATOM     16  C   UNL     1      -2.389   1.835   1.693  0.00  0.00    +0.022 A 
ATOM     17  C   UNL     1      -2.766   1.912   3.022  0.00  0.00    +0.019 A 
ATOM     18  C   UNL     1      -1.807   1.880   4.018  0.00  0.00    +0.022 A 
ATOM     19  C   UNL     1      -0.470   1.765   3.688  0.00  0.00    -0.007 A 
ATOM     20  C   UNL     1      -0.090   1.682   2.356  0.00  0.00    +0.127 A 
ATOM     21  C   UNL     1       0.574   1.731   4.773  0.00  0.00    +0.047 C 
ATOM     22 BR   UNL     1      -4.595   2.070   3.476  0.00  0.00    -0.050 Br
ENDBRANCH  13  20
ENDBRANCH  11  13
ENDBRANCH   7  11
ENDBRANCH   1   9
BRANCH   4  23
ATOM     23  S   UNL     1       8.082   2.219  -3.675  0.00  0.00    +0.059 S 
ATOM     24  O   UNL     1       8.215   0.804  -3.693  0.00  0.00    -0.153 OA
ATOM     25  O   UNL     1       7.821   2.974  -4.851  0.00  0.00    -0.153 OA
BRANCH  23  26
ATOM     26  N   UNL     1       9.483   2.818  -3.029  0.00  0.00    -0.183 NA
ATOM     27  H   UNL     1       9.954   3.539  -3.475  0.00  0.00    +0.148 HD
BRANCH  26  28
ATOM     28  C   UNL     1      10.012   2.260  -1.782  0.00  0.00    +0.180 C 
BRANCH  28  29
ATOM     29  C   UNL     1      11.443   2.698  -1.603  0.00  0.00    +0.120 A 
ATOM     30  C   UNL     1      11.851   3.812  -0.968  0.00  0.00    +0.046 A 
ATOM     31  C   UNL     1      13.263   3.829  -1.036  0.00  0.00    +0.041 A 
ATOM     32  C   UNL     1      13.634   2.724  -1.708  0.00  0.00    +0.195 A 
ATOM     33  O   UNL     1      12.527   2.040  -2.043  0.00  0.00    -0.466 OA
ENDBRANCH  28  29
ENDBRANCH  26  28
ENDBRANCH  23  26
ENDBRANCH   4  23
TORSDOF 8
