REMARK  Name = ZINC16037282
REMARK  6 active torsions:
REMARK  status: ('A' for Active; 'I' for Inactive)
REMARK    1  A    between atoms: C_1  and  O_2
REMARK    2  A    between atoms: O_2  and  C_3
REMARK    3  A    between atoms: C_6  and  N_9
REMARK    4  A    between atoms: C_25  and  C_31
REMARK    5  A    between atoms: C_31  and  C_33
REMARK    6  A    between atoms: C_36  and  N_39
REMARK                            x       y       z     vdW  Elec       q    Type
REMARK                         _______ _______ _______ _____ _____    ______ ____
ROOT
ATOM      1  N   UNL     1       2.460  -2.459  -4.303  0.00  0.00    -0.210 N 
ATOM      2  C   UNL     1       2.623  -3.787  -4.388  0.00  0.00    +0.232 C 
ATOM      3  O   UNL     1       2.381  -4.588  -3.511  0.00  0.00    -0.274 OA
ATOM      4  C   UNL     1       3.162  -4.120  -5.768  0.00  0.00    +0.114 C 
ATOM      5  C   UNL     1       1.993  -4.455  -6.698  0.00  0.00    +0.110 C 
ATOM      6  C   UNL     1       0.684  -4.482  -5.953  0.00  0.00    +0.004 C 
ATOM      7  C   UNL     1      -0.441  -4.068  -6.578  0.00  0.00    -0.019 A 
ATOM      8  C   UNL     1      -1.752  -4.165  -5.923  0.00  0.00    +0.008 A 
ATOM      9  C   UNL     1      -2.858  -3.844  -6.633  0.00  0.00    +0.001 A 
ATOM     10  C   UNL     1      -2.790  -3.424  -7.968  0.00  0.00    +0.001 A 
ATOM     11  C   UNL     1      -1.617  -3.257  -8.620  0.00  0.00    +0.010 A 
ATOM     12  C   UNL     1      -0.397  -3.514  -7.951  0.00  0.00    -0.004 A 
ATOM     13  C   UNL     1       0.820  -3.214  -8.530  0.00  0.00    +0.080 C 
ATOM     14  N   UNL     1       1.917  -3.409  -7.729  0.00  0.00    -0.317 N 
ATOM     15  C   UNL     1       3.150  -2.625  -7.696  0.00  0.00    +0.157 C 
ATOM     16  C   UNL     1       3.699  -2.740  -6.245  0.00  0.00    +0.118 C 
ATOM     17  C   UNL     1       2.939  -1.777  -5.354  0.00  0.00    +0.232 C 
ATOM     18  O   UNL     1       2.792  -0.591  -5.556  0.00  0.00    -0.274 OA
ENDROOT
BRANCH   1  22
ATOM     19  C   UNL     1       0.607  -0.608  -1.055  0.00  0.00    +0.120 A 
ATOM     20  C   UNL     1      -0.129  -1.425  -1.901  0.00  0.00    +0.047 A 
ATOM     21  C   UNL     1       0.483  -2.038  -2.976  0.00  0.00    +0.027 A 
ATOM     22  C   UNL     1       1.837  -1.836  -3.210  0.00  0.00    +0.044 A 
ATOM     23  C   UNL     1       2.573  -1.018  -2.364  0.00  0.00    +0.027 A 
ATOM     24  C   UNL     1       1.958  -0.402  -1.292  0.00  0.00    +0.047 A 
BRANCH  19  26
ATOM     25  C   UNL     1      -1.391  -0.261   0.187  0.00  0.00    +0.277 C 
ATOM     26  O   UNL     1       0.003  -0.005   0.003  0.00  0.00    -0.495 OA
ENDBRANCH  19  26
ENDBRANCH   1  22
BRANCH  15  27
ATOM     27  C   UNL     1       2.860  -1.186  -8.036  0.00  0.00    +0.184 C 
ATOM     28  O   UNL     1       1.727  -0.760  -7.956  0.00  0.00    -0.290 OA
BRANCH  27  29
ATOM     29  C   UNL     1       3.951  -0.297  -8.466  0.00  0.00    +0.019 A 
ATOM     30  C   UNL     1       5.258  -0.785  -8.566  0.00  0.00    +0.013 A 
ATOM     31  C   UNL     1       6.274   0.054  -8.970  0.00  0.00    +0.033 A 
ATOM     32  C   UNL     1       6.005   1.377  -9.275  0.00  0.00    +0.126 A 
ATOM     33  C   UNL     1       4.714   1.868  -9.179  0.00  0.00    +0.033 A 
ATOM     34  C   UNL     1       3.686   1.039  -8.783  0.00  0.00    +0.013 A 
BRANCH  32  35
ATOM     35  N   UNL     1       7.102   2.271  -9.707  0.00  0.00    +0.056 N 
ATOM     36  O   UNL     1       8.231   1.846  -9.791  0.00  0.00    -0.126 OA
ATOM     37  O   UNL     1       6.870   3.427  -9.974  0.00  0.00    -0.126 OA
ENDBRANCH  32  35
ENDBRANCH  27  29
ENDBRANCH  15  27
TORSDOF 5
