REMARK  Name = ZINC05924698
REMARK  6 active torsions:
REMARK  status: ('A' for Active; 'I' for Inactive)
REMARK    1  A    between atoms: C_1  and  C_2
REMARK    2  A    between atoms: C_2  and  O_3
REMARK    3  A    between atoms: O_3  and  C_4
REMARK    4  A    between atoms: C_7  and  N_10
REMARK    5  A    between atoms: N_10  and  C_11
REMARK    6  A    between atoms: N_18  and  C_21
REMARK                            x       y       z     vdW  Elec       q    Type
REMARK                         _______ _______ _______ _____ _____    ______ ____
ROOT
ATOM      1  C   UNL     1       1.727  -6.437  -2.919  0.00  0.00    +0.090 C 
ATOM      2  C   UNL     1       1.927  -7.801  -3.034  0.00  0.00    +0.113 C 
ATOM      3  C   UNL     1       2.705  -8.373  -4.147  0.00  0.00    +0.256 C 
ATOM      4  O   UNL     1       3.196  -7.657  -5.000  0.00  0.00    -0.270 OA
ATOM      5  N   UNL     1       2.860  -9.713  -4.194  0.00  0.00    -0.263 N 
ATOM      6  C   UNL     1       2.325 -10.513  -3.261  0.00  0.00    +0.151 C 
ATOM      7  S   UNL     1       2.573 -12.201  -3.403  0.00  0.00    -0.018 S 
ATOM      8  N   UNL     1       1.608 -10.062  -2.223  0.00  0.00    -0.217 N 
ATOM      9  C   UNL     1       1.377  -8.745  -2.045  0.00  0.00    +0.263 C 
ATOM     10  O   UNL     1       0.728  -8.347  -1.096  0.00  0.00    -0.269 OA
ATOM     11  H   UNL     1       3.369 -10.105  -4.920  0.00  0.00    +0.157 HD
ENDROOT
BRANCH   8  12
ATOM     12  C   UNL     1       1.091 -10.976  -1.301  0.00  0.00    +0.051 A 
ATOM     13  C   UNL     1       1.825 -11.336  -0.192  0.00  0.00    +0.024 A 
ATOM     14  C   UNL     1       1.320 -12.246   0.732  0.00  0.00    +0.002 A 
ATOM     15  C   UNL     1       0.090 -12.805   0.567  0.00  0.00    +0.008 A 
ATOM     16  C   UNL     1      -0.691 -12.465  -0.551  0.00  0.00    -0.016 A 
ATOM     17  C   UNL     1      -0.190 -11.535  -1.495  0.00  0.00    +0.004 A 
ATOM     18  C   UNL     1      -0.974 -11.193  -2.608  0.00  0.00    +0.010 A 
ATOM     19  C   UNL     1      -2.205 -11.752  -2.763  0.00  0.00    +0.001 A 
ATOM     20  C   UNL     1      -2.702 -12.662  -1.832  0.00  0.00    +0.001 A 
ATOM     21  C   UNL     1      -1.965 -13.027  -0.747  0.00  0.00    +0.008 A 
ENDBRANCH   8  12
BRANCH   1  22
ATOM     22  N   UNL     1       1.125  -5.934  -1.822  0.00  0.00    -0.320 N 
ATOM     23  H   UNL     1       0.763  -6.532  -1.150  0.00  0.00    +0.152 HD
BRANCH  22  27
ATOM     24  C   UNL     1       0.819  -1.807  -1.322  0.00  0.00    +0.121 A 
ATOM     25  C   UNL     1       0.300  -2.663  -0.360  0.00  0.00    +0.047 A 
ATOM     26  C   UNL     1       0.401  -4.030  -0.525  0.00  0.00    +0.027 A 
ATOM     27  C   UNL     1       1.022  -4.548  -1.655  0.00  0.00    +0.031 A 
ATOM     28  C   UNL     1       1.540  -3.691  -2.617  0.00  0.00    +0.027 A 
ATOM     29  C   UNL     1       1.433  -2.325  -2.453  0.00  0.00    +0.047 A 
BRANCH  24  30
ATOM     30  O   UNL     1       0.719  -0.461  -1.158  0.00  0.00    -0.492 OA
BRANCH  30  32
ATOM     31  C   UNL     1       0.057   1.532   0.037  0.00  0.00    +0.048 C 
ATOM     32  C   UNL     1       0.074   0.002   0.030  0.00  0.00    +0.225 C 
ENDBRANCH  30  32
ENDBRANCH  24  30
ENDBRANCH  22  27
ENDBRANCH   1  22
TORSDOF 5
