REMARK  Name = ZINC39366545
REMARK  3 active torsions:
REMARK  status: ('A' for Active; 'I' for Inactive)
REMARK    1  A    between atoms: C_1  and  C_2
REMARK    2  A    between atoms: C_7  and  C_8
REMARK    3  A    between atoms: C_8  and  N_9
REMARK                            x       y       z     vdW  Elec       q    Type
REMARK                         _______ _______ _______ _____ _____    ______ ____
ROOT
ATOM      1  C   UNL     1      -0.018   1.503   0.010  0.00  0.00    +0.044 C 
ATOM      2  C   UNL     1       0.002  -0.004   0.002  0.00  0.00    -0.045 A 
ATOM      3  C   UNL     1       0.006  -0.689  -1.199  0.00  0.00    +0.005 A 
ATOM      4  C   UNL     1       0.025  -2.070  -1.207  0.00  0.00    +0.015 A 
ATOM      5  C   UNL     1       0.041  -2.769  -0.013  0.00  0.00    +0.018 A 
ATOM      6  C   UNL     1       0.037  -2.084   1.188  0.00  0.00    +0.021 A 
ATOM      7  C   UNL     1       0.023  -0.701   1.195  0.00  0.00    -0.021 A 
ATOM      8 BR   UNL     1       0.066  -4.660  -0.024  0.00  0.00    -0.050 Br
ENDROOT
BRANCH   7   9
ATOM      9  C   UNL     1       0.025   0.045   2.504  0.00  0.00    +0.191 C 
BRANCH   9  10
ATOM     10  N   UNL     1      -1.338   0.477   2.822  0.00  0.00    -0.201 NA
ATOM     11  C   UNL     1      -1.888   0.085   3.874  0.00  0.00    +0.235 C 
ATOM     12  O   UNL     1      -2.420  -0.293   4.891  0.00  0.00    -0.210 OA
ENDBRANCH   9  10
ENDBRANCH   7   9
TORSDOF 2
