REMARK  Name = ZINC11429453
REMARK  10 active torsions:
REMARK  status: ('A' for Active; 'I' for Inactive)
REMARK    1  A    between atoms: C_1  and  C_2
REMARK    2  A    between atoms: C_2  and  S_3
REMARK    3  A    between atoms: S_3  and  C_4
REMARK    4  A    between atoms: C_10  and  C_12
REMARK    5  A    between atoms: C_14  and  C_24
REMARK    6  A    between atoms: N_20  and  C_21
REMARK    7  A    between atoms: C_21  and  C_22
REMARK    8  A    between atoms: C_21  and  C_23
REMARK    9  A    between atoms: C_26  and  C_30
REMARK   10  A    between atoms: C_28  and  C_29
REMARK                            x       y       z     vdW  Elec       q    Type
REMARK                         _______ _______ _______ _____ _____    ______ ____
ROOT
ATOM      1  C   UNL     1      -0.710  10.228   1.075  0.00  0.00    +0.051 A 
ATOM      2  C   UNL     1      -1.361  10.698   2.210  0.00  0.00    +0.042 A 
ATOM      3  C   UNL     1      -1.480  12.077   2.408  0.00  0.00    +0.077 A 
ATOM      4  N   UNL     1      -0.996  12.944   1.534  0.00  0.00    -0.227 NA
ATOM      5  C   UNL     1      -0.371  12.552   0.433  0.00  0.00    +0.160 A 
ATOM      6  C   UNL     1      -0.203  11.180   0.159  0.00  0.00    +0.051 A 
ATOM      7  C   UNL     1       0.489  11.082  -1.066  0.00  0.00    +0.145 A 
ATOM      8  N   UNL     1       0.726  12.285  -1.506  0.00  0.00    -0.177 NA
ATOM      9  N   UNL     1       0.210  13.228  -0.609  0.00  0.00    -0.244 N 
ENDROOT
BRANCH   1  16
ATOM     10  C   UNL     1      -0.809   3.866   1.366  0.00  0.00    +0.160 A 
ATOM     11  N   UNL     1      -0.283   4.630   0.420  0.00  0.00    -0.133 NA
ATOM     12  N   UNL     1      -0.328   5.889   0.477  0.00  0.00    -0.125 NA
ATOM     13  C   UNL     1      -0.903   6.525   1.485  0.00  0.00    +0.189 A 
ATOM     14  S   UNL     1      -1.450   5.129   2.463  0.00  0.00    -0.024 S 
ATOM     15  N   UNL     1      -1.048   7.890   1.716  0.00  0.00    -0.259 N 
ATOM     16  C   UNL     1      -0.557   8.779   0.829  0.00  0.00    +0.251 C 
ATOM     17  O   UNL     1       0.012   8.388  -0.172  0.00  0.00    -0.270 OA
ATOM     18  H   UNL     1      -1.501   8.201   2.514  0.00  0.00    +0.157 HD
BRANCH  10  19
ATOM     19  S   UNL     1      -0.868   2.111   1.503  0.00  0.00    -0.097 S 
BRANCH  19  21
ATOM     20  C   UNL     1       0.002  -0.004   0.002  0.00  0.00    +0.016 C 
ATOM     21  C   UNL     1      -0.019   1.526   0.010  0.00  0.00    +0.073 C 
ENDBRANCH  19  21
ENDBRANCH  10  19
ENDBRANCH   1  16
BRANCH   3  22
ATOM     22  C   UNL     1      -2.168  12.579   3.622  0.00  0.00    +0.041 A 
ATOM     23  C   UNL     1      -2.765  11.777   4.697  0.00  0.00    +0.054 A 
ATOM     24  C   UNL     1      -3.270  12.656   5.577  0.00  0.00    +0.103 A 
ATOM     25  O   UNL     1      -3.035  13.902   5.136  0.00  0.00    -0.464 OA
ATOM     26  C   UNL     1      -2.372  13.876   3.972  0.00  0.00    +0.111 A 
ATOM     27  C   UNL     1      -1.931  15.082   3.183  0.00  0.00    +0.087 C 
ATOM     28  C   UNL     1      -3.985  12.302   6.856  0.00  0.00    +0.086 C 
ENDBRANCH   3  22
BRANCH   9  29
ATOM     29  C   UNL     1       0.279  14.684  -0.758  0.00  0.00    +0.103 C 
ATOM     30  C   UNL     1       1.744  15.121  -0.819  0.00  0.00    +0.032 C 
ATOM     31  C   UNL     1      -0.431  15.099  -2.048  0.00  0.00    +0.032 C 
ENDBRANCH   9  29
TORSDOF 5
