REMARK  Name = ZINC38650816
REMARK  15 active torsions:
REMARK  status: ('A' for Active; 'I' for Inactive)
REMARK    1  A    between atoms: C_1  and  C_2
REMARK    2  A    between atoms: C_2  and  C_3
REMARK    3  A    between atoms: C_3  and  C_4
REMARK    4  A    between atoms: C_4  and  O_5
REMARK    5  A    between atoms: O_5  and  C_6
REMARK    6  A    between atoms: C_9  and  C_12
REMARK    7  A    between atoms: C_17  and  O_26
REMARK    8  A    between atoms: C_21  and  N_25
REMARK    9  A    between atoms: C_22  and  C_23
REMARK   10  A    between atoms: O_26  and  C_27
REMARK   11  A    between atoms: C_27  and  C_29
REMARK   12  A    between atoms: C_32  and  O_35
REMARK   13  A    between atoms: O_35  and  C_36
REMARK   14  A    between atoms: C_36  and  C_37
REMARK   15  A    between atoms: C_37  and  C_38
REMARK                            x       y       z     vdW  Elec       q    Type
REMARK                         _______ _______ _______ _____ _____    ______ ____
ROOT
ATOM      1  C   UNL     1       1.909  -8.078   3.057  0.00  0.00    +0.098 C 
ATOM      2  C   UNL     1       3.365  -8.464   3.075  0.00  0.00    +0.008 A 
ATOM      3  C   UNL     1       4.051  -8.586   1.880  0.00  0.00    +0.012 A 
ATOM      4  C   UNL     1       5.386  -8.939   1.877  0.00  0.00    +0.047 A 
ATOM      5  C   UNL     1       6.044  -9.173   3.077  0.00  0.00    +0.135 A 
ATOM      6  C   UNL     1       5.360  -9.051   4.275  0.00  0.00    +0.093 A 
ATOM      7  C   UNL     1       4.017  -8.696   4.276  0.00  0.00    +0.138 A 
ATOM      8  O   UNL     1       3.361  -8.582   5.457  0.00  0.00    -0.441 OA
ATOM      9  C   UNL     1       2.019  -8.626   5.485  0.00  0.00    +0.199 C 
ATOM     10  C   UNL     1       1.274  -8.396   4.382  0.00  0.00    +0.098 C 
ENDROOT
BRANCH   1  14
ATOM     11  C   UNL     1       1.564  -3.889   2.290  0.00  0.00    +0.121 A 
ATOM     12  C   UNL     1       0.990  -4.804   1.420  0.00  0.00    +0.046 A 
ATOM     13  C   UNL     1       1.103  -6.158   1.670  0.00  0.00    +0.008 A 
ATOM     14  C   UNL     1       1.788  -6.601   2.787  0.00  0.00    -0.034 A 
ATOM     15  C   UNL     1       2.360  -5.691   3.656  0.00  0.00    +0.008 A 
ATOM     16  C   UNL     1       2.255  -4.336   3.407  0.00  0.00    +0.046 A 
BRANCH  11  17
ATOM     17  O   UNL     1       1.454  -2.556   2.046  0.00  0.00    -0.492 OA
BRANCH  17  18
ATOM     18  C   UNL     1       0.729  -2.168   0.878  0.00  0.00    +0.229 C 
BRANCH  18  19
ATOM     19  C   UNL     1       0.712  -0.642   0.771  0.00  0.00    +0.041 C 
BRANCH  19  21
ATOM     20  C   UNL     1      -0.081   1.300  -0.587  0.00  0.00    +0.004 C 
ATOM     21  C   UNL     1      -0.065  -0.226  -0.480  0.00  0.00    -0.000 C 
ENDBRANCH  19  21
ENDBRANCH  18  19
ENDBRANCH  17  18
ENDBRANCH  11  17
ENDBRANCH   1  14
BRANCH   9  22
ATOM     22  N   UNL     1       1.387  -8.912   6.670  0.00  0.00    -0.328 N 
ATOM     23  H   UNL     1       1.908  -9.078   7.470  0.00  0.00    +0.145 HD
ATOM     24  H   UNL     1       0.418  -8.947   6.706  0.00  0.00    +0.145 HD
ENDBRANCH   9  22
BRANCH  10  25
ATOM     25  C   UNL     1      -0.153  -8.457   4.479  0.00  0.00    +0.101 C 
ATOM     26  N   UNL     1      -1.286  -8.505   4.556  0.00  0.00    -0.191 NA
ENDBRANCH  10  25
BRANCH   5  27
ATOM     27  O   UNL     1       7.358  -9.520   3.076  0.00  0.00    -0.422 OA
BRANCH  27  28
ATOM     28  C   UNL     1       7.681 -10.777   3.442  0.00  0.00    +0.344 C 
ATOM     29  O   UNL     1       6.805 -11.590   3.658  0.00  0.00    -0.245 OA
BRANCH  28  30
ATOM     30  C   UNL     1       9.097 -11.164   3.579  0.00  0.00    +0.060 A 
ATOM     31  C   UNL     1      10.106 -10.228   3.336  0.00  0.00    +0.018 A 
ATOM     32  C   UNL     1      11.427 -10.593   3.466  0.00  0.00    +0.046 A 
ATOM     33  C   UNL     1      11.758 -11.891   3.838  0.00  0.00    +0.121 A 
ATOM     34  C   UNL     1      10.757 -12.825   4.080  0.00  0.00    +0.046 A 
ATOM     35  C   UNL     1       9.434 -12.466   3.958  0.00  0.00    +0.018 A 
BRANCH  33  36
ATOM     36  O   UNL     1      13.061 -12.247   3.965  0.00  0.00    -0.492 OA
BRANCH  36  37
ATOM     37  C   UNL     1      13.330 -13.597   4.351  0.00  0.00    +0.229 C 
BRANCH  37  38
ATOM     38  C   UNL     1      14.843 -13.809   4.441  0.00  0.00    +0.038 C 
ATOM     39  C   UNL     1      15.131 -15.254   4.854  0.00  0.00    +0.007 C 
ENDBRANCH  37  38
ENDBRANCH  36  37
ENDBRANCH  33  36
ENDBRANCH  28  30
ENDBRANCH  27  28
ENDBRANCH   5  27
TORSDOF 13
