REMARK  Name = ZINC21705550
REMARK  8 active torsions:
REMARK  status: ('A' for Active; 'I' for Inactive)
REMARK    1  A    between atoms: C_1  and  C_2
REMARK    2  A    between atoms: C_2  and  C_3
REMARK    3  A    between atoms: C_3  and  C_4
REMARK    4  A    between atoms: C_3  and  C_5
REMARK    5  A    between atoms: C_3  and  C_6
REMARK    6  A    between atoms: N_14  and  C_18
REMARK    7  A    between atoms: C_18  and  C_19
REMARK    8  A    between atoms: C_25  and  C_27
REMARK                            x       y       z     vdW  Elec       q    Type
REMARK                         _______ _______ _______ _____ _____    ______ ____
ROOT
ATOM      1  C   UNL     1       1.661   4.191   0.008  0.00  0.00    +0.213 C 
ENDROOT
BRANCH   1  10
ATOM      2  C   UNL     1      -3.417  -0.067   0.017  0.00  0.00    -0.005 C 
ATOM      3  C   UNL     1      -2.569   0.161  -1.235  0.00  0.00    +0.006 C 
ATOM      4  C   UNL     1      -2.038   1.597  -1.235  0.00  0.00    +0.035 C 
ATOM      5  C   UNL     1      -1.199   1.829   0.017  0.00  0.00    +0.113 C 
ATOM      6  C   UNL     1      -2.026   1.585   1.274  0.00  0.00    +0.035 C 
ATOM      7  C   UNL     1      -2.558   0.149   1.265  0.00  0.00    +0.006 C 
ATOM      8  C   UNL     1      -0.634   3.231   0.024  0.00  0.00    +0.247 C 
ATOM      9  O   UNL     1      -1.255   4.272   0.035  0.00  0.00    -0.273 OA
ATOM     10  N   UNL     1       0.707   3.079   0.011  0.00  0.00    -0.215 N 
ATOM     11  C   UNL     1       1.056   1.787   0.002  0.00  0.00    +0.310 C 
ATOM     12  O   UNL     1       2.208   1.399  -0.011  0.00  0.00    -0.252 OA
ATOM     13  N   UNL     1      -0.011   0.966   0.007  0.00  0.00    -0.285 N 
ATOM     14  H   UNL     1      -0.126  -0.128   0.006  0.00  0.00    +0.151 HD
BRANCH   2  15
ATOM     15  C   UNL     1      -3.958  -1.499   0.013  0.00  0.00    -0.032 C 
ATOM     16  C   UNL     1      -4.819  -1.714  -1.233  0.00  0.00    +0.011 C 
ATOM     17  C   UNL     1      -2.789  -2.485   0.001  0.00  0.00    +0.011 C 
BRANCH  15  19
ATOM     18  C   UNL     1      -5.347  -3.159   1.260  0.00  0.00    +0.004 C 
ATOM     19  C   UNL     1      -4.806  -1.727   1.265  0.00  0.00    +0.003 C 
ENDBRANCH  15  19
ENDBRANCH   2  15
ENDBRANCH   1  10
BRANCH   1  20
ATOM     20  C   UNL     1       1.975   4.579  -1.413  0.00  0.00    +0.234 C 
ATOM     21  O   UNL     1       1.454   3.986  -2.334  0.00  0.00    -0.274 OA
ATOM     22  N   UNL     1       2.836   5.586  -1.662  0.00  0.00    -0.293 N 
ATOM     23  C   UNL     1       3.534   6.391  -0.644  0.00  0.00    +0.108 C 
ATOM     24  C   UNL     1       3.869   7.725  -1.351  0.00  0.00    +0.021 C 
ATOM     25  C   UNL     1       4.207   7.243  -2.787  0.00  0.00    +0.029 C 
ATOM     26  C   UNL     1       3.231   6.066  -2.995  0.00  0.00    +0.106 C 
BRANCH  26  27
ATOM     27  C   UNL     1       3.916   4.960  -3.756  0.00  0.00    -0.023 A 
ATOM     28  C   UNL     1       4.798   4.119  -3.104  0.00  0.00    +0.009 A 
ATOM     29  C   UNL     1       5.429   3.101  -3.797  0.00  0.00    +0.050 A 
ATOM     30  C   UNL     1       5.174   2.928  -5.147  0.00  0.00    +0.162 A 
ATOM     31  C   UNL     1       4.290   3.774  -5.801  0.00  0.00    +0.162 A 
ATOM     32  C   UNL     1       3.655   4.788  -5.104  0.00  0.00    +0.055 A 
ATOM     33  O   UNL     1       4.046   3.595  -7.132  0.00  0.00    -0.488 OA
ATOM     34  C   UNL     1       5.135   3.883  -8.011  0.00  0.00    +0.232 C 
ATOM     35  C   UNL     1       6.061   2.682  -8.133  0.00  0.00    +0.082 C 
ATOM     36  C   UNL     1       6.746   2.343  -6.819  0.00  0.00    +0.232 C 
ATOM     37  O   UNL     1       5.790   1.928  -5.841  0.00  0.00    -0.488 OA
ENDBRANCH  26  27
ENDBRANCH   1  20
TORSDOF 5
