REMARK  Name = ZINC27833248
REMARK  10 active torsions:
REMARK  status: ('A' for Active; 'I' for Inactive)
REMARK    1  A    between atoms: C_1  and  C_2
REMARK    2  A    between atoms: C_2  and  N_3
REMARK    3  A    between atoms: N_3  and  C_11
REMARK    4  A    between atoms: C_4  and  C_6
REMARK    5  A    between atoms: C_6  and  N_7
REMARK    6  A    between atoms: C_8  and  C_10
REMARK    7  A    between atoms: C_11  and  C_17
REMARK    8  A    between atoms: N_19  and  C_20
REMARK    9  A    between atoms: C_20  and  C_22
REMARK   10  A    between atoms: C_20  and  C_29
REMARK                            x       y       z     vdW  Elec       q    Type
REMARK                         _______ _______ _______ _____ _____    ______ ____
ROOT
ATOM      1  C   UNL     1      -4.528   3.463   1.881  0.00  0.00    +0.237 C 
ATOM      2  O   UNL     1      -4.212   4.264   2.735  0.00  0.00    -0.273 OA
ATOM      3  N   UNL     1      -3.915   3.479   0.681  0.00  0.00    -0.303 N 
ATOM      4  H   UNL     1      -4.142   2.702  -0.063  0.00  0.00    +0.150 HD
ENDROOT
BRANCH   1   5
ATOM      5  C   UNL     1      -5.607   2.449   2.163  0.00  0.00    +0.113 C 
ATOM      6  C   UNL     1      -6.947   2.972   1.641  0.00  0.00    +0.035 C 
ATOM      7  C   UNL     1      -8.042   1.942   1.927  0.00  0.00    +0.003 C 
ATOM      8  C   UNL     1      -8.139   1.706   3.435  0.00  0.00    +0.000 C 
ATOM      9  C   UNL     1      -6.799   1.183   3.957  0.00  0.00    +0.003 C 
ATOM     10  C   UNL     1      -5.704   2.213   3.671  0.00  0.00    +0.035 C 
BRANCH   5  11
ATOM     11  N   UNL     1      -5.279   1.189   1.491  0.00  0.00    -0.286 N 
ATOM     12  C   UNL     1      -5.996   0.789   0.422  0.00  0.00    +0.234 C 
ATOM     13  O   UNL     1      -6.837   1.522  -0.052  0.00  0.00    -0.274 OA
BRANCH  11  15
ATOM     14  C   UNL     1      -4.711  -0.680   2.962  0.00  0.00    +0.024 C 
ATOM     15  C   UNL     1      -4.173   0.363   1.982  0.00  0.00    +0.105 C 
ENDBRANCH  11  15
BRANCH  12  16
ATOM     16  C   UNL     1      -5.752  -0.570  -0.183  0.00  0.00    +0.200 C 
BRANCH  16  17
ATOM     17  N   UNL     1      -6.650  -0.765  -1.324  0.00  0.00    -0.307 N 
ATOM     18  C   UNL     1      -6.610  -1.915  -2.024  0.00  0.00    +0.210 C 
ATOM     19  O   UNL     1      -5.830  -2.789  -1.710  0.00  0.00    -0.276 OA
ATOM     20  C   UNL     1      -7.534  -2.116  -3.198  0.00  0.00    +0.109 C 
ATOM     21  H   UNL     1      -7.358   0.028  -1.608  0.00  0.00    +0.149 HD
ENDBRANCH  16  17
ENDBRANCH  12  16
ENDBRANCH   5  11
ENDBRANCH   1   5
BRANCH   3  22
ATOM     22  C   UNL     1      -2.945   4.532   0.368  0.00  0.00    +0.135 C 
BRANCH  22  23
ATOM     23  C   UNL     1      -2.942   4.786  -1.117  0.00  0.00    -0.023 A 
ATOM     24  C   UNL     1      -3.013   3.725  -2.000  0.00  0.00    +0.007 A 
ATOM     25  C   UNL     1      -3.015   3.958  -3.362  0.00  0.00    +0.020 A 
ATOM     26  C   UNL     1      -2.935   5.252  -3.843  0.00  0.00    +0.041 A 
ATOM     27  C   UNL     1      -2.858   6.314  -2.959  0.00  0.00    +0.020 A 
ATOM     28  C   UNL     1      -2.862   6.080  -1.597  0.00  0.00    +0.007 A 
ATOM     29 CL   UNL     1      -2.930   5.545  -5.554  0.00  0.00    -0.084 Cl
ENDBRANCH  22  23
BRANCH  22  30
ATOM     30  C   UNL     1      -1.571   4.096   0.807  0.00  0.00    -0.005 A 
ATOM     31  C   UNL     1      -1.267   2.750   0.892  0.00  0.00    +0.007 A 
ATOM     32  C   UNL     1      -0.008   2.350   1.299  0.00  0.00    +0.000 A 
ATOM     33  C   UNL     1       0.951   3.296   1.610  0.00  0.00    +0.001 A 
ATOM     34  C   UNL     1       0.650   4.641   1.521  0.00  0.00    +0.020 A 
ATOM     35  C   UNL     1      -0.612   5.043   1.119  0.00  0.00    +0.046 A 
ATOM     36 CL   UNL     1      -0.991   6.733   1.006  0.00  0.00    -0.083 Cl
ENDBRANCH  22  30
ENDBRANCH   3  22
TORSDOF 8
