REMARK  Name = ZINC39462577
REMARK  5 active torsions:
REMARK  status: ('A' for Active; 'I' for Inactive)
REMARK    1  A    between atoms: C_11  and  C_13
REMARK    2  A    between atoms: C_13  and  S_14
REMARK    3  A    between atoms: S_14  and  C_15
REMARK    4  A    between atoms: C_19  and  N_29
REMARK    5  A    between atoms: N_21  and  C_22
REMARK                            x       y       z     vdW  Elec       q    Type
REMARK                         _______ _______ _______ _____ _____    ______ ____
ROOT
ATOM      1  C   UNL     1       7.684  -2.368  -0.184  0.00  0.00    +0.216 C 
ATOM      2  N   UNL     1       7.667  -3.302  -1.332  0.00  0.00    -0.228 NA
ATOM      3  N   UNL     1       8.547  -4.407  -0.918  0.00  0.00    -0.251 NA
ATOM      4  C   UNL     1       8.245  -4.551   0.530  0.00  0.00    +0.105 C 
ATOM      5  N   UNL     1       8.053  -3.163   1.001  0.00  0.00    -0.304 N 
ATOM      6  H   UNL     1       8.015  -2.856  -2.167  0.00  0.00    +0.143 HD
ATOM      7  H   UNL     1       9.517  -4.169  -1.063  0.00  0.00    +0.140 HD
ENDROOT
BRANCH   5   8
ATOM      8  C   UNL     1       8.192  -2.697   2.310  0.00  0.00    +0.033 A 
ATOM      9  C   UNL     1       8.363  -3.596   3.355  0.00  0.00    +0.023 A 
ATOM     10  C   UNL     1       8.501  -3.133   4.649  0.00  0.00    +0.003 A 
ATOM     11  C   UNL     1       8.469  -1.775   4.905  0.00  0.00    +0.020 A 
ATOM     12  C   UNL     1       8.299  -0.875   3.868  0.00  0.00    +0.043 A 
ATOM     13  C   UNL     1       8.165  -1.333   2.570  0.00  0.00    +0.043 A 
ATOM     14 CL   UNL     1       8.258   0.829   4.195  0.00  0.00    -0.083 Cl
ENDBRANCH   5   8
BRANCH   4  15
ATOM     15  N   UNL     1       9.371  -5.182   1.230  0.00  0.00    +0.401 N 
ATOM     16  C   UNL     1      10.539  -4.276   1.213  0.00  0.00    -0.074 C 
ATOM     17  C   UNL     1      11.764  -5.212   1.067  0.00  0.00    -0.020 C 
ATOM     18  C   UNL     1      11.214  -6.301   0.110  0.00  0.00    -0.020 C 
ATOM     19  C   UNL     1       9.740  -6.436   0.546  0.00  0.00    -0.074 C 
ATOM     20  H   UNL     1       9.111  -5.380   2.184  0.00  0.00    -0.077 HD
ENDBRANCH   4  15
BRANCH   1  21
ATOM     21  S   UNL     1       6.041  -1.635   0.046  0.00  0.00    -0.114 S 
BRANCH  21  22
ATOM     22  C   UNL     1       4.952  -3.065   0.288  0.00  0.00    +0.146 C 
BRANCH  22  33
ATOM     23  C   UNL     1      -0.525   0.146   1.016  0.00  0.00    +0.001 A 
ATOM     24  C   UNL     1       0.527   1.027   0.807  0.00  0.00    +0.002 A 
ATOM     25  C   UNL     1       1.810   0.563   0.623  0.00  0.00    +0.028 A 
ATOM     26  C   UNL     1       2.059  -0.811   0.648  0.00  0.00    +0.078 A 
ATOM     27  C   UNL     1       0.986  -1.704   0.861  0.00  0.00    +0.065 A 
ATOM     28  C   UNL     1      -0.305  -1.214   1.045  0.00  0.00    +0.015 A 
ATOM     29  C   UNL     1       1.280  -3.145   0.881  0.00  0.00    +0.259 A 
ATOM     30  O   UNL     1       0.402  -3.968   1.060  0.00  0.00    -0.267 OA
ATOM     31  N   UNL     1       2.567  -3.520   0.692  0.00  0.00    -0.310 N 
ATOM     32  H   UNL     1       2.799  -4.462   0.699  0.00  0.00    +0.170 HD
ATOM     33  C   UNL     1       3.537  -2.590   0.493  0.00  0.00    +0.120 A 
ATOM     34  N   UNL     1       3.307  -1.312   0.471  0.00  0.00    -0.233 NA
ENDBRANCH  22  33
ENDBRANCH  21  22
ENDBRANCH   1  21
TORSDOF 5
