REMARK  Name = ZINC12073227
REMARK  5 active torsions:
REMARK  status: ('A' for Active; 'I' for Inactive)
REMARK    1  A    between atoms: C_1  and  C_2
REMARK    2  A    between atoms: C_5  and  C_7
REMARK    3  A    between atoms: C_9  and  C_13
REMARK    4  A    between atoms: C_10  and  C_12
REMARK    5  A    between atoms: C_13  and  N_51
REMARK                            x       y       z     vdW  Elec       q    Type
REMARK                         _______ _______ _______ _____ _____    ______ ____
ROOT
ATOM      1  C   UNL     1       2.118   7.365  -2.049  0.00  0.00    -0.077 C 
ATOM      2  C   UNL     1       1.873   7.700  -3.522  0.00  0.00    -0.003 C 
ATOM      3  C   UNL     1       1.083   9.004  -3.620  0.00  0.00    +0.011 C 
ATOM      4  C   UNL     1      -0.223   8.885  -2.836  0.00  0.00    -0.003 C 
ATOM      5  C   UNL     1       0.089   8.512  -1.385  0.00  0.00    -0.077 C 
ATOM      6  C   UNL     1       1.905  10.152  -3.091  0.00  0.00    -0.015 C 
ATOM      7  C   UNL     1       2.079  11.021  -4.072  0.00  0.00    +0.005 C 
ATOM      8  C   UNL     1       1.417  10.564  -5.308  0.00  0.00    -0.021 A 
ATOM      9  C   UNL     1       0.799   9.335  -5.062  0.00  0.00    -0.030 A 
ATOM     10  C   UNL     1       0.107   8.691  -6.061  0.00  0.00    +0.005 A 
ATOM     11  C   UNL     1       0.020   9.259  -7.320  0.00  0.00    +0.000 A 
ATOM     12  C   UNL     1       0.628  10.475  -7.577  0.00  0.00    +0.001 A 
ATOM     13  C   UNL     1       1.324  11.129  -6.582  0.00  0.00    +0.008 A 
ATOM     14  N   UNL     1       0.814   7.224  -1.366  0.00  0.00    +0.384 N 
ATOM     15  H   UNL     1       0.254   6.519  -1.861  0.00  0.00    -0.081 HD
ENDROOT
BRANCH  14  16
ATOM     16  C   UNL     1       1.020   6.780   0.028  0.00  0.00    -0.019 C 
BRANCH  16  19
ATOM     17  C   UNL     1       1.649   3.217   0.003  0.00  0.00    +0.264 A 
ATOM     18  N   UNL     1       0.831   4.247   0.011  0.00  0.00    -0.213 NA
ATOM     19  C   UNL     1       1.561   5.374   0.015  0.00  0.00    +0.066 A 
ATOM     20  C   UNL     1       2.860   5.025  -0.000  0.00  0.00    +0.124 A 
ATOM     21  O   UNL     1       2.914   3.677  -0.007  0.00  0.00    -0.438 OA
ATOM     22  C   UNL     1       4.037   5.965  -0.007  0.00  0.00    +0.088 C 
BRANCH  17  27
ATOM     23  C   UNL     1      -1.211  -0.899   0.008  0.00  0.00    +0.086 C 
ATOM     24  C   UNL     1       0.002  -0.004   0.002  0.00  0.00    +0.103 A 
ATOM     25  C   UNL     1       1.285  -0.420  -0.013  0.00  0.00    +0.045 A 
ATOM     26  C   UNL     1       2.093   0.732  -0.014  0.00  0.00    +0.055 A 
ATOM     27  C   UNL     1       1.249   1.803  -0.000  0.00  0.00    +0.190 A 
ATOM     28  O   UNL     1      -0.016   1.338   0.009  0.00  0.00    -0.455 OA
ENDBRANCH  17  27
ENDBRANCH  16  19
ENDBRANCH  14  16
TORSDOF 3
