REMARK  Name = ZINC39534225
REMARK  11 active torsions:
REMARK  status: ('A' for Active; 'I' for Inactive)
REMARK    1  A    between atoms: C_1  and  S_2
REMARK    2  A    between atoms: S_2  and  N_3
REMARK    3  A    between atoms: N_3  and  C_4
REMARK    4  A    between atoms: C_4  and  C_5
REMARK    5  A    between atoms: C_5  and  C_7
REMARK    6  A    between atoms: C_5  and  N_23
REMARK    7  A    between atoms: C_10  and  S_13
REMARK    8  A    between atoms: S_13  and  O_16
REMARK    9  A    between atoms: O_16  and  C_17
REMARK   10  A    between atoms: C_27  and  C_30
REMARK   11  A    between atoms: C_30  and  C_31
REMARK                            x       y       z     vdW  Elec       q    Type
REMARK                         _______ _______ _______ _____ _____    ______ ____
ROOT
ATOM      1  C   UNL     1       1.348  -2.190  -3.099  0.00  0.00    +0.101 C 
ENDROOT
BRANCH   1   2
ATOM      2  N   UNL     1       0.014  -1.756  -3.536  0.00  0.00    -0.297 NA
ATOM      3  C   UNL     1       0.085  -0.467  -4.239  0.00  0.00    +0.066 C 
ATOM      4  C   UNL     1      -1.312  -0.079  -4.729  0.00  0.00    -0.067 C 
ATOM      5  N   UNL     1      -2.224   0.018  -3.582  0.00  0.00    +0.383 N 
ATOM      6  C   UNL     1      -2.303  -1.283  -2.905  0.00  0.00    -0.053 C 
ATOM      7  C   UNL     1      -0.914  -1.680  -2.400  0.00  0.00    +0.069 C 
ATOM      8  H   UNL     1      -1.879   0.713  -2.936  0.00  0.00    -0.085 HD
ATOM      9  H   UNL     1      -3.142   0.286  -3.904  0.00  0.00    -0.085 HD
BRANCH   6  10
ATOM     10  C   UNL     1      -3.267  -1.184  -1.721  0.00  0.00    +0.020 C 
BRANCH  10  11
ATOM     11  C   UNL     1      -4.660  -0.914  -2.228  0.00  0.00    -0.049 A 
ATOM     12  C   UNL     1      -5.093   0.388  -2.399  0.00  0.00    +0.003 A 
ATOM     13  C   UNL     1      -6.371   0.636  -2.865  0.00  0.00    +0.000 A 
ATOM     14  C   UNL     1      -7.215  -0.418  -3.160  0.00  0.00    +0.000 A 
ATOM     15  C   UNL     1      -6.782  -1.719  -2.991  0.00  0.00    +0.000 A 
ATOM     16  C   UNL     1      -5.503  -1.967  -2.529  0.00  0.00    +0.003 A 
ENDBRANCH  10  11
ENDBRANCH   6  10
ENDBRANCH   1   2
BRANCH   1  17
ATOM     17  C   UNL     1       1.349  -3.684  -2.902  0.00  0.00    -0.029 A 
ATOM     18  C   UNL     1       0.156  -4.382  -2.898  0.00  0.00    +0.007 A 
ATOM     19  C   UNL     1       0.158  -5.753  -2.717  0.00  0.00    +0.031 A 
ATOM     20  C   UNL     1       1.352  -6.426  -2.541  0.00  0.00    +0.128 A 
ATOM     21  C   UNL     1       2.546  -5.728  -2.546  0.00  0.00    +0.031 A 
ATOM     22  C   UNL     1       2.545  -4.358  -2.731  0.00  0.00    +0.007 A 
BRANCH  20  23
ATOM     23  S   UNL     1       1.354  -8.172  -2.309  0.00  0.00    +0.151 S 
ATOM     24  O   UNL     1       2.557  -8.490  -1.623  0.00  0.00    -0.131 OA
ATOM     25  O   UNL     1       0.073  -8.516  -1.800  0.00  0.00    -0.131 OA
BRANCH  23  26
ATOM     26  O   UNL     1       1.459  -8.809  -3.688  0.00  0.00    -0.342 OA
BRANCH  26  27
ATOM     27  C   UNL     1       2.700  -8.736  -4.237  0.00  0.00    +0.157 A 
ATOM     28  C   UNL     1       3.050  -7.645  -5.020  0.00  0.00    +0.048 A 
ATOM     29  C   UNL     1       4.312  -7.573  -5.577  0.00  0.00    +0.004 A 
ATOM     30  C   UNL     1       5.226  -8.586  -5.355  0.00  0.00    +0.000 A 
ATOM     31  C   UNL     1       4.880  -9.674  -4.576  0.00  0.00    +0.004 A 
ATOM     32  C   UNL     1       3.621  -9.748  -4.011  0.00  0.00    +0.048 A 
ENDBRANCH  26  27
ENDBRANCH  23  26
ENDBRANCH  20  23
ENDBRANCH   1  17
BRANCH   1  33
ATOM     33  C   UNL     1       1.702  -1.502  -1.780  0.00  0.00    +0.117 C 
BRANCH  33  34
ATOM     34  N   UNL     1       1.642  -0.044  -1.956  0.00  0.00    -0.262 NA
ATOM     35  H   UNL     1       2.407   0.282  -2.527  0.00  0.00    +0.135 HD
BRANCH  34  37
ATOM     36  C   UNL     1       1.544   2.541  -0.833  0.00  0.00    +0.102 C 
ATOM     37  S   UNL     1       1.618   0.782  -0.397  0.00  0.00    -0.084 S 
ENDBRANCH  34  37
ENDBRANCH  33  34
ENDBRANCH   1  33
TORSDOF 10
