REMARK  Name = ZINC20116215
REMARK  9 active torsions:
REMARK  status: ('A' for Active; 'I' for Inactive)
REMARK    1  A    between atoms: C_1  and  C_2
REMARK    2  A    between atoms: C_2  and  C_3
REMARK    3  A    between atoms: C_2  and  C_4
REMARK    4  A    between atoms: C_4  and  C_5
REMARK    5  A    between atoms: C_5  and  C_7
REMARK    6  A    between atoms: C_5  and  N_20
REMARK    7  A    between atoms: N_9  and  C_10
REMARK    8  A    between atoms: C_21  and  C_23
REMARK    9  A    between atoms: C_26  and  C_29
REMARK                            x       y       z     vdW  Elec       q    Type
REMARK                         _______ _______ _______ _____ _____    ______ ____
ROOT
ATOM      1  N   UNL     1       5.071  -4.242   0.138  0.00  0.00    -0.300 N 
ATOM      2  C   UNL     1       6.041  -4.949   0.750  0.00  0.00    +0.245 C 
ATOM      3  O   UNL     1       6.873  -4.378   1.428  0.00  0.00    -0.270 OA
ATOM      4  H   UNL     1       4.269  -4.764  -0.406  0.00  0.00    +0.150 HD
ENDROOT
BRANCH   2   5
ATOM      5  C   UNL     1       6.093  -6.418   0.598  0.00  0.00    +0.037 A 
ATOM      6  C   UNL     1       5.135  -7.077  -0.174  0.00  0.00    +0.013 A 
ATOM      7  C   UNL     1       5.192  -8.448  -0.316  0.00  0.00    +0.005 A 
ATOM      8  C   UNL     1       6.190  -9.171   0.314  0.00  0.00    -0.041 A 
ATOM      9  C   UNL     1       7.139  -8.524   1.085  0.00  0.00    +0.005 A 
ATOM     10  C   UNL     1       7.096  -7.153   1.231  0.00  0.00    +0.013 A 
BRANCH   8  11
ATOM     11  C   UNL     1       6.242 -10.669   0.161  0.00  0.00    -0.003 C 
ATOM     12  C   UNL     1       6.115 -11.328   1.536  0.00  0.00    +0.015 C 
ATOM     13  C   UNL     1       6.168 -12.849   1.379  0.00  0.00    -0.010 C 
ATOM     14  C   UNL     1       5.016 -13.310   0.485  0.00  0.00    +0.007 C 
ATOM     15  C   UNL     1       5.143 -12.652  -0.890  0.00  0.00    -0.010 C 
ATOM     16  C   UNL     1       5.090 -11.131  -0.734  0.00  0.00    +0.015 C 
ATOM     17  C   UNL     1       6.475 -13.053  -1.527  0.00  0.00    +0.007 C 
ATOM     18  C   UNL     1       7.627 -12.592  -0.632  0.00  0.00    -0.010 C 
ATOM     19  C   UNL     1       7.500 -13.250   0.743  0.00  0.00    +0.007 C 
ATOM     20  C   UNL     1       7.574 -11.071  -0.476  0.00  0.00    +0.015 C 
ENDBRANCH   8  11
ENDBRANCH   2   5
BRANCH   1  21
ATOM     21  C   UNL     1       5.083  -2.778   0.196  0.00  0.00    +0.160 C 
BRANCH  21  22
ATOM     22  C   UNL     1       3.671  -2.259   0.095  0.00  0.00    +0.238 C 
ATOM     23  O   UNL     1       2.778  -2.998  -0.261  0.00  0.00    -0.273 OA
ATOM     24  N   UNL     1       3.402  -0.974   0.400  0.00  0.00    -0.284 N 
ATOM     25  H   UNL     1       4.222  -0.284   0.647  0.00  0.00    +0.155 HD
BRANCH  24  26
ATOM     26  C   UNL     1       2.078  -0.518   0.403  0.00  0.00    +0.037 A 
ATOM     27  C   UNL     1       1.671   0.429   1.333  0.00  0.00    +0.027 A 
ATOM     28  C   UNL     1       0.365   0.880   1.336  0.00  0.00    +0.051 A 
ATOM     29  C   UNL     1      -0.544   0.387   0.411  0.00  0.00    +0.162 A 
ATOM     30  C   UNL     1      -0.139  -0.559  -0.523  0.00  0.00    +0.164 A 
ATOM     31  C   UNL     1       1.171  -1.012  -0.525  0.00  0.00    +0.072 A 
ATOM     32  O   UNL     1      -1.015  -1.048  -1.444  0.00  0.00    -0.485 OA
ATOM     33  C   UNL     1      -2.407  -0.852  -1.175  0.00  0.00    +0.270 C 
ATOM     34  C   UNL     1      -2.613   0.606  -0.741  0.00  0.00    +0.270 C 
ATOM     35  O   UNL     1      -1.829   0.837   0.435  0.00  0.00    -0.485 OA
ENDBRANCH  24  26
ENDBRANCH  21  22
BRANCH  21  36
ATOM     36  C   UNL     1       5.912  -2.228  -0.966  0.00  0.00    +0.034 C 
BRANCH  36  38
ATOM     37  C   UNL     1       6.886  -0.393   0.421  0.00  0.00    +0.007 C 
ATOM     38  C   UNL     1       6.051  -0.711  -0.821  0.00  0.00    -0.015 C 
ATOM     39  C   UNL     1       6.744  -0.142  -2.061  0.00  0.00    +0.007 C 
ENDBRANCH  36  38
ENDBRANCH  21  36
ENDBRANCH   1  21
TORSDOF 7
