REMARK  Name = ZINC15219744
REMARK  4 active torsions:
REMARK  status: ('A' for Active; 'I' for Inactive)
REMARK    1  A    between atoms: C_2  and  N_3
REMARK    2  A    between atoms: C_2  and  C_22
REMARK    3  A    between atoms: C_23  and  O_34
REMARK    4  A    between atoms: N_30  and  C_33
REMARK                            x       y       z     vdW  Elec       q    Type
REMARK                         _______ _______ _______ _____ _____    ______ ____
ROOT
ATOM      1  N   UNL     1       2.153   5.682   1.042  0.00  0.00    -0.252 NA
ATOM      2  C   UNL     1       2.234   4.356   0.720  0.00  0.00    +0.042 C 
ATOM      3  C   UNL     1       1.866   3.413   1.615  0.00  0.00    +0.067 C 
ATOM      4  C   UNL     1       1.984   1.967   1.220  0.00  0.00    +0.080 C 
ATOM      5  C   UNL     1       3.270   1.786   0.397  0.00  0.00    +0.094 C 
ATOM      6  C   UNL     1       3.229   2.718  -0.781  0.00  0.00    -0.013 C 
ATOM      7  C   UNL     1       2.726   3.940  -0.614  0.00  0.00    +0.020 C 
ATOM      8  C   UNL     1       3.342   0.343  -0.042  0.00  0.00    +0.171 C 
ATOM      9  O   UNL     1       3.587   0.045  -1.191  0.00  0.00    -0.291 OA
ATOM     10  C   UNL     1       3.101  -0.693   0.986  0.00  0.00    +0.028 A 
ATOM     11  C   UNL     1       3.478  -2.014   0.765  0.00  0.00    +0.012 A 
ATOM     12  C   UNL     1       3.254  -2.963   1.747  0.00  0.00    +0.001 A 
ATOM     13  C   UNL     1       2.661  -2.609   2.946  0.00  0.00    +0.001 A 
ATOM     14  C   UNL     1       2.276  -1.301   3.183  0.00  0.00    +0.012 A 
ATOM     15  C   UNL     1       2.488  -0.334   2.207  0.00  0.00    +0.028 A 
ATOM     16  C   UNL     1       2.078   1.069   2.430  0.00  0.00    +0.168 C 
ATOM     17  O   UNL     1       1.821   1.481   3.542  0.00  0.00    -0.292 OA
ENDROOT
BRANCH   1  19
ATOM     18  C   UNL     1       4.403   5.496   1.966  0.00  0.00    +0.039 C 
ATOM     19  C   UNL     1       3.135   6.260   1.683  0.00  0.00    +0.073 C 
BRANCH  19  20
ATOM     20  C   UNL     1       3.003   7.649   2.127  0.00  0.00    +0.106 A 
ATOM     21  C   UNL     1       3.104   8.699   1.210  0.00  0.00    +0.140 A 
ATOM     22  C   UNL     1       2.964  10.070   1.707  0.00  0.00    +0.041 A 
ATOM     23  C   UNL     1       3.057  11.159   0.831  0.00  0.00    +0.013 A 
ATOM     24  C   UNL     1       2.924  12.430   1.310  0.00  0.00    +0.001 A 
ATOM     25  C   UNL     1       2.697  12.653   2.661  0.00  0.00    +0.002 A 
ATOM     26  C   UNL     1       2.601  11.598   3.542  0.00  0.00    +0.026 A 
ATOM     27  C   UNL     1       2.733  10.292   3.077  0.00  0.00    +0.055 A 
ATOM     28  N   UNL     1       2.640   9.230   3.953  0.00  0.00    -0.310 N 
ATOM     29  C   UNL     1       2.756   7.958   3.536  0.00  0.00    +0.264 A 
ATOM     30  O   UNL     1       2.661   7.050   4.343  0.00  0.00    -0.267 OA
ATOM     31  C   UNL     1       2.400   9.496   5.373  0.00  0.00    +0.152 C 
BRANCH  21  32
ATOM     32  O   UNL     1       3.326   8.456  -0.100  0.00  0.00    -0.505 OA
ATOM     33  H   UNL     1       3.326   7.517  -0.331  0.00  0.00    +0.292 HD
ENDBRANCH  21  32
ENDBRANCH  19  20
ENDBRANCH   1  19
TORSDOF 3
