REMARK  Name = ZINC66186695
REMARK  5 active torsions:
REMARK  status: ('A' for Active; 'I' for Inactive)
REMARK    1  A    between atoms: C_1  and  C_2
REMARK    2  A    between atoms: C_2  and  C_4
REMARK    3  A    between atoms: C_2  and  N_12
REMARK    4  A    between atoms: C_4  and  C_5
REMARK    5  A    between atoms: C_18  and  N_21
REMARK                            x       y       z     vdW  Elec       q    Type
REMARK                         _______ _______ _______ _____ _____    ______ ____
ROOT
ATOM      1  N   UNL     1       0.688  -0.476  -1.203  0.00  0.00    -0.296 N 
ATOM      2  C   UNL     1       2.031  -0.587  -1.215  0.00  0.00    +0.302 C 
ATOM      3  O   UNL     1       2.674  -0.294  -0.225  0.00  0.00    -0.253 OA
ATOM      4  N   UNL     1       2.662  -1.022  -2.324  0.00  0.00    -0.287 N 
ATOM      5  C   UNL     1       2.011  -1.401  -3.587  0.00  0.00    +0.108 C 
ATOM      6  C   UNL     1       3.127  -1.805  -4.573  0.00  0.00    +0.005 C 
ATOM      7  C   UNL     1       4.377  -1.090  -3.996  0.00  0.00    -0.049 C 
ATOM      8  C   UNL     1       4.119  -1.189  -2.474  0.00  0.00    +0.094 C 
ATOM      9  H   UNL     1       0.175  -0.710  -1.993  0.00  0.00    +0.151 HD
ENDROOT
BRANCH   7  10
ATOM     10  N   UNL     1       5.609  -1.798  -4.371  0.00  0.00    +0.383 N 
ATOM     11  C   UNL     1       5.785  -1.772  -5.845  0.00  0.00    -0.078 C 
ATOM     12  C   UNL     1       7.305  -2.017  -6.025  0.00  0.00    -0.020 C 
ATOM     13  C   UNL     1       7.923  -1.236  -4.843  0.00  0.00    -0.020 C 
ATOM     14  C   UNL     1       6.788  -1.102  -3.811  0.00  0.00    -0.078 C 
ATOM     15  H   UNL     1       5.577  -2.751  -4.040  0.00  0.00    -0.081 HD
ENDBRANCH   7  10
BRANCH   1  17
ATOM     16  C   UNL     1      -0.019   1.526   0.010  0.00  0.00    +0.028 C 
ATOM     17  C   UNL     1       0.002  -0.004   0.002  0.00  0.00    +0.076 C 
BRANCH  17  18
ATOM     18  C   UNL     1      -1.433  -0.534   0.013  0.00  0.00    +0.057 C 
BRANCH  18  19
ATOM     19  C   UNL     1      -1.414  -2.036   0.129  0.00  0.00    -0.046 A 
ATOM     20  C   UNL     1      -1.374  -2.816  -1.012  0.00  0.00    +0.005 A 
ATOM     21  C   UNL     1      -1.355  -4.194  -0.906  0.00  0.00    +0.015 A 
ATOM     22  C   UNL     1      -1.376  -4.793   0.341  0.00  0.00    +0.018 A 
ATOM     23  C   UNL     1      -1.416  -4.011   1.481  0.00  0.00    +0.015 A 
ATOM     24  C   UNL     1      -1.429  -2.634   1.375  0.00  0.00    +0.005 A 
ATOM     25 BR   UNL     1      -1.352  -6.678   0.486  0.00  0.00    -0.050 Br
ENDBRANCH  18  19
ENDBRANCH  17  18
ENDBRANCH   1  17
TORSDOF 4
