REMARK  Name = ZINC09013516
REMARK  7 active torsions:
REMARK  status: ('A' for Active; 'I' for Inactive)
REMARK    1  A    between atoms: C_1  and  C_2
REMARK    2  A    between atoms: C_2  and  C_3
REMARK    3  A    between atoms: C_6  and  N_9
REMARK    4  A    between atoms: C_12  and  C_18
REMARK    5  A    between atoms: C_13  and  O_17
REMARK    6  A    between atoms: C_15  and  O_16
REMARK    7  A    between atoms: C_32  and  N_55
REMARK                            x       y       z     vdW  Elec       q    Type
REMARK                         _______ _______ _______ _____ _____    ______ ____
ROOT
ATOM      1  N   UNL     1       0.002  -0.004   0.002  0.00  0.00    -0.231 N 
ATOM      2  C   UNL     1       0.035   1.255  -0.483  0.00  0.00    +0.267 A 
ATOM      3  O   UNL     1      -0.977   1.778  -0.921  0.00  0.00    -0.267 OA
ATOM      4  C   UNL     1       1.251   1.949  -0.479  0.00  0.00    +0.071 A 
ATOM      5  C   UNL     1       2.375   1.316   0.023  0.00  0.00    +0.224 A 
ATOM      6  N   UNL     1       2.281   0.067   0.490  0.00  0.00    -0.161 NA
ATOM      7  C   UNL     1       1.137  -0.579   0.483  0.00  0.00    +0.306 A 
ENDROOT
BRANCH   4   8
ATOM      8  C   UNL     1       1.335   3.356  -1.011  0.00  0.00    +0.021 C 
ATOM      9  C   UNL     1       1.041   3.357  -2.492  0.00  0.00    +0.011 A 
ATOM     10  C   UNL     1       0.241   4.273  -3.084  0.00  0.00    -0.022 A 
ATOM     11  C   UNL     1       0.198   3.955  -4.494  0.00  0.00    +0.003 A 
ATOM     12  C   UNL     1      -0.457   4.542  -5.581  0.00  0.00    +0.010 A 
ATOM     13  C   UNL     1      -0.266   3.959  -6.810  0.00  0.00    +0.001 A 
ATOM     14  C   UNL     1       0.535   2.842  -6.978  0.00  0.00    +0.002 A 
ATOM     15  C   UNL     1       1.195   2.240  -5.920  0.00  0.00    +0.026 A 
ATOM     16  C   UNL     1       1.019   2.810  -4.661  0.00  0.00    +0.047 A 
ATOM     17  N   UNL     1       1.511   2.478  -3.430  0.00  0.00    -0.359 N 
ATOM     18  H   UNL     1       2.104   1.733  -3.248  0.00  0.00    +0.166 HD
ATOM     19  C   UNL     1      -0.439   5.392  -2.336  0.00  0.00    +0.019 C 
ATOM     20  C   UNL     1       0.239   5.525  -0.965  0.00  0.00    -0.073 C 
ATOM     21  C   UNL     1       0.627   4.317   1.099  0.00  0.00    -0.095 C 
ATOM     22  N   UNL     1       0.307   4.186  -0.338  0.00  0.00    +0.387 N 
ATOM     23  H   UNL     1      -0.607   3.726  -0.434  0.00  0.00    -0.081 HD
ENDBRANCH   4   8
BRANCH   1  27
ATOM     24  C   UNL     1      -3.580  -2.135   0.024  0.00  0.00    -0.047 A 
ATOM     25  C   UNL     1      -2.739  -2.211  -1.071  0.00  0.00    +0.005 A 
ATOM     26  C   UNL     1      -1.551  -1.506  -1.081  0.00  0.00    +0.026 A 
ATOM     27  C   UNL     1      -1.202  -0.720   0.009  0.00  0.00    +0.054 A 
ATOM     28  C   UNL     1      -2.047  -0.649   1.109  0.00  0.00    +0.026 A 
ATOM     29  C   UNL     1      -3.236  -1.352   1.111  0.00  0.00    +0.005 A 
BRANCH  24  31
ATOM     30  C   UNL     1      -4.639  -4.293   0.632  0.00  0.00    +0.009 C 
ATOM     31  C   UNL     1      -4.875  -2.905   0.032  0.00  0.00    +0.032 C 
ENDBRANCH  24  31
ENDBRANCH   1  27
BRANCH   7  32
ATOM     32  O   UNL     1       1.087  -1.839   0.964  0.00  0.00    -0.479 OA
ATOM     33  H   UNL     1       1.913  -2.214   1.298  0.00  0.00    +0.295 HD
ENDBRANCH   7  32
BRANCH   5  34
ATOM     34  O   UNL     1       3.566   1.960   0.040  0.00  0.00    -0.492 OA
ATOM     35  H   UNL     1       4.290   1.437   0.408  0.00  0.00    +0.294 HD
ENDBRANCH   5  34
TORSDOF 5
