REMARK  Name = ZINC21251583
REMARK  7 active torsions:
REMARK  status: ('A' for Active; 'I' for Inactive)
REMARK    1  A    between atoms: C_1  and  O_2
REMARK    2  A    between atoms: O_2  and  C_3
REMARK    3  A    between atoms: C_6  and  C_11
REMARK    4  A    between atoms: C_8  and  O_9
REMARK    5  A    between atoms: O_9  and  C_10
REMARK    6  A    between atoms: C_16  and  C_26
REMARK    7  A    between atoms: C_31  and  O_32
REMARK                            x       y       z     vdW  Elec       q    Type
REMARK                         _______ _______ _______ _____ _____    ______ ____
ROOT
ATOM      1  C   UNL     1      -2.905   5.179  -4.182  0.00  0.00    +0.032 C 
ATOM      2  C   UNL     1      -4.210   4.760  -3.509  0.00  0.00    +0.059 C 
ATOM      3  C   UNL     1      -3.941   4.315  -2.081  0.00  0.00    +0.017 C 
ATOM      4  C   UNL     1      -2.941   4.865  -1.373  0.00  0.00    +0.037 C 
ATOM      5  C   UNL     1      -2.567   4.519   0.050  0.00  0.00    +0.139 C 
ATOM      6  N   UNL     1      -3.540   3.701   0.742  0.00  0.00    -0.331 N 
ATOM      7  C   UNL     1      -3.815   2.404   0.317  0.00  0.00    +0.049 A 
ATOM      8  C   UNL     1      -3.500   1.306   1.102  0.00  0.00    +0.025 A 
ATOM      9  C   UNL     1      -3.743   0.032   0.620  0.00  0.00    +0.002 A 
ATOM     10  C   UNL     1      -4.294  -0.150  -0.635  0.00  0.00    +0.002 A 
ATOM     11  C   UNL     1      -4.627   0.945  -1.415  0.00  0.00    +0.025 A 
ATOM     12  C   UNL     1      -4.405   2.219  -0.924  0.00  0.00    +0.052 A 
ATOM     13  N   UNL     1      -4.791   3.363  -1.616  0.00  0.00    -0.316 N 
ATOM     14  C   UNL     1      -2.121   5.863  -1.952  0.00  0.00    +0.163 C 
ATOM     15  O   UNL     1      -1.238   6.359  -1.280  0.00  0.00    -0.292 OA
ATOM     16  C   UNL     1      -2.307   6.331  -3.364  0.00  0.00    +0.088 C 
ATOM     17  H   UNL     1      -4.073   4.102   1.616  0.00  0.00    +0.147 HD
ATOM     18  H   UNL     1      -5.874   3.466  -1.778  0.00  0.00    +0.152 HD
ENDROOT
BRANCH   5  19
ATOM     19  C   UNL     1      -1.251   3.787   0.034  0.00  0.00    +0.020 A 
ATOM     20  C   UNL     1      -0.827   3.151  -1.118  0.00  0.00    +0.029 A 
ATOM     21  C   UNL     1       0.379   2.474  -1.131  0.00  0.00    +0.042 A 
ATOM     22  C   UNL     1       1.169   2.441   0.005  0.00  0.00    +0.023 A 
ATOM     23  C   UNL     1       0.751   3.079   1.156  0.00  0.00    +0.047 A 
ATOM     24  C   UNL     1      -0.461   3.754   1.173  0.00  0.00    +0.122 A 
ATOM     25 CL   UNL     1       0.907   1.671  -2.577  0.00  0.00    -0.084 Cl
BRANCH  24  26
ATOM     26  O   UNL     1      -0.873   4.383   2.305  0.00  0.00    -0.506 OA
ATOM     27  H   UNL     1      -0.246   4.357   3.209  0.00  0.00    +0.292 HD
ENDBRANCH  24  26
ENDBRANCH   5  19
BRANCH   1  31
ATOM     28  C   UNL     1      -3.693   6.497  -8.173  0.00  0.00    +0.161 A 
ATOM     29  C   UNL     1      -4.310   7.120  -7.101  0.00  0.00    +0.049 A 
ATOM     30  C   UNL     1      -4.053   6.692  -5.811  0.00  0.00    +0.008 A 
ATOM     31  C   UNL     1      -3.181   5.642  -5.589  0.00  0.00    -0.040 A 
ATOM     32  C   UNL     1      -2.558   5.019  -6.655  0.00  0.00    +0.053 A 
ATOM     33  C   UNL     1      -2.815   5.440  -7.949  0.00  0.00    +0.162 A 
BRANCH  28  35
ATOM     34  C   UNL     1      -4.855   8.007  -9.596  0.00  0.00    +0.277 C 
ATOM     35  O   UNL     1      -3.944   6.917  -9.442  0.00  0.00    -0.491 OA
ENDBRANCH  28  35
BRANCH  33  36
ATOM     36  O   UNL     1      -2.207   4.825  -8.999  0.00  0.00    -0.491 OA
ATOM     37  C   UNL     1      -1.319   3.748  -8.694  0.00  0.00    +0.277 C 
ENDBRANCH  33  36
ENDBRANCH   1  31
TORSDOF 5
