REMARK  Name = ZINC35379427
REMARK  5 active torsions:
REMARK  status: ('A' for Active; 'I' for Inactive)
REMARK    1  A    between atoms: C_1  and  C_2
REMARK    2  A    between atoms: C_4  and  C_8
REMARK    3  A    between atoms: C_5  and  C_7
REMARK    4  A    between atoms: C_8  and  C_10
REMARK    5  A    between atoms: C_18  and  N_20
REMARK                            x       y       z     vdW  Elec       q    Type
REMARK                         _______ _______ _______ _____ _____    ______ ____
ROOT
ATOM      1  C   UNL     1      -2.828  -3.356   0.108  0.00  0.00    +0.047 A 
ATOM      2  C   UNL     1      -3.599  -2.230   0.126  0.00  0.00    +0.095 A 
ATOM      3  N   UNL     1      -4.905  -2.571   0.247  0.00  0.00    -0.360 N 
ATOM      4  H   UNL     1      -5.640  -1.939   0.282  0.00  0.00    +0.165 HD
ATOM      5  C   UNL     1      -5.041  -3.942   0.314  0.00  0.00    +0.049 A 
ATOM      6  C   UNL     1      -3.754  -4.498   0.225  0.00  0.00    +0.011 A 
ATOM      7  C   UNL     1      -3.586  -5.880   0.260  0.00  0.00    +0.013 A 
ATOM      8  C   UNL     1      -4.689  -6.698   0.379  0.00  0.00    +0.033 A 
ATOM      9  C   UNL     1      -5.960  -6.151   0.464  0.00  0.00    +0.128 A 
ATOM     10  C   UNL     1      -6.140  -4.784   0.440  0.00  0.00    +0.059 A 
ENDROOT
BRANCH   9  11
ATOM     11  N   UNL     1      -7.135  -7.042   0.592  0.00  0.00    +0.056 N 
ATOM     12  O   UNL     1      -6.983  -8.241   0.621  0.00  0.00    -0.126 OA
ATOM     13  O   UNL     1      -8.246  -6.572   0.666  0.00  0.00    -0.126 OA
ENDBRANCH   9  11
BRANCH   1  14
ATOM     14  C   UNL     1      -1.366  -3.419  -0.010  0.00  0.00    +0.198 C 
ATOM     15  O   UNL     1      -0.808  -4.497  -0.099  0.00  0.00    -0.286 OA
BRANCH  14  19
ATOM     16  C   UNL     1       1.687   0.427   1.381  0.00  0.00    +0.086 C 
ATOM     17  C   UNL     1       0.773  -0.491   0.610  0.00  0.00    +0.103 A 
ATOM     18  C   UNL     1       0.239  -1.630   1.077  0.00  0.00    +0.056 A 
ATOM     19  C   UNL     1      -0.573  -2.175  -0.021  0.00  0.00    +0.063 A 
ATOM     20  C   UNL     1      -0.440  -1.291  -1.051  0.00  0.00    +0.113 A 
ATOM     21  O   UNL     1       0.359  -0.296  -0.652  0.00  0.00    -0.464 OA
ATOM     22  C   UNL     1      -1.088  -1.412  -2.406  0.00  0.00    +0.087 C 
ENDBRANCH  14  19
ENDBRANCH   1  14
TORSDOF 3
