REMARK  Name = ZINC58292399
REMARK  4 active torsions:
REMARK  status: ('A' for Active; 'I' for Inactive)
REMARK    1  A    between atoms: C_6  and  C_7
REMARK    2  A    between atoms: N_10  and  C_12
REMARK    3  A    between atoms: C_12  and  C_13
REMARK    4  A    between atoms: C_15  and  C_18
REMARK                            x       y       z     vdW  Elec       q    Type
REMARK                         _______ _______ _______ _____ _____    ______ ____
ROOT
ATOM      1  C   UNL     1      -1.272  -0.766   0.011  0.00  0.00    +0.205 A 
ATOM      2  N   UNL     1      -2.511  -0.254   0.020  0.00  0.00    -0.108 NA
ATOM      3  N   UNL     1      -3.335  -1.247   0.024  0.00  0.00    -0.045 NA
ATOM      4  N   UNL     1      -2.665  -2.346   0.018  0.00  0.00    -0.154 N 
ATOM      5  N   UNL     1      -1.405  -2.078   0.005  0.00  0.00    -0.130 NA
ENDROOT
BRANCH   1  11
ATOM      6  C   UNL     1      -0.017   1.389   0.010  0.00  0.00    +0.013 A 
ATOM      7  C   UNL     1       1.170   2.093   0.002  0.00  0.00    +0.021 A 
ATOM      8  C   UNL     1       2.378   1.417  -0.013  0.00  0.00    +0.041 A 
ATOM      9  C   UNL     1       2.402   0.033  -0.021  0.00  0.00    +0.021 A 
ATOM     10  C   UNL     1       1.220  -0.680  -0.014  0.00  0.00    +0.013 A 
ATOM     11  C   UNL     1       0.002  -0.004   0.002  0.00  0.00    +0.023 A 
ATOM     12 CL   UNL     1       3.868   2.308  -0.022  0.00  0.00    -0.084 Cl
ENDBRANCH   1  11
BRANCH   4  13
ATOM     13  C   UNL     1      -3.245  -3.691   0.021  0.00  0.00    +0.266 C 
BRANCH  13  14
ATOM     14  C   UNL     1      -3.454  -4.152  -1.399  0.00  0.00    +0.251 A 
ATOM     15  N   UNL     1      -2.591  -4.808  -2.124  0.00  0.00    -0.194 NA
ATOM     16  C   UNL     1      -3.103  -5.055  -3.335  0.00  0.00    +0.175 A 
ATOM     17  N   UNL     1      -4.305  -4.557  -3.394  0.00  0.00    -0.061 NA
ATOM     18  O   UNL     1      -4.559  -3.962  -2.130  0.00  0.00    -0.336 OA
BRANCH  16  19
ATOM     19  C   UNL     1      -2.404  -5.791  -4.448  0.00  0.00    +0.060 C 
ATOM     20  C   UNL     1      -3.076  -5.797  -5.823  0.00  0.00    +0.012 C 
ATOM     21  C   UNL     1      -3.061  -7.069  -4.973  0.00  0.00    +0.012 C 
ENDBRANCH  16  19
ENDBRANCH  13  14
ENDBRANCH   4  13
TORSDOF 4
