REMARK  Name = ZINC39919007
REMARK  10 active torsions:
REMARK  status: ('A' for Active; 'I' for Inactive)
REMARK    1  A    between atoms: C_1  and  C_2
REMARK    2  A    between atoms: N_8  and  C_9
REMARK    3  A    between atoms: C_9  and  C_10
REMARK    4  A    between atoms: C_10  and  N_11
REMARK    5  A    between atoms: N_11  and  C_12
REMARK    6  A    between atoms: N_11  and  C_13
REMARK    7  A    between atoms: N_21  and  C_24
REMARK    8  A    between atoms: C_24  and  C_25
REMARK    9  A    between atoms: C_31  and  C_35
REMARK   10  A    between atoms: C_32  and  N_34
REMARK                            x       y       z     vdW  Elec       q    Type
REMARK                         _______ _______ _______ _____ _____    ______ ____
ROOT
ATOM      1  C   UNL     1      -0.018   1.503   0.010  0.00  0.00    +0.064 C 
ATOM      2  C   UNL     1       0.002  -0.004   0.002  0.00  0.00    +0.022 A 
ATOM      3  C   UNL     1       0.005  -0.663  -1.176  0.00  0.00    +0.068 A 
ATOM      4  C   UNL     1       0.024  -2.074  -1.190  0.00  0.00    +0.142 A 
ATOM      5  C   UNL     1       0.036  -2.753   0.011  0.00  0.00    +0.084 A 
ATOM      6  C   UNL     1       0.033  -2.026   1.208  0.00  0.00    +0.260 A 
ATOM      7  O   UNL     1       0.044  -2.614   2.278  0.00  0.00    -0.267 OA
ATOM      8  N   UNL     1       0.022  -0.680   1.180  0.00  0.00    -0.314 N 
ATOM      9  C   UNL     1       0.053  -4.255   0.038  0.00  0.00    +0.147 C 
ATOM     10  C   UNL     1       1.388  -4.767   0.481  0.00  0.00    -0.001 A 
ATOM     11  C   UNL     1       2.645  -4.632  -0.067  0.00  0.00    +0.007 A 
ATOM     12  C   UNL     1       3.697  -5.242   0.608  0.00  0.00    +0.000 A 
ATOM     13  C   UNL     1       3.488  -5.951   1.773  0.00  0.00    +0.002 A 
ATOM     14  C   UNL     1       2.227  -6.091   2.331  0.00  0.00    +0.024 A 
ATOM     15  C   UNL     1       1.162  -5.482   1.663  0.00  0.00    +0.041 A 
ATOM     16  N   UNL     1      -0.182  -5.460   1.990  0.00  0.00    -0.265 N 
ATOM     17  C   UNL     1      -0.909  -4.761   1.094  0.00  0.00    +0.241 C 
ATOM     18  O   UNL     1      -2.107  -4.574   1.126  0.00  0.00    -0.274 OA
ATOM     19  C   UNL     1      -0.320  -4.814  -1.304  0.00  0.00    +0.110 C 
ATOM     20  C   UNL     1      -0.310  -4.035  -2.413  0.00  0.00    +0.199 C 
ATOM     21  O   UNL     1       0.031  -2.736  -2.366  0.00  0.00    -0.441 OA
ENDROOT
BRANCH  20  22
ATOM     22  N   UNL     1      -0.660  -4.589  -3.619  0.00  0.00    -0.328 N 
ATOM     23  H   UNL     1      -0.909  -5.525  -3.669  0.00  0.00    +0.145 HD
ATOM     24  H   UNL     1      -0.658  -4.044  -4.422  0.00  0.00    +0.145 HD
ENDBRANCH  20  22
BRANCH  19  25
ATOM     25  C   UNL     1      -0.691  -6.192  -1.415  0.00  0.00    +0.102 C 
ATOM     26  N   UNL     1      -0.985  -7.286  -1.502  0.00  0.00    -0.191 NA
ENDBRANCH  19  25
BRANCH   8  27
ATOM     27  C   UNL     1       0.028   0.067   2.441  0.00  0.00    +0.106 C 
BRANCH  27  28
ATOM     28  C   UNL     1      -1.413   0.310   2.895  0.00  0.00    -0.058 C 
BRANCH  28  29
ATOM     29  N   UNL     1      -1.408   1.059   4.159  0.00  0.00    +0.377 N 
ATOM     30  C   UNL     1      -2.788   1.397   4.533  0.00  0.00    -0.097 C 
ATOM     31  C   UNL     1      -0.802   0.236   5.213  0.00  0.00    -0.097 C 
ATOM     32  H   UNL     1      -0.873   1.907   4.045  0.00  0.00    -0.083 HD
ENDBRANCH  28  29
ENDBRANCH  27  28
ENDBRANCH   8  27
BRANCH  16  33
ATOM     33  C   UNL     1      -0.749  -6.116   3.171  0.00  0.00    +0.148 C 
BRANCH  33  34
ATOM     34  C   UNL     1      -0.739  -5.156   4.332  0.00  0.00    -0.030 A 
ATOM     35  C   UNL     1       0.358  -5.097   5.171  0.00  0.00    +0.005 A 
ATOM     36  C   UNL     1       0.367  -4.216   6.237  0.00  0.00    +0.000 A 
ATOM     37  C   UNL     1      -0.721  -3.394   6.463  0.00  0.00    +0.000 A 
ATOM     38  C   UNL     1      -1.818  -3.453   5.624  0.00  0.00    +0.000 A 
ATOM     39  C   UNL     1      -1.825  -4.330   4.556  0.00  0.00    +0.005 A 
ENDBRANCH  33  34
ENDBRANCH  16  33
TORSDOF 7
