REMARK  Name = ZINC31163152
REMARK  6 active torsions:
REMARK  status: ('A' for Active; 'I' for Inactive)
REMARK    1  A    between atoms: C_1  and  C_2
REMARK    2  A    between atoms: C_11  and  O_21
REMARK    3  A    between atoms: C_13  and  C_20
REMARK    4  A    between atoms: C_15  and  O_19
REMARK    5  A    between atoms: O_21  and  C_22
REMARK    6  A    between atoms: C_22  and  C_24
REMARK                            x       y       z     vdW  Elec       q    Type
REMARK                         _______ _______ _______ _____ _____    ______ ____
ROOT
ATOM      1  C   UNL     1       4.958  -1.430   0.520  0.00  0.00    +0.051 C 
ATOM      2  C   UNL     1       3.903  -0.942  -0.440  0.00  0.00    +0.039 C 
ATOM      3  C   UNL     1       2.783  -0.340  -0.099  0.00  0.00    +0.011 C 
ATOM      4  C   UNL     1       2.198  -0.045   1.259  0.00  0.00    +0.046 C 
ATOM      5  C   UNL     1       0.741  -0.514   1.239  0.00  0.00    +0.028 C 
ATOM      6  C   UNL     1       0.676  -2.022   1.254  0.00  0.00    -0.072 C 
ATOM      7  C   UNL     1       1.762  -2.745   1.372  0.00  0.00    +0.008 C 
ATOM      8  C   UNL     1      -0.686  -2.671   1.129  0.00  0.00    +0.034 C 
ATOM      9  C   UNL     1      -1.411  -2.064  -0.076  0.00  0.00    +0.049 C 
ATOM     10  C   UNL     1      -1.437  -0.539   0.048  0.00  0.00    +0.183 C 
ATOM     11  C   UNL     1       0.002  -0.004   0.002  0.00  0.00    +0.018 C 
ATOM     12  C   UNL     1       0.664  -0.503  -1.289  0.00  0.00    +0.094 C 
ATOM     13  C   UNL     1       2.073   0.055  -1.384  0.00  0.00    +0.238 C 
ATOM     14  O   UNL     1       2.842  -0.548  -2.452  0.00  0.00    -0.425 OA
ATOM     15  C   UNL     1       3.963  -1.062  -1.903  0.00  0.00    +0.338 C 
ATOM     16  O   UNL     1       4.885  -1.552  -2.525  0.00  0.00    -0.245 OA
ATOM     17  C   UNL     1      -0.019   1.526   0.010  0.00  0.00    +0.016 C 
ENDROOT
BRANCH  13  18
ATOM     18  O   UNL     1       2.050   1.476  -1.527  0.00  0.00    -0.352 OA
ATOM     19  H   UNL     1       1.572   1.933  -2.406  0.00  0.00    +0.214 HD
ENDBRANCH  13  18
BRANCH  10  20
ATOM     20  O   UNL     1      -2.050  -0.175   1.313  0.00  0.00    -0.461 OA
BRANCH  20  21
ATOM     21  C   UNL     1      -3.379   0.013   1.314  0.00  0.00    +0.304 C 
ATOM     22  O   UNL     1      -4.010  -0.123   0.292  0.00  0.00    -0.251 OA
ATOM     23  C   UNL     1      -4.085   0.392   2.590  0.00  0.00    +0.136 C 
ENDBRANCH  20  21
ENDBRANCH  10  20
TORSDOF 3
