REMARK  Name = ZINC35688325
REMARK  3 active torsions:
REMARK  status: ('A' for Active; 'I' for Inactive)
REMARK    1  A    between atoms: C_7  and  N_13
REMARK    2  A    between atoms: N_13  and  C_14
REMARK    3  A    between atoms: C_18  and  N_20
REMARK                            x       y       z     vdW  Elec       q    Type
REMARK                         _______ _______ _______ _____ _____    ______ ____
ROOT
ATOM      1  C   UNL     1      -0.017   1.371   0.010  0.00  0.00    +0.000 A 
ATOM      2  C   UNL     1       1.163   2.092   0.002  0.00  0.00    +0.002 A 
ATOM      3  C   UNL     1       2.366   1.409  -0.022  0.00  0.00    +0.027 A 
ATOM      4  C   UNL     1       2.377   0.034  -0.034  0.00  0.00    +0.093 A 
ATOM      5  C   UNL     1       1.210  -0.711  -0.011  0.00  0.00    -0.001 A 
ATOM      6  C   UNL     1       0.002  -0.004   0.002  0.00  0.00    +0.007 A 
ATOM      7  C   UNL     1       1.370  -2.211   0.016  0.00  0.00    +0.124 C 
ATOM      8  C   UNL     1       2.763  -2.647  -0.493  0.00  0.00    +0.198 C 
ATOM      9  S   UNL     1       3.722  -1.131  -0.085  0.00  0.00    -0.001 S 
ATOM     10  O   UNL     1       4.538  -0.733  -1.178  0.00  0.00    -0.169 OA
ATOM     11  O   UNL     1       4.234  -1.192   1.240  0.00  0.00    -0.169 OA
ENDROOT
BRANCH   7  12
ATOM     12  N   UNL     1       1.196  -2.686   1.391  0.00  0.00    -0.335 N 
ATOM     13  H   UNL     1       1.969  -2.801   1.965  0.00  0.00    +0.147 HD
BRANCH  12  14
ATOM     14  C   UNL     1      -0.083  -2.972   1.875  0.00  0.00    +0.030 A 
ATOM     15  C   UNL     1      -1.190  -2.812   1.051  0.00  0.00    +0.023 A 
ATOM     16  C   UNL     1      -2.453  -3.096   1.533  0.00  0.00    +0.004 A 
ATOM     17  C   UNL     1      -2.616  -3.539   2.833  0.00  0.00    +0.033 A 
ATOM     18  C   UNL     1      -1.515  -3.698   3.655  0.00  0.00    +0.128 A 
ATOM     19  C   UNL     1      -0.249  -3.421   3.178  0.00  0.00    +0.055 A 
BRANCH  18  20
ATOM     20  N   UNL     1      -1.694  -4.171   5.046  0.00  0.00    +0.056 N 
ATOM     21  O   UNL     1      -2.802  -4.418   5.463  0.00  0.00    -0.126 OA
ATOM     22  O   UNL     1      -0.733  -4.311   5.766  0.00  0.00    -0.126 OA
ENDBRANCH  18  20
ENDBRANCH  12  14
ENDBRANCH   7  12
TORSDOF 3
