REMARK  Name = ZINC06510260
REMARK  5 active torsions:
REMARK  status: ('A' for Active; 'I' for Inactive)
REMARK    1  A    between atoms: C_1  and  C_2
REMARK    2  A    between atoms: C_4  and  C_23
REMARK    3  A    between atoms: N_8  and  N_9
REMARK    4  A    between atoms: N_17  and  C_20
REMARK    5  A    between atoms: C_20  and  C_21
REMARK                            x       y       z     vdW  Elec       q    Type
REMARK                         _______ _______ _______ _____ _____    ______ ____
ROOT
ATOM      1  N   UNL     1       0.045  -2.019   3.459  0.00  0.00    -0.174 NA
ATOM      2  C   UNL     1      -0.040  -2.657   4.603  0.00  0.00    +0.153 C 
ATOM      3  C   UNL     1      -0.030  -4.122   4.822  0.00  0.00    +0.028 A 
ATOM      4  C   UNL     1       0.064  -5.213   3.965  0.00  0.00    +0.012 A 
ATOM      5  C   UNL     1       0.044  -6.493   4.481  0.00  0.00    +0.001 A 
ATOM      6  C   UNL     1      -0.069  -6.689   5.848  0.00  0.00    +0.002 A 
ATOM      7  C   UNL     1      -0.163  -5.612   6.706  0.00  0.00    +0.024 A 
ATOM      8  C   UNL     1      -0.144  -4.316   6.205  0.00  0.00    +0.046 A 
ATOM      9  N   UNL     1      -0.222  -3.079   6.836  0.00  0.00    -0.262 N 
ATOM     10  C   UNL     1      -0.159  -2.071   5.950  0.00  0.00    +0.272 C 
ATOM     11  O   UNL     1      -0.198  -0.883   6.214  0.00  0.00    -0.268 OA
ENDROOT
BRANCH   1  19
ATOM     12  C   UNL     1       0.935   1.415   0.036  0.00  0.00    +0.066 C 
ATOM     13  C   UNL     1       0.642  -0.063   0.019  0.00  0.00    +0.044 A 
ATOM     14  C   UNL     1       0.577  -0.752  -1.182  0.00  0.00    +0.046 A 
ATOM     15  C   UNL     1       0.305  -2.112  -1.152  0.00  0.00    +0.044 A 
ATOM     16  N   UNL     1       0.116  -2.706   0.014  0.00  0.00    -0.218 NA
ATOM     17  C   UNL     1       0.185  -2.018   1.144  0.00  0.00    +0.235 A 
ATOM     18  N   UNL     1       0.449  -0.720   1.151  0.00  0.00    -0.218 NA
ATOM     19  N   UNL     1      -0.018  -2.674   2.349  0.00  0.00    -0.204 N 
ATOM     20  C   UNL     1       0.224  -2.902  -2.433  0.00  0.00    +0.066 C 
ATOM     21  H   UNL     1      -0.208  -3.626   2.358  0.00  0.00    +0.177 HD
ENDBRANCH   1  19
BRANCH   9  22
ATOM     22  C   UNL     1      -0.349  -2.899   8.285  0.00  0.00    +0.140 C 
BRANCH  22  23
ATOM     23  C   UNL     1       1.023  -2.810   8.902  0.00  0.00    -0.015 C 
ATOM     24  C   UNL     1       1.342  -1.777   9.643  0.00  0.00    +0.005 C 
ENDBRANCH  22  23
ENDBRANCH   9  22
TORSDOF 3
