REMARK  Name = ZINC03176497
REMARK  10 active torsions:
REMARK  status: ('A' for Active; 'I' for Inactive)
REMARK    1  A    between atoms: C_1  and  C_2
REMARK    2  A    between atoms: C_2  and  O_3
REMARK    3  A    between atoms: O_3  and  C_4
REMARK    4  A    between atoms: C_4  and  C_6
REMARK    5  A    between atoms: C_7  and  C_35
REMARK    6  A    between atoms: N_13  and  N_16
REMARK    7  A    between atoms: N_16  and  C_17
REMARK    8  A    between atoms: C_19  and  C_28
REMARK    9  A    between atoms: C_19  and  O_34
REMARK   10  A    between atoms: C_20  and  C_22
REMARK                            x       y       z     vdW  Elec       q    Type
REMARK                         _______ _______ _______ _____ _____    ______ ____
ROOT
ATOM      1  C   UNL     1      -1.315   3.387 -10.341  0.00  0.00    +0.047 C 
ATOM      2  C   UNL     1      -0.975   4.571  -9.821  0.00  0.00    +0.041 C 
ATOM      3  C   UNL     1      -0.504   5.438 -10.967  0.00  0.00    +0.137 C 
ATOM      4  C   UNL     1      -0.630   4.570 -12.199  0.00  0.00    +0.001 C 
ATOM      5  C   UNL     1      -1.100   3.380 -11.789  0.00  0.00    +0.032 C 
ENDROOT
BRANCH   4   6
ATOM      6  C   UNL     1      -0.295   4.953 -13.581  0.00  0.00    -0.018 A 
ATOM      7  C   UNL     1       1.027   5.246 -13.928  0.00  0.00    +0.008 A 
ATOM      8  C   UNL     1       1.334   5.599 -15.225  0.00  0.00    +0.001 A 
ATOM      9  C   UNL     1       0.335   5.675 -16.180  0.00  0.00    +0.000 A 
ATOM     10  C   UNL     1      -0.977   5.391 -15.843  0.00  0.00    +0.001 A 
ATOM     11  C   UNL     1      -1.298   5.032 -14.551  0.00  0.00    +0.008 A 
ENDBRANCH   4   6
BRANCH   3  12
ATOM     12  C   UNL     1      -1.379   6.658 -11.093  0.00  0.00    -0.008 A 
ATOM     13  C   UNL     1      -2.516   6.615 -11.878  0.00  0.00    +0.007 A 
ATOM     14  C   UNL     1      -3.322   7.733 -11.991  0.00  0.00    +0.000 A 
ATOM     15  C   UNL     1      -2.985   8.897 -11.325  0.00  0.00    +0.000 A 
ATOM     16  C   UNL     1      -1.846   8.942 -10.544  0.00  0.00    +0.000 A 
ATOM     17  C   UNL     1      -1.043   7.822 -10.428  0.00  0.00    +0.007 A 
ENDBRANCH   3  12
BRANCH   1  18
ATOM     18  N   UNL     1      -1.802   2.304  -9.604  0.00  0.00    -0.250 N 
ATOM     19  H   UNL     1      -2.028   1.475 -10.053  0.00  0.00    +0.173 HD
BRANCH  18  27
ATOM     20  C   UNL     1      -0.865   1.667  -3.599  0.00  0.00    +0.102 A 
ATOM     21  C   UNL     1      -0.506   1.425  -4.893  0.00  0.00    -0.015 A 
ATOM     22  C   UNL     1      -1.274   1.946  -5.936  0.00  0.00    +0.077 A 
ATOM     23  C   UNL     1      -2.395   2.717  -5.550  0.00  0.00    +0.116 A 
ATOM     24  S   UNL     1      -2.329   2.673  -3.777  0.00  0.00    -0.062 S 
ATOM     25  N   UNL     1      -3.204   3.272  -6.444  0.00  0.00    -0.228 NA
ATOM     26  C   UNL     1      -3.005   3.134  -7.726  0.00  0.00    +0.223 A 
ATOM     27  N   UNL     1      -1.964   2.417  -8.217  0.00  0.00    -0.215 N 
ATOM     28  C   UNL     1      -1.081   1.812  -7.398  0.00  0.00    +0.279 A 
ATOM     29  O   UNL     1      -0.149   1.171  -7.849  0.00  0.00    -0.265 OA
ATOM     30  C   UNL     1       0.715   0.595  -5.196  0.00  0.00    +0.046 C 
BRANCH  20  31
ATOM     31  C   UNL     1      -0.209   1.218  -2.369  0.00  0.00    +0.346 C 
ATOM     32  O   UNL     1       0.792   0.530  -2.430  0.00  0.00    -0.244 OA
BRANCH  31  33
ATOM     33  O   UNL     1      -0.715   1.567  -1.168  0.00  0.00    -0.461 OA
BRANCH  33  35
ATOM     34  C   UNL     1      -0.729   1.579   1.267  0.00  0.00    +0.048 C 
ATOM     35  C   UNL     1      -0.013   1.086   0.008  0.00  0.00    +0.229 C 
ENDBRANCH  33  35
ENDBRANCH  31  33
ENDBRANCH  20  31
ENDBRANCH  18  27
ENDBRANCH   1  18
BRANCH   3  36
ATOM     36  O   UNL     1       0.858   5.824 -10.770  0.00  0.00    -0.376 OA
ATOM     37  H   UNL     1       1.006   6.348  -9.970  0.00  0.00    +0.211 HD
ENDBRANCH   3  36
TORSDOF 8
