REMARK  Name = ZINC09252920
REMARK  5 active torsions:
REMARK  status: ('A' for Active; 'I' for Inactive)
REMARK    1  A    between atoms: C_4  and  N_7
REMARK    2  A    between atoms: C_8  and  C_12
REMARK    3  A    between atoms: C_12  and  N_53
REMARK    4  A    between atoms: N_15  and  S_18
REMARK    5  A    between atoms: S_18  and  C_21
REMARK                            x       y       z     vdW  Elec       q    Type
REMARK                         _______ _______ _______ _____ _____    ______ ____
ROOT
ATOM      1  C   UNL     1       0.962  -0.408   0.848  0.00  0.00    -0.061 C 
ATOM      2  C   UNL     1       0.146   0.021  -0.377  0.00  0.00    +0.091 C 
ATOM      3  N   UNL     1       0.176   1.489  -0.466  0.00  0.00    -0.180 NA
ATOM      4  C   UNL     1       1.481   2.163  -0.412  0.00  0.00    +0.091 C 
ATOM      5  C   UNL     1       2.244   1.650   0.814  0.00  0.00    -0.061 C 
ATOM      6  N   UNL     1       2.317   0.174   0.744  0.00  0.00    +0.386 N 
ATOM      7  H   UNL     1       2.727  -0.096  -0.158  0.00  0.00    -0.081 HD
ENDROOT
BRANCH   3   8
ATOM      8  S   UNL     1      -1.224   2.358  -0.631  0.00  0.00    +0.061 S 
ATOM      9  O   UNL     1      -0.866   3.594  -1.234  0.00  0.00    -0.153 OA
ATOM     10  O   UNL     1      -2.183   1.480  -1.205  0.00  0.00    -0.153 OA
BRANCH   8  11
ATOM     11  C   UNL     1      -1.796   2.737   0.992  0.00  0.00    +0.106 A 
ATOM     12  C   UNL     1      -2.665   1.857   1.636  0.00  0.00    +0.029 A 
ATOM     13  C   UNL     1      -3.121   2.117   2.891  0.00  0.00    +0.010 A 
ATOM     14  C   UNL     1      -2.722   3.295   3.546  0.00  0.00    -0.018 A 
ATOM     15  C   UNL     1      -3.177   3.600   4.840  0.00  0.00    +0.008 A 
ATOM     16  C   UNL     1      -2.769   4.750   5.444  0.00  0.00    +0.001 A 
ATOM     17  C   UNL     1      -1.905   5.632   4.798  0.00  0.00    +0.001 A 
ATOM     18  C   UNL     1      -1.444   5.369   3.545  0.00  0.00    +0.008 A 
ATOM     19  C   UNL     1      -1.843   4.192   2.889  0.00  0.00    -0.016 A 
ATOM     20  C   UNL     1      -1.388   3.886   1.595  0.00  0.00    +0.037 A 
ENDBRANCH   8  11
ENDBRANCH   3   8
BRANCH   6  21
ATOM     21  C   UNL     1       3.172  -0.340   1.834  0.00  0.00    +0.001 C 
BRANCH  21  23
ATOM     22  N   UNL     1       5.584   0.193   1.195  0.00  0.00    -0.199 N 
ATOM     23  C   UNL     1       4.449   0.458   1.878  0.00  0.00    +0.140 A 
ATOM     24  N   UNL     1       4.667   1.534   2.589  0.00  0.00    -0.115 NA
ATOM     25  N   UNL     1       5.860   1.969   2.398  0.00  0.00    -0.023 NA
ATOM     26  N   UNL     1       6.482   1.210   1.561  0.00  0.00    -0.039 NA
BRANCH  22  30
ATOM     27  C   UNL     1       6.272  -2.964  -1.441  0.00  0.00    +0.000 A 
ATOM     28  C   UNL     1       5.070  -2.281  -1.481  0.00  0.00    +0.002 A 
ATOM     29  C   UNL     1       4.840  -1.235  -0.609  0.00  0.00    +0.028 A 
ATOM     30  C   UNL     1       5.815  -0.869   0.308  0.00  0.00    +0.069 A 
ATOM     31  C   UNL     1       7.023  -1.553   0.342  0.00  0.00    +0.028 A 
ATOM     32  C   UNL     1       7.246  -2.602  -0.529  0.00  0.00    +0.002 A 
ENDBRANCH  22  30
ENDBRANCH  21  23
ENDBRANCH   6  21
TORSDOF 5
