REMARK  Name = ZINC00192098
REMARK  5 active torsions:
REMARK  status: ('A' for Active; 'I' for Inactive)
REMARK    1  A    between atoms: C_1  and  C_2
REMARK    2  A    between atoms: C_2  and  N_3
REMARK    3  A    between atoms: N_11  and  C_23
REMARK    4  A    between atoms: N_15  and  C_16
REMARK    5  A    between atoms: C_19  and  C_22
REMARK                            x       y       z     vdW  Elec       q    Type
REMARK                         _______ _______ _______ _____ _____    ______ ____
ROOT
ATOM      1  N   UNL     1      -2.134   1.119   1.375  0.00  0.00    -0.306 N 
ATOM      2  C   UNL     1      -2.598  -0.009   2.036  0.00  0.00    +0.153 A 
ATOM      3  C   UNL     1      -1.988  -1.039   2.774  0.00  0.00    +0.280 A 
ATOM      4  O   UNL     1      -0.780  -1.046   2.938  0.00  0.00    -0.265 OA
ATOM      5  N   UNL     1      -2.752  -2.018   3.299  0.00  0.00    -0.273 N 
ATOM      6  H   UNL     1      -2.321  -2.752   3.825  0.00  0.00    +0.173 HD
ATOM      7  C   UNL     1      -4.086  -2.022   3.127  0.00  0.00    +0.331 A 
ATOM      8  O   UNL     1      -4.744  -2.921   3.615  0.00  0.00    -0.246 OA
ATOM      9  N   UNL     1      -4.710  -1.057   2.428  0.00  0.00    -0.280 N 
ATOM     10  C   UNL     1      -3.978  -0.024   1.863  0.00  0.00    +0.170 A 
ATOM     11  N   UNL     1      -4.304   1.045   1.136  0.00  0.00    -0.196 NA
ATOM     12  C   UNL     1      -3.222   1.737   0.842  0.00  0.00    +0.202 A 
ATOM     13  N   UNL     1      -3.197   2.902   0.108  0.00  0.00    -0.285 N 
ATOM     14  C   UNL     1      -6.165  -1.097   2.262  0.00  0.00    +0.155 C 
ATOM     15  H   UNL     1      -2.365   3.390   0.003  0.00  0.00    +0.155 HD
ENDROOT
BRANCH  13  16
ATOM     16  C   UNL     1      -4.369   3.381  -0.484  0.00  0.00    +0.034 A 
ATOM     17  C   UNL     1      -5.352   2.492  -0.899  0.00  0.00    +0.023 A 
ATOM     18  C   UNL     1      -6.511   2.968  -1.480  0.00  0.00    +0.005 A 
ATOM     19  C   UNL     1      -6.689   4.328  -1.657  0.00  0.00    -0.050 A 
ATOM     20  C   UNL     1      -5.710   5.216  -1.249  0.00  0.00    +0.005 A 
ATOM     21  C   UNL     1      -4.551   4.746  -0.663  0.00  0.00    +0.023 A 
ATOM     22  C   UNL     1      -7.952   4.844  -2.296  0.00  0.00    +0.044 C 
ENDBRANCH  13  16
BRANCH   1  24
ATOM     23  C   UNL     1      -0.097   0.945   0.033  0.00  0.00    +0.027 C 
ATOM     24  C   UNL     1      -0.741   1.563   1.275  0.00  0.00    +0.122 C 
ENDBRANCH   1  24
TORSDOF 2
