REMARK  Name = ZINC05650276
REMARK  2 active torsions:
REMARK  status: ('A' for Active; 'I' for Inactive)
REMARK    1  A    between atoms: C_14  and  C_15
REMARK    2  A    between atoms: N_16  and  N_17
REMARK                            x       y       z     vdW  Elec       q    Type
REMARK                         _______ _______ _______ _____ _____    ______ ____
ROOT
ATOM      1  C   UNL     1       1.219   5.988  -0.310  0.00  0.00    +0.001 A 
ATOM      2  C   UNL     1       0.019   5.279  -0.302  0.00  0.00    +0.001 A 
ATOM      3  C   UNL     1      -0.008   3.923  -0.202  0.00  0.00    +0.009 A 
ATOM      4  C   UNL     1       1.198   3.210  -0.104  0.00  0.00    -0.009 A 
ATOM      5  C   UNL     1       2.460   3.951  -0.106  0.00  0.00    -0.017 A 
ATOM      6  C   UNL     1       2.418   5.359  -0.206  0.00  0.00    +0.008 A 
ATOM      7  C   UNL     1       3.677   3.273  -0.016  0.00  0.00    +0.017 A 
ATOM      8  C   UNL     1       3.695   1.881   0.082  0.00  0.00    -0.017 A 
ATOM      9  C   UNL     1       4.913   1.175   0.173  0.00  0.00    +0.008 A 
ATOM     10  C   UNL     1       4.896  -0.181   0.267  0.00  0.00    +0.001 A 
ATOM     11  C   UNL     1       3.702  -0.898   0.276  0.00  0.00    +0.001 A 
ATOM     12  C   UNL     1       2.495  -0.276   0.191  0.00  0.00    +0.009 A 
ATOM     13  C   UNL     1       2.441   1.124   0.091  0.00  0.00    -0.009 A 
ATOM     14  C   UNL     1       1.206   1.801   0.000  0.00  0.00    +0.010 A 
ENDROOT
BRANCH  14  15
ATOM     15  C   UNL     1      -0.013   1.076   0.008  0.00  0.00    +0.144 C 
ATOM     16  N   UNL     1       0.005  -0.234  -0.017  0.00  0.00    -0.155 NA
BRANCH  16  17
ATOM     17  N   UNL     1      -1.103  -0.894  -0.004  0.00  0.00    -0.127 NA
ATOM     18  C   UNL     1      -1.085  -2.213  -0.029  0.00  0.00    +0.182 C 
ATOM     19  N   UNL     1       0.009  -3.048  -0.069  0.00  0.00    -0.263 N 
ATOM     20  C   UNL     1      -0.105  -4.365  -0.090  0.00  0.00    +0.229 C 
ATOM     21  O   UNL     1       0.862  -5.096  -0.125  0.00  0.00    -0.275 OA
ATOM     22  C   UNL     1      -1.526  -4.906  -0.068  0.00  0.00    +0.173 C 
ATOM     23  S   UNL     1      -2.475  -3.335  -0.011  0.00  0.00    -0.079 S 
ATOM     24  H   UNL     1       1.024  -2.625  -0.084  0.00  0.00    +0.157 HD
ENDBRANCH  16  17
ENDBRANCH  14  15
TORSDOF 2
