REMARK  Name = ZINC39711508
REMARK  12 active torsions:
REMARK  status: ('A' for Active; 'I' for Inactive)
REMARK    1  A    between atoms: C_1  and  C_2
REMARK    2  A    between atoms: C_2  and  O_3
REMARK    3  A    between atoms: O_3  and  C_4
REMARK    4  A    between atoms: C_11  and  C_16
REMARK    5  A    between atoms: C_16  and  C_18
REMARK    6  A    between atoms: C_16  and  N_28
REMARK    7  A    between atoms: N_23  and  C_24
REMARK    8  A    between atoms: C_24  and  C_25
REMARK    9  A    between atoms: C_24  and  C_26
REMARK   10  A    between atoms: C_24  and  C_27
REMARK   11  A    between atoms: N_31  and  C_34
REMARK   12  A    between atoms: C_34  and  C_35
REMARK                            x       y       z     vdW  Elec       q    Type
REMARK                         _______ _______ _______ _____ _____    ______ ____
ROOT
ATOM      1  C   UNL     1       3.878  -6.022  -4.278  0.00  0.00    -0.009 C 
ENDROOT
BRANCH   1   9
ATOM      2  C   UNL     1       1.415  -9.711  -0.482  0.00  0.00    +0.121 A 
ATOM      3  C   UNL     1       0.553 -10.217  -1.462  0.00  0.00    +0.047 A 
ATOM      4  C   UNL     1       0.388  -9.619  -2.670  0.00  0.00    +0.027 A 
ATOM      5  C   UNL     1       1.092  -8.443  -2.989  0.00  0.00    +0.041 A 
ATOM      6  N   UNL     1       0.919  -7.866  -4.178  0.00  0.00    -0.285 N 
ATOM      7  C   UNL     1       1.548  -6.762  -4.544  0.00  0.00    +0.223 C 
ATOM      8  O   UNL     1       1.349  -6.281  -5.644  0.00  0.00    -0.275 OA
ATOM      9  C   UNL     1       2.514  -6.098  -3.588  0.00  0.00    +0.088 C 
ATOM     10  C   UNL     1       2.713  -6.749  -2.234  0.00  0.00    -0.006 C 
ATOM     11  C   UNL     1       2.006  -7.886  -1.977  0.00  0.00    -0.004 A 
ATOM     12  C   UNL     1       2.136  -8.575  -0.693  0.00  0.00    +0.055 A 
ATOM     13  H   UNL     1       0.304  -8.277  -4.806  0.00  0.00    +0.155 HD
BRANCH   2  14
ATOM     14  O   UNL     1       1.530 -10.363   0.705  0.00  0.00    -0.492 OA
BRANCH  14  16
ATOM     15  C   UNL     1       1.011 -12.140   2.259  0.00  0.00    +0.048 C 
ATOM     16  C   UNL     1       0.751 -11.550   0.872  0.00  0.00    +0.225 C 
ENDBRANCH  14  16
ENDBRANCH   2  14
ENDBRANCH   1   9
BRANCH   1  17
ATOM     17  N   UNL     1       4.206  -7.330  -4.860  0.00  0.00    +0.386 N 
ATOM     18  C   UNL     1       5.648  -7.398  -5.129  0.00  0.00    -0.063 C 
ATOM     19  C   UNL     1       5.993  -8.768  -5.719  0.00  0.00    +0.066 C 
ATOM     20  N   UNL     1       5.235  -8.968  -6.962  0.00  0.00    -0.302 NA
ATOM     21  C   UNL     1       3.789  -8.877  -6.712  0.00  0.00    +0.066 C 
ATOM     22  C   UNL     1       3.462  -7.507  -6.115  0.00  0.00    -0.063 C 
ATOM     23  H   UNL     1       3.950  -8.060  -4.212  0.00  0.00    -0.081 HD
BRANCH  20  24
ATOM     24  C   UNL     1       5.582 -10.250  -7.589  0.00  0.00    +0.119 C 
BRANCH  24  25
ATOM     25  C   UNL     1       4.980 -10.313  -8.970  0.00  0.00    -0.033 A 
ATOM     26  C   UNL     1       3.709 -10.828  -9.147  0.00  0.00    +0.005 A 
ATOM     27  C   UNL     1       3.158 -10.885 -10.413  0.00  0.00    +0.000 A 
ATOM     28  C   UNL     1       3.877 -10.428 -11.502  0.00  0.00    +0.000 A 
ATOM     29  C   UNL     1       5.147  -9.912 -11.324  0.00  0.00    +0.000 A 
ATOM     30  C   UNL     1       5.697  -9.851 -10.057  0.00  0.00    +0.005 A 
ENDBRANCH  24  25
ENDBRANCH  20  24
ENDBRANCH   1  17
BRANCH   1  31
ATOM     31  C   UNL     1       4.947  -5.638  -3.252  0.00  0.00    +0.205 C 
ATOM     32  N   UNL     1       4.931  -6.574  -2.120  0.00  0.00    -0.152 NA
ATOM     33  N   UNL     1       4.670  -5.949  -1.090  0.00  0.00    -0.070 NA
ATOM     34  N   UNL     1       4.477  -4.587  -1.316  0.00  0.00    -0.179 N 
ATOM     35  N   UNL     1       4.638  -4.322  -2.653  0.00  0.00    -0.183 NA
ATOM     36  H   UNL     1       4.263  -3.929  -0.635  0.00  0.00    +0.191 HD
BRANCH  35  37
ATOM     37  C   UNL     1       3.411  -3.756  -3.230  0.00  0.00    +0.035 C 
ATOM     38  C   UNL     1       2.199  -4.258  -2.442  0.00  0.00    +0.029 C 
ATOM     39  C   UNL     1       3.470  -2.229  -3.157  0.00  0.00    +0.029 C 
ATOM     40  C   UNL     1       3.285  -4.193  -4.691  0.00  0.00    +0.029 C 
ENDBRANCH  35  37
ENDBRANCH   1  31
TORSDOF 8
