REMARK  Name = ZINC39916780
REMARK  6 active torsions:
REMARK  status: ('A' for Active; 'I' for Inactive)
REMARK    1  A    between atoms: C_4  and  C_7
REMARK    2  A    between atoms: C_7  and  N_8
REMARK    3  A    between atoms: N_11  and  C_14
REMARK    4  A    between atoms: C_14  and  C_16
REMARK    5  A    between atoms: C_14  and  N_20
REMARK    6  A    between atoms: C_21  and  C_23
REMARK                            x       y       z     vdW  Elec       q    Type
REMARK                         _______ _______ _______ _____ _____    ______ ____
ROOT
ATOM      1  C   UNL     1       6.568  -0.989   4.811  0.00  0.00    +0.196 C 
ENDROOT
BRANCH   1   5
ATOM      2  N   UNL     1       4.329  -1.049   1.226  0.00  0.00    +0.384 N 
ATOM      3  C   UNL     1       4.514   0.241   1.903  0.00  0.00    -0.063 C 
ATOM      4  C   UNL     1       4.895   0.000   3.365  0.00  0.00    +0.068 C 
ATOM      5  N   UNL     1       6.137  -0.784   3.421  0.00  0.00    -0.285 NA
ATOM      6  C   UNL     1       5.975  -2.069   2.726  0.00  0.00    +0.068 C 
ATOM      7  C   UNL     1       5.584  -1.811   1.269  0.00  0.00    -0.063 C 
ATOM      8  H   UNL     1       3.602  -1.572   1.692  0.00  0.00    -0.081 HD
BRANCH   2   9
ATOM      9  C   UNL     1       3.945  -0.817  -0.173  0.00  0.00    -0.043 C 
BRANCH   9  13
ATOM     10  C   UNL     1       0.125   1.090  -0.305  0.00  0.00    +0.000 A 
ATOM     11  C   UNL     1       1.277   1.853  -0.252  0.00  0.00    +0.000 A 
ATOM     12  C   UNL     1       2.513   1.235  -0.209  0.00  0.00    +0.002 A 
ATOM     13  C   UNL     1       2.597  -0.144  -0.219  0.00  0.00    -0.064 A 
ATOM     14  C   UNL     1       1.445  -0.907  -0.271  0.00  0.00    +0.002 A 
ATOM     15  C   UNL     1       0.209  -0.289  -0.316  0.00  0.00    +0.000 A 
ENDBRANCH   9  13
ENDBRANCH   2   9
ENDBRANCH   1   5
BRANCH   1  16
ATOM     16  C   UNL     1       7.143   0.317   5.364  0.00  0.00    +0.222 C 
ATOM     17 CL   UNL     1       5.823   1.535   5.521  0.00  0.00    -0.080 Cl
ATOM     18 CL   UNL     1       7.875   0.013   6.983  0.00  0.00    -0.080 Cl
ATOM     19 CL   UNL     1       8.406   0.941   4.240  0.00  0.00    -0.080 Cl
ENDBRANCH   1  16
BRANCH   1  20
ATOM     20  N   UNL     1       5.420  -1.400   5.623  0.00  0.00    -0.292 N 
ATOM     21  C   UNL     1       5.295  -2.684   6.011  0.00  0.00    +0.252 C 
ATOM     22  O   UNL     1       6.135  -3.502   5.688  0.00  0.00    -0.270 OA
ATOM     23  H   UNL     1       4.750  -0.748   5.881  0.00  0.00    +0.151 HD
BRANCH  21  24
ATOM     24  C   UNL     1       4.141  -3.098   6.828  0.00  0.00    +0.122 A 
ATOM     25  C   UNL     1       3.988  -4.412   7.248  0.00  0.00    +0.031 A 
ATOM     26  C   UNL     1       2.834  -4.741   8.004  0.00  0.00    +0.018 A 
ATOM     27  C   UNL     1       2.722  -5.994   8.623  0.00  0.00    +0.011 A 
ATOM     28  C   UNL     1       1.624  -6.280   9.383  0.00  0.00    +0.001 A 
ATOM     29  C   UNL     1       0.612  -5.343   9.542  0.00  0.00    +0.004 A 
ATOM     30  C   UNL     1       0.692  -4.111   8.926  0.00  0.00    +0.047 A 
ATOM     31  C   UNL     1       1.796  -3.800   8.143  0.00  0.00    +0.139 A 
ATOM     32  O   UNL     1       1.866  -2.611   7.499  0.00  0.00    -0.422 OA
ATOM     33  C   UNL     1       3.106  -2.131   7.236  0.00  0.00    +0.350 A 
ATOM     34  O   UNL     1       3.356  -0.944   7.330  0.00  0.00    -0.244 OA
ENDBRANCH  21  24
ENDBRANCH   1  20
TORSDOF 6
