REMARK  Name = ZINC01461915
REMARK  9 active torsions:
REMARK  status: ('A' for Active; 'I' for Inactive)
REMARK    1  A    between atoms: C_1  and  C_2
REMARK    2  A    between atoms: C_5  and  N_9
REMARK    3  A    between atoms: C_6  and  C_8
REMARK    4  A    between atoms: N_9  and  S_10
REMARK    5  A    between atoms: S_10  and  C_13
REMARK    6  A    between atoms: C_26  and  C_29
REMARK    7  A    between atoms: C_32  and  C_35
REMARK    8  A    between atoms: C_35  and  O_37
REMARK    9  A    between atoms: O_37  and  C_38
REMARK                            x       y       z     vdW  Elec       q    Type
REMARK                         _______ _______ _______ _____ _____    ______ ____
ROOT
ATOM      1  C   UNL     1      -0.669  -0.937  -2.364  0.00  0.00    +0.109 A 
ATOM      2  C   UNL     1      -1.408   0.133  -2.835  0.00  0.00    +0.030 A 
ATOM      3  C   UNL     1      -1.425   0.423  -4.184  0.00  0.00    +0.025 A 
ATOM      4  C   UNL     1      -0.707  -0.361  -5.079  0.00  0.00    +0.031 A 
ATOM      5  C   UNL     1       0.026  -1.451  -4.597  0.00  0.00    -0.018 A 
ATOM      6  C   UNL     1       0.042  -1.728  -3.247  0.00  0.00    +0.034 A 
ATOM      7  C   UNL     1       0.753  -2.276  -5.585  0.00  0.00    +0.049 C 
ATOM      8  C   UNL     1       1.966  -3.052  -5.219  0.00  0.00    -0.023 C 
ATOM      9  C   UNL     1       2.762  -3.121  -6.280  0.00  0.00    -0.030 C 
ATOM     10  C   UNL     1       2.143  -2.352  -7.449  0.00  0.00    +0.033 C 
ATOM     11  C   UNL     1       1.262  -1.331  -6.715  0.00  0.00    +0.029 C 
ATOM     12  C   UNL     1       0.015  -0.848  -7.432  0.00  0.00    +0.105 C 
ATOM     13  N   UNL     1      -0.724  -0.035  -6.441  0.00  0.00    -0.336 N 
ATOM     14  H   UNL     1      -1.230   0.736  -6.740  0.00  0.00    +0.147 HD
ENDROOT
BRANCH  12  15
ATOM     15  C   UNL     1      -0.822  -2.023  -7.870  0.00  0.00    -0.027 A 
ATOM     16  C   UNL     1      -0.599  -2.604  -9.105  0.00  0.00    +0.006 A 
ATOM     17  C   UNL     1      -1.358  -3.682  -9.511  0.00  0.00    +0.015 A 
ATOM     18  C   UNL     1      -2.359  -4.181  -8.675  0.00  0.00    +0.059 A 
ATOM     19  C   UNL     1      -2.582  -3.586  -7.432  0.00  0.00    +0.015 A 
ATOM     20  C   UNL     1      -1.813  -2.511  -7.037  0.00  0.00    +0.006 A 
BRANCH  18  21
ATOM     21  C   UNL     1      -3.179  -5.332  -9.104  0.00  0.00    +0.339 C 
ATOM     22  O   UNL     1      -4.050  -5.763  -8.375  0.00  0.00    -0.245 OA
BRANCH  21  23
ATOM     23  O   UNL     1      -2.962  -5.904 -10.305  0.00  0.00    -0.464 OA
ATOM     24  C   UNL     1      -3.805  -7.031 -10.661  0.00  0.00    +0.280 C 
ENDBRANCH  21  23
ENDBRANCH  18  21
ENDBRANCH  12  15
BRANCH   1  25
ATOM     25  S   UNL     1      -0.639  -1.295  -0.639  0.00  0.00    +0.072 S 
ATOM     26  O   UNL     1      -0.320  -2.675  -0.516  0.00  0.00    -0.150 OA
ATOM     27  O   UNL     1      -1.823  -0.735  -0.087  0.00  0.00    -0.150 OA
BRANCH  25  28
ATOM     28  N   UNL     1       0.630  -0.456   0.014  0.00  0.00    -0.216 N 
ATOM     29  H   UNL     1       1.351  -0.932   0.455  0.00  0.00    +0.174 HD
BRANCH  28  34
ATOM     30  C   UNL     1       0.764   5.203  -0.332  0.00  0.00    +0.044 C 
ATOM     31  C   UNL     1       0.729   3.699  -0.240  0.00  0.00    -0.050 A 
ATOM     32  C   UNL     1      -0.479   3.047  -0.066  0.00  0.00    +0.005 A 
ATOM     33  C   UNL     1      -0.515   1.669   0.013  0.00  0.00    +0.025 A 
ATOM     34  C   UNL     1       0.663   0.938  -0.071  0.00  0.00    +0.051 A 
ATOM     35  C   UNL     1       1.874   1.596  -0.245  0.00  0.00    -0.028 A 
ATOM     36  C   UNL     1       1.903   2.974  -0.329  0.00  0.00    +0.008 A 
ATOM     37  C   UNL     1       3.154   0.807  -0.343  0.00  0.00    +0.046 C 
ENDBRANCH  28  34
ENDBRANCH  25  28
ENDBRANCH   1  25
TORSDOF 6
