REMARK  Name = ZINC66695853
REMARK  5 active torsions:
REMARK  status: ('A' for Active; 'I' for Inactive)
REMARK    1  A    between atoms: C_1  and  C_2
REMARK    2  A    between atoms: C_5  and  N_8
REMARK    3  A    between atoms: N_8  and  C_9
REMARK    4  A    between atoms: N_8  and  C_10
REMARK    5  A    between atoms: C_10  and  C_11
REMARK                            x       y       z     vdW  Elec       q    Type
REMARK                         _______ _______ _______ _____ _____    ______ ____
ROOT
ATOM      1  N   UNL     1       1.514  -3.896  -0.106  0.00  0.00    +0.381 N 
ATOM      2  C   UNL     1       2.260  -3.982  -1.369  0.00  0.00    -0.096 C 
ATOM      3  H   UNL     1       0.751  -4.556  -0.121  0.00  0.00    -0.082 HD
ENDROOT
BRANCH   1   8
ATOM      4  C   UNL     1      -1.837   0.710   0.545  0.00  0.00    +0.007 C 
ATOM      5  C   UNL     1      -1.283  -0.706   0.375  0.00  0.00    -0.014 C 
ATOM      6  C   UNL     1      -0.506  -0.795  -0.940  0.00  0.00    +0.002 C 
ATOM      7  C   UNL     1       0.048  -2.211  -1.110  0.00  0.00    -0.015 C 
ATOM      8  C   UNL     1       0.982  -2.537   0.057  0.00  0.00    -0.069 C 
ATOM      9  C   UNL     1       0.205  -2.447   1.372  0.00  0.00    -0.015 C 
ATOM     10  C   UNL     1      -0.349  -1.031   1.542  0.00  0.00    +0.002 C 
ENDBRANCH   1   8
BRANCH   1  11
ATOM     11  C   UNL     1       2.410  -4.209   1.014  0.00  0.00    -0.047 C 
BRANCH  11  12
ATOM     12  C   UNL     1       2.837  -5.676   0.932  0.00  0.00    +0.102 C 
ATOM     13  C   UNL     1       3.625  -6.050   2.190  0.00  0.00    +0.030 C 
ATOM     14  C   UNL     1       4.100  -7.501   2.073  0.00  0.00    +0.005 C 
ATOM     15  C   UNL     1       4.935  -7.652   0.798  0.00  0.00    +0.028 C 
ATOM     16  C   UNL     1       4.097  -7.216  -0.407  0.00  0.00    +0.160 C 
ATOM     17  O   UNL     1       3.661  -5.868  -0.220  0.00  0.00    -0.378 OA
ENDBRANCH  11  12
ENDBRANCH   1  11
TORSDOF 3
