REMARK  Name = ZINC20344477
REMARK  13 active torsions:
REMARK  status: ('A' for Active; 'I' for Inactive)
REMARK    1  A    between atoms: C_1  and  C_2
REMARK    2  A    between atoms: C_4  and  C_32
REMARK    3  A    between atoms: C_5  and  S_9
REMARK    4  A    between atoms: C_6  and  C_8
REMARK    5  A    between atoms: S_9  and  N_12
REMARK    6  A    between atoms: N_12  and  N_13
REMARK    7  A    between atoms: N_13  and  C_14
REMARK    8  A    between atoms: C_14  and  N_16
REMARK    9  A    between atoms: N_16  and  C_17
REMARK   10  A    between atoms: C_18  and  C_28
REMARK   11  A    between atoms: C_23  and  C_27
REMARK   12  A    between atoms: C_28  and  O_30
REMARK   13  A    between atoms: O_30  and  C_31
REMARK                            x       y       z     vdW  Elec       q    Type
REMARK                         _______ _______ _______ _____ _____    ______ ____
ROOT
ATOM      1  C   UNL     1       6.524   0.389  -1.335  0.00  0.00    +0.150 C 
ATOM      2  S   UNL     1       7.011   1.678  -2.351  0.00  0.00    -0.017 S 
ENDROOT
BRANCH   1   3
ATOM      3  N   UNL     1       5.215   0.182  -1.089  0.00  0.00    -0.243 N 
ATOM      4  H   UNL     1       4.460   0.842  -1.540  0.00  0.00    +0.170 HD
BRANCH   3   5
ATOM      5  N   UNL     1       4.817  -0.873  -0.257  0.00  0.00    -0.109 NA
ATOM      6  H   UNL     1       5.104  -1.779  -0.452  0.00  0.00    +0.172 HD
BRANCH   5   7
ATOM      7  S   UNL     1       3.858  -0.573   1.059  0.00  0.00    +0.074 S 
ATOM      8  O   UNL     1       4.514   0.432   1.819  0.00  0.00    -0.152 OA
ATOM      9  O   UNL     1       3.513  -1.838   1.607  0.00  0.00    -0.152 OA
BRANCH   7  14
ATOM     10  C   UNL     1      -1.264   1.877  -0.982  0.00  0.00    +0.044 C 
ATOM     11  C   UNL     1       0.017   1.265  -0.476  0.00  0.00    -0.050 A 
ATOM     12  C   UNL     1       0.141  -0.110  -0.394  0.00  0.00    +0.008 A 
ATOM     13  C   UNL     1       1.314  -0.671   0.075  0.00  0.00    -0.024 A 
ATOM     14  C   UNL     1       2.363   0.142   0.462  0.00  0.00    +0.113 A 
ATOM     15  C   UNL     1       2.239   1.516   0.380  0.00  0.00    -0.024 A 
ATOM     16  C   UNL     1       1.066   2.078  -0.089  0.00  0.00    +0.008 A 
ATOM     17  C   UNL     1       3.382   2.403   0.801  0.00  0.00    +0.046 C 
ATOM     18  C   UNL     1       1.450  -2.169   0.164  0.00  0.00    +0.046 C 
ENDBRANCH   7  14
ENDBRANCH   5   7
ENDBRANCH   3   5
ENDBRANCH   1   3
BRANCH   1  19
ATOM     19  N   UNL     1       7.450  -0.419  -0.782  0.00  0.00    -0.290 N 
ATOM     20  H   UNL     1       7.138  -1.248  -0.129  0.00  0.00    +0.154 HD
BRANCH  19  21
ATOM     21  C   UNL     1       8.795  -0.207  -1.036  0.00  0.00    +0.086 A 
ATOM     22  C   UNL     1       9.887  -0.924  -0.563  0.00  0.00    +0.091 A 
ATOM     23  C   UNL     1      11.208  -0.490  -0.984  0.00  0.00    -0.021 A 
ATOM     24  C   UNL     1      11.227   0.583  -1.803  0.00  0.00    -0.004 A 
ATOM     25  S   UNL     1       9.524   1.014  -2.026  0.00  0.00    -0.077 S 
ATOM     26  C   UNL     1      12.433   1.249  -2.392  0.00  0.00    +0.046 C 
ATOM     27  C   UNL     1      13.674   0.763  -1.630  0.00  0.00    -0.009 C 
ATOM     28  C   UNL     1      13.618  -0.763  -1.516  0.00  0.00    +0.008 C 
ATOM     29  C   UNL     1      12.502  -1.171  -0.553  0.00  0.00    +0.037 C 
ATOM     30  C   UNL     1      14.937   1.178  -2.389  0.00  0.00    +0.008 C 
BRANCH  22  31
ATOM     31  C   UNL     1       9.712  -2.075   0.326  0.00  0.00    +0.342 C 
ATOM     32  O   UNL     1       9.583  -3.190  -0.142  0.00  0.00    -0.245 OA
BRANCH  31  33
ATOM     33  O   UNL     1       9.695  -1.898   1.663  0.00  0.00    -0.464 OA
ATOM     34  C   UNL     1       9.519  -3.083   2.482  0.00  0.00    +0.280 C 
ENDBRANCH  31  33
ENDBRANCH  22  31
ENDBRANCH  19  21
ENDBRANCH   1  19
TORSDOF 8
