REMARK  Name = ZINC01814445
REMARK  14 active torsions:
REMARK  status: ('A' for Active; 'I' for Inactive)
REMARK    1  A    between atoms: C_1  and  C_2
REMARK    2  A    between atoms: C_2  and  C_3
REMARK    3  A    between atoms: C_2  and  C_4
REMARK    4  A    between atoms: C_2  and  C_5
REMARK    5  A    between atoms: C_7  and  C_16
REMARK    6  A    between atoms: C_9  and  C_12
REMARK    7  A    between atoms: C_10  and  O_11
REMARK    8  A    between atoms: C_12  and  C_13
REMARK    9  A    between atoms: C_12  and  C_14
REMARK   10  A    between atoms: C_12  and  C_15
REMARK   11  A    between atoms: N_20  and  C_21
REMARK   12  A    between atoms: C_21  and  C_22
REMARK   13  A    between atoms: C_25  and  C_28
REMARK   14  A    between atoms: N_31  and  C_32
REMARK                            x       y       z     vdW  Elec       q    Type
REMARK                         _______ _______ _______ _____ _____    ______ ____
ROOT
ATOM      1  C   UNL     1       2.352   0.889  -4.232  0.00  0.00    +0.058 A 
ATOM      2  C   UNL     1       2.669   2.137  -3.775  0.00  0.00    +0.074 A 
ATOM      3  S   UNL     1       3.358   2.868  -5.254  0.00  0.00    -0.062 S 
ATOM      4  C   UNL     1       3.154   1.448  -6.320  0.00  0.00    +0.144 A 
ATOM      5  N   UNL     1       2.608   0.574  -5.494  0.00  0.00    -0.318 N 
ATOM      6  N   UNL     1       3.487   1.300  -7.658  0.00  0.00    -0.295 N 
ATOM      7  H   UNL     1       3.240   0.492  -8.133  0.00  0.00    +0.154 HD
ENDROOT
BRANCH   1  10
ATOM      8  C   UNL     1       0.076  -0.670  -1.679  0.00  0.00    +0.000 A 
ATOM      9  C   UNL     1       0.650   0.258  -2.523  0.00  0.00    +0.017 A 
ATOM     10  C   UNL     1       1.732  -0.106  -3.323  0.00  0.00    -0.000 A 
ATOM     11  C   UNL     1       2.230  -1.407  -3.268  0.00  0.00    +0.017 A 
ATOM     12  C   UNL     1       1.651  -2.330  -2.422  0.00  0.00    +0.000 A 
ATOM     13  C   UNL     1       0.577  -1.963  -1.623  0.00  0.00    +0.124 A 
BRANCH   8  15
ATOM     14  C   UNL     1      -1.446   1.189  -1.067  0.00  0.00    +0.015 C 
ATOM     15  C   UNL     1      -1.094  -0.278  -0.814  0.00  0.00    -0.009 C 
ATOM     16  C   UNL     1      -0.725  -0.467   0.659  0.00  0.00    +0.015 C 
ATOM     17  C   UNL     1      -2.299  -1.157  -1.155  0.00  0.00    +0.015 C 
ENDBRANCH   8  15
BRANCH  12  18
ATOM     18  C   UNL     1       2.189  -3.736  -2.361  0.00  0.00    -0.009 C 
ATOM     19  C   UNL     1       3.367  -3.874  -3.328  0.00  0.00    +0.015 C 
ATOM     20  C   UNL     1       2.660  -4.041  -0.938  0.00  0.00    +0.015 C 
ATOM     21  C   UNL     1       1.087  -4.721  -2.756  0.00  0.00    +0.015 C 
ENDBRANCH  12  18
BRANCH  13  22
ATOM     22  O   UNL     1       0.013  -2.873  -0.786  0.00  0.00    -0.506 OA
ATOM     23  H   UNL     1      -0.707  -3.381  -1.185  0.00  0.00    +0.292 HD
ENDBRANCH  13  22
ENDBRANCH   1  10
BRANCH   6  24
ATOM     24  C   UNL     1       4.178   2.317  -8.322  0.00  0.00    +0.033 A 
ATOM     25  C   UNL     1       5.119   3.079  -7.641  0.00  0.00    +0.023 A 
ATOM     26  C   UNL     1       5.801   4.083  -8.300  0.00  0.00    +0.002 A 
ATOM     27  C   UNL     1       5.548   4.329  -9.637  0.00  0.00    +0.000 A 
ATOM     28  C   UNL     1       4.613   3.572 -10.319  0.00  0.00    +0.002 A 
ATOM     29  C   UNL     1       3.931   2.564  -9.667  0.00  0.00    +0.023 A 
ENDBRANCH   6  24
BRANCH   5  30
ATOM     30  C   UNL     1       2.274  -0.766  -5.982  0.00  0.00    +0.159 C 
BRANCH  30  31
ATOM     31  C   UNL     1       0.879  -0.759  -6.552  0.00  0.00    -0.028 A 
ATOM     32  C   UNL     1      -0.193  -1.118  -5.754  0.00  0.00    +0.006 A 
ATOM     33  C   UNL     1      -1.472  -1.114  -6.269  0.00  0.00    +0.015 A 
ATOM     34  C   UNL     1      -1.685  -0.747  -7.601  0.00  0.00    +0.063 A 
ATOM     35  C   UNL     1      -0.598  -0.385  -8.400  0.00  0.00    +0.015 A 
ATOM     36  C   UNL     1       0.676  -0.388  -7.870  0.00  0.00    +0.006 A 
BRANCH  34  37
ATOM     37  C   UNL     1      -3.050  -0.741  -8.159  0.00  0.00    +0.387 C 
ATOM     38  O   UNL     1      -4.000  -1.058  -7.457  0.00  0.00    -0.241 OA
ATOM     39  O   UNL     1      -3.233  -0.419  -9.325  0.00  0.00    -0.241 OA
ENDBRANCH  34  37
ENDBRANCH  30  31
ENDBRANCH   5  30
TORSDOF 8
