REMARK  Name = ZINC59265596
REMARK  10 active torsions:
REMARK  status: ('A' for Active; 'I' for Inactive)
REMARK    1  A    between atoms: C_2  and  C_3
REMARK    2  A    between atoms: C_3  and  N_4
REMARK    3  A    between atoms: C_5  and  C_23
REMARK    4  A    between atoms: C_8  and  S_9
REMARK    5  A    between atoms: S_9  and  C_10
REMARK    6  A    between atoms: C_10  and  C_11
REMARK    7  A    between atoms: C_11  and  C_12
REMARK    8  A    between atoms: N_14  and  C_15
REMARK    9  A    between atoms: C_23  and  N_24
REMARK   10  A    between atoms: N_24  and  C_25
REMARK                            x       y       z     vdW  Elec       q    Type
REMARK                         _______ _______ _______ _____ _____    ______ ____
ROOT
ATOM      1  N   UNL     1      -1.270  -1.684  -1.144  0.00  0.00    -0.301 N 
ATOM      2  C   UNL     1      -1.742  -1.433  -2.403  0.00  0.00    +0.152 A 
ATOM      3  N   UNL     1      -1.585  -2.523  -3.100  0.00  0.00    -0.132 NA
ATOM      4  N   UNL     1      -1.051  -3.438  -2.373  0.00  0.00    -0.122 NA
ATOM      5  C   UNL     1      -0.831  -2.977  -1.164  0.00  0.00    +0.192 A 
ENDROOT
BRANCH   1   6
ATOM      6  C   UNL     1      -1.237  -0.756  -0.010  0.00  0.00    +0.152 C 
BRANCH   6   8
ATOM      7  C   UNL     1       0.054   1.316  -0.019  0.00  0.00    +0.005 C 
ATOM      8  C   UNL     1       0.063   0.006  -0.023  0.00  0.00    -0.013 C 
ENDBRANCH   6   8
ENDBRANCH   1   6
BRANCH   5   9
ATOM      9  S   UNL     1      -0.109  -3.859   0.179  0.00  0.00    -0.086 S 
BRANCH   9  10
ATOM     10  C   UNL     1       0.242  -5.499  -0.511  0.00  0.00    +0.086 C 
BRANCH  10  11
ATOM     11  C   UNL     1       0.880  -6.380   0.565  0.00  0.00    +0.107 C 
BRANCH  11  12
ATOM     12  C   UNL     1       1.172  -7.743  -0.009  0.00  0.00    +0.218 C 
ATOM     13  O   UNL     1       0.896  -7.986  -1.164  0.00  0.00    -0.275 OA
ATOM     14  N   UNL     1       1.739  -8.691   0.763  0.00  0.00    -0.284 N 
ATOM     15  H   UNL     1       2.019  -8.478   1.667  0.00  0.00    +0.155 HD
BRANCH  14  16
ATOM     16  C   UNL     1       1.923  -9.984   0.260  0.00  0.00    +0.053 A 
ATOM     17  C   UNL     1       2.228 -10.172  -1.082  0.00  0.00    +0.044 A 
ATOM     18  C   UNL     1       2.410 -11.450  -1.576  0.00  0.00    +0.043 A 
ATOM     19  C   UNL     1       2.289 -12.542  -0.734  0.00  0.00    +0.021 A 
ATOM     20  C   UNL     1       1.986 -12.359   0.602  0.00  0.00    +0.023 A 
ATOM     21  C   UNL     1       1.808 -11.083   1.103  0.00  0.00    +0.062 A 
ATOM     22 CL   UNL     1       1.434 -10.853   2.783  0.00  0.00    -0.082 Cl
ATOM     23 CL   UNL     1       2.790 -11.685  -3.253  0.00  0.00    -0.083 Cl
ENDBRANCH  14  16
ENDBRANCH  11  12
ENDBRANCH  10  11
ENDBRANCH   9  10
ENDBRANCH   5   9
BRANCH   2  24
ATOM     24  C   UNL     1      -2.334  -0.137  -2.893  0.00  0.00    +0.178 C 
BRANCH  24  25
ATOM     25  N   UNL     1      -1.270   0.711  -3.437  0.00  0.00    -0.336 N 
ATOM     26  H   UNL     1      -0.353   0.397  -3.438  0.00  0.00    +0.147 HD
BRANCH  25  27
ATOM     27  C   UNL     1      -1.577   1.968  -3.953  0.00  0.00    +0.035 A 
ATOM     28  C   UNL     1      -2.879   2.423  -3.950  0.00  0.00    +0.023 A 
ATOM     29  C   UNL     1      -3.196   3.677  -4.463  0.00  0.00    +0.002 A 
ATOM     30  C   UNL     1      -2.233   4.488  -4.982  0.00  0.00    +0.008 A 
ATOM     31  C   UNL     1      -0.894   4.062  -5.004  0.00  0.00    -0.016 A 
ATOM     32  C   UNL     1      -0.557   2.790  -4.479  0.00  0.00    +0.003 A 
ATOM     33  C   UNL     1       0.781   2.368  -4.497  0.00  0.00    +0.010 A 
ATOM     34  C   UNL     1       1.739   3.188  -5.013  0.00  0.00    +0.001 A 
ATOM     35  C   UNL     1       1.410   4.442  -5.524  0.00  0.00    +0.001 A 
ATOM     36  C   UNL     1       0.121   4.878  -5.533  0.00  0.00    +0.008 A 
ENDBRANCH  25  27
ENDBRANCH  24  25
ENDBRANCH   2  24
TORSDOF 10
