REMARK  Name = ZINC13033899
REMARK  8 active torsions:
REMARK  status: ('A' for Active; 'I' for Inactive)
REMARK    1  A    between atoms: C_3  and  C_6
REMARK    2  A    between atoms: C_6  and  N_60
REMARK    3  A    between atoms: C_7  and  C_8
REMARK    4  A    between atoms: C_7  and  N_60
REMARK    5  A    between atoms: C_24  and  C_25
REMARK    6  A    between atoms: C_24  and  N_60
REMARK    7  A    between atoms: N_29  and  C_30
REMARK    8  A    between atoms: C_30  and  C_31
REMARK                            x       y       z     vdW  Elec       q    Type
REMARK                         _______ _______ _______ _____ _____    ______ ____
ROOT
ATOM      1  N   UNL     1       2.221  -2.189  -1.724  0.00  0.00    +0.392 N 
ATOM      2  H   UNL     1       2.678  -1.506  -2.340  0.00  0.00    -0.080 HD
ENDROOT
BRANCH   1   3
ATOM      3  C   UNL     1       0.826  -2.381  -2.170  0.00  0.00    -0.002 C 
BRANCH   3   6
ATOM      4  C   UNL     1      -0.319   0.845  -3.536  0.00  0.00    +0.041 A 
ATOM      5  C   UNL     1       0.406  -0.363  -3.654  0.00  0.00    +0.042 A 
ATOM      6  C   UNL     1       0.235  -1.035  -2.501  0.00  0.00    +0.089 A 
ATOM      7  O   UNL     1      -0.556  -0.305  -1.698  0.00  0.00    -0.470 OA
ATOM      8  C   UNL     1      -0.890   0.839  -2.318  0.00  0.00    +0.195 A 
ENDBRANCH   3   6
ENDBRANCH   1   3
BRANCH   1   9
ATOM      9  C   UNL     1       2.956  -3.470  -1.799  0.00  0.00    -0.036 C 
BRANCH   9  10
ATOM     10  C   UNL     1       3.109  -3.858  -3.247  0.00  0.00    +0.001 A 
ATOM     11  C   UNL     1       4.233  -3.511  -3.925  0.00  0.00    +0.017 A 
ATOM     12  C   UNL     1       4.354  -3.906  -5.328  0.00  0.00    +0.002 A 
ATOM     13  C   UNL     1       5.492  -3.580  -6.076  0.00  0.00    +0.059 A 
ATOM     14  C   UNL     1       5.575  -3.962  -7.398  0.00  0.00    +0.163 A 
ATOM     15  C   UNL     1       4.529  -4.674  -7.992  0.00  0.00    +0.164 A 
ATOM     16  C   UNL     1       3.400  -5.001  -7.261  0.00  0.00    +0.075 A 
ATOM     17  C   UNL     1       3.300  -4.622  -5.928  0.00  0.00    +0.053 A 
ATOM     18  N   UNL     1       2.181  -4.939  -5.185  0.00  0.00    -0.322 N 
ATOM     19  H   UNL     1       1.455  -5.431  -5.599  0.00  0.00    +0.169 HD
ATOM     20  C   UNL     1       2.082  -4.574  -3.894  0.00  0.00    +0.251 A 
ATOM     21  O   UNL     1       1.079  -4.871  -3.268  0.00  0.00    -0.268 OA
ATOM     22  O   UNL     1       4.606  -5.059  -9.295  0.00  0.00    -0.485 OA
ATOM     23  C   UNL     1       5.581  -4.395 -10.106  0.00  0.00    +0.270 C 
ATOM     24  C   UNL     1       6.904  -4.354  -9.331  0.00  0.00    +0.270 C 
ATOM     25  O   UNL     1       6.688  -3.635  -8.112  0.00  0.00    -0.485 OA
ENDBRANCH   9  10
ENDBRANCH   1   9
BRANCH   1  26
ATOM     26  C   UNL     1       2.243  -1.676  -0.338  0.00  0.00    +0.001 C 
BRANCH  26  27
ATOM     27  C   UNL     1       1.873  -0.215  -0.358  0.00  0.00    +0.135 A 
ATOM     28  N   UNL     1       0.857   0.343   0.254  0.00  0.00    -0.115 NA
ATOM     29  N   UNL     1       0.880   1.605  -0.006  0.00  0.00    -0.023 NA
ATOM     30  N   UNL     1       1.884   1.866  -0.768  0.00  0.00    -0.044 NA
ATOM     31  N   UNL     1       2.521   0.769  -1.007  0.00  0.00    -0.227 N 
BRANCH  31  32
ATOM     32  C   UNL     1       3.724   0.624  -1.831  0.00  0.00    +0.182 C 
BRANCH  32  33
ATOM     33  C   UNL     1       4.942   0.927  -0.999  0.00  0.00    -0.026 A 
ATOM     34  C   UNL     1       5.366   2.235  -0.846  0.00  0.00    +0.008 A 
ATOM     35  C   UNL     1       6.481   2.515  -0.079  0.00  0.00    +0.038 A 
ATOM     36  C   UNL     1       7.180   1.485   0.528  0.00  0.00    +0.123 A 
ATOM     37  C   UNL     1       6.758   0.176   0.369  0.00  0.00    +0.038 A 
ATOM     38  C   UNL     1       5.640  -0.102  -0.394  0.00  0.00    +0.008 A 
ATOM     39  F   UNL     1       8.273   1.757   1.274  0.00  0.00    -0.205 F 
ENDBRANCH  32  33
ENDBRANCH  31  32
ENDBRANCH  26  27
ENDBRANCH   1  26
TORSDOF 8
