REMARK  Name = ZINC46478224
REMARK  8 active torsions:
REMARK  status: ('A' for Active; 'I' for Inactive)
REMARK    1  A    between atoms: C_1  and  C_2
REMARK    2  A    between atoms: C_3  and  C_8
REMARK    3  A    between atoms: C_4  and  C_7
REMARK    4  A    between atoms: C_8  and  N_9
REMARK    5  A    between atoms: N_9  and  C_10
REMARK    6  A    between atoms: N_9  and  C_11
REMARK    7  A    between atoms: C_11  and  C_12
REMARK    8  A    between atoms: C_21  and  O_22
REMARK                            x       y       z     vdW  Elec       q    Type
REMARK                         _______ _______ _______ _____ _____    ______ ____
ROOT
ATOM      1  C   UNL     1       2.781   0.232  -4.982  0.00  0.00    -0.015 A 
ATOM      2  C   UNL     1       3.502   1.436  -4.930  0.00  0.00    -0.013 A 
ATOM      3  C   UNL     1       2.929   2.607  -4.404  0.00  0.00    +0.010 A 
ATOM      4  C   UNL     1       3.657   3.756  -4.368  0.00  0.00    +0.016 A 
ATOM      5  C   UNL     1       4.966   3.792  -4.848  0.00  0.00    +0.018 A 
ATOM      6  C   UNL     1       5.553   2.677  -5.364  0.00  0.00    +0.023 A 
ATOM      7  C   UNL     1       4.833   1.472  -5.417  0.00  0.00    -0.016 A 
ATOM      8  C   UNL     1       5.408   0.302  -5.943  0.00  0.00    +0.012 A 
ATOM      9  C   UNL     1       4.684  -0.849  -5.979  0.00  0.00    +0.046 A 
ATOM     10  C   UNL     1       3.372  -0.888  -5.494  0.00  0.00    +0.119 A 
ATOM     11 BR   UNL     1       5.939   5.412  -4.780  0.00  0.00    -0.050 Br
ENDROOT
BRANCH  10  12
ATOM     12  O   UNL     1       2.675  -2.053  -5.539  0.00  0.00    -0.507 OA
ATOM     13  H   UNL     1       2.174  -2.181  -6.356  0.00  0.00    +0.292 HD
ENDBRANCH  10  12
BRANCH   1  14
ATOM     14  C   UNL     1       1.365   0.174  -4.469  0.00  0.00    -0.039 C 
BRANCH  14  15
ATOM     15  N   UNL     1       1.375  -0.174  -3.042  0.00  0.00    +0.383 N 
ATOM     16  C   UNL     1       2.021   0.903  -2.280  0.00  0.00    -0.095 C 
ATOM     17  H   UNL     1       1.887  -1.033  -2.909  0.00  0.00    -0.081 HD
BRANCH  15  18
ATOM     18  C   UNL     1      -0.005  -0.348  -2.571  0.00  0.00    -0.038 C 
BRANCH  18  21
ATOM     19  C   UNL     1      -0.018   1.503   0.010  0.00  0.00    +0.069 C 
ATOM     20  C   UNL     1       0.002  -0.004   0.002  0.00  0.00    +0.082 A 
ATOM     21  C   UNL     1       0.008  -0.824  -1.141  0.00  0.00    +0.001 A 
ATOM     22  C   UNL     1       0.027  -2.108  -0.735  0.00  0.00    +0.136 A 
ATOM     23  O   UNL     1       0.034  -2.119   0.606  0.00  0.00    -0.359 OA
ATOM     24  N   UNL     1       0.023  -0.775   1.052  0.00  0.00    -0.083 NA
ATOM     25  C   UNL     1       0.039  -3.320  -1.631  0.00  0.00    +0.089 C 
ENDBRANCH  18  21
ENDBRANCH  15  18
ENDBRANCH  14  15
ENDBRANCH   1  14
TORSDOF 5
