REMARK  Name = ZINC39552478
REMARK  2 active torsions:
REMARK  status: ('A' for Active; 'I' for Inactive)
REMARK    1  A    between atoms: N_9  and  C_12
REMARK    2  A    between atoms: C_12  and  C_13
REMARK                            x       y       z     vdW  Elec       q    Type
REMARK                         _______ _______ _______ _____ _____    ______ ____
ROOT
ATOM      1  C   UNL     1      -0.016   1.315   0.009  0.00  0.00    +0.131 A 
ATOM      2  C   UNL     1       1.170   2.036   0.002  0.00  0.00    +0.132 A 
ATOM      3  N   UNL     1       2.335   1.410  -0.021  0.00  0.00    -0.237 NA
ATOM      4  C   UNL     1       2.365   0.087  -0.035  0.00  0.00    +0.151 A 
ATOM      5  C   UNL     1       1.163  -0.643  -0.012  0.00  0.00    +0.165 A 
ATOM      6  N   UNL     1       0.002  -0.004   0.002  0.00  0.00    -0.246 NA
ATOM      7  C   UNL     1       1.234  -2.119   0.011  0.00  0.00    +0.270 C 
ATOM      8  O   UNL     1       0.227  -2.784  -0.129  0.00  0.00    -0.268 OA
ATOM      9  N   UNL     1       2.428  -2.720   0.189  0.00  0.00    -0.278 N 
ATOM     10  C   UNL     1       3.621  -1.946   0.533  0.00  0.00    +0.214 C 
ATOM     11  N   UNL     1       3.558  -0.614  -0.079  0.00  0.00    -0.312 N 
ATOM     12  H   UNL     1       4.340  -0.232  -0.508  0.00  0.00    +0.149 HD
ENDROOT
BRANCH   9  13
ATOM     13  C   UNL     1       2.532  -4.173   0.036  0.00  0.00    +0.142 C 
BRANCH  13  14
ATOM     14  C   UNL     1       2.862  -4.510  -1.420  0.00  0.00    +0.173 C 
ATOM     15  C   UNL     1       2.792  -5.996  -1.655  0.00  0.00    -0.019 C 
ATOM     16  C   UNL     1       1.844  -6.163  -2.566  0.00  0.00    +0.065 C 
ATOM     17  C   UNL     1       1.436  -7.518  -3.127  0.00  0.00    +0.057 C 
ATOM     18  C   UNL     1       2.650  -8.076  -3.883  0.00  0.00    +0.006 C 
ATOM     19  C   UNL     1       3.651  -8.691  -2.938  0.00  0.00    +0.001 C 
ATOM     20  C   UNL     1       4.464  -7.735  -2.097  0.00  0.00    +0.004 C 
ATOM     21  C   UNL     1       3.592  -7.101  -1.000  0.00  0.00    +0.035 C 
ATOM     22  N   UNL     1       1.315  -4.966  -2.911  0.00  0.00    -0.158 NA
ATOM     23  N   UNL     1       1.819  -3.993  -2.328  0.00  0.00    -0.178 NA
ENDBRANCH  13  14
ENDBRANCH   9  13
TORSDOF 2
