REMARK  Name = ZINC16021917
REMARK  7 active torsions:
REMARK  status: ('A' for Active; 'I' for Inactive)
REMARK    1  A    between atoms: C_1  and  C_2
REMARK    2  A    between atoms: C_2  and  C_3
REMARK    3  A    between atoms: C_3  and  C_5
REMARK    4  A    between atoms: C_3  and  N_6
REMARK    5  A    between atoms: C_26  and  C_28
REMARK    6  A    between atoms: C_28  and  C_29
REMARK    7  A    between atoms: C_28  and  C_30
REMARK                            x       y       z     vdW  Elec       q    Type
REMARK                         _______ _______ _______ _____ _____    ______ ____
ROOT
ATOM      1  N   UNL     1      -1.817  -0.748  -0.910  0.00  0.00    -0.239 N 
ATOM      2  C   UNL     1      -1.440  -0.967  -2.175  0.00  0.00    +0.224 C 
ATOM      3  O   UNL     1      -0.559  -1.724  -2.522  0.00  0.00    -0.275 OA
ATOM      4  C   UNL     1      -2.285  -0.125  -3.104  0.00  0.00    +0.073 C 
ATOM      5  C   UNL     1      -3.242   0.626  -2.137  0.00  0.00    +0.088 C 
ATOM      6  C   UNL     1      -2.821   0.126  -0.773  0.00  0.00    +0.225 C 
ATOM      7  O   UNL     1      -3.316   0.465   0.280  0.00  0.00    -0.275 OA
ATOM      8  C   UNL     1      -4.637   0.090  -2.483  0.00  0.00    +0.050 C 
ATOM      9  C   UNL     1      -5.505  -0.018  -1.262  0.00  0.00    -0.028 A 
ATOM     10  C   UNL     1      -5.393  -0.710  -0.077  0.00  0.00    +0.004 A 
ATOM     11  C   UNL     1      -6.383  -0.603   0.883  0.00  0.00    +0.000 A 
ATOM     12  C   UNL     1      -7.485   0.200   0.650  0.00  0.00    +0.002 A 
ATOM     13  C   UNL     1      -7.602   0.894  -0.536  0.00  0.00    +0.023 A 
ATOM     14  C   UNL     1      -6.610   0.793  -1.508  0.00  0.00    +0.036 A 
ATOM     15  N   UNL     1      -6.502   1.387  -2.767  0.00  0.00    -0.286 N 
ATOM     16  C   UNL     1      -5.372   1.026  -3.405  0.00  0.00    +0.211 C 
ATOM     17  O   UNL     1      -5.015   1.385  -4.507  0.00  0.00    -0.277 OA
ATOM     18  N   UNL     1      -4.420  -1.225  -3.113  0.00  0.00    +0.394 N 
ATOM     19  C   UNL     1      -3.191  -1.047  -3.947  0.00  0.00    -0.055 C 
ATOM     20  H   UNL     1      -7.164   1.990  -3.140  0.00  0.00    +0.155 HD
ATOM     21  H   UNL     1      -4.259  -1.931  -2.410  0.00  0.00    -0.083 HD
ATOM     22  H   UNL     1      -5.209  -1.474  -3.691  0.00  0.00    -0.083 HD
ENDROOT
BRANCH  19  23
ATOM     23  C   UNL     1      -2.492  -2.382  -4.213  0.00  0.00    -0.031 C 
ATOM     24  C   UNL     1      -3.459  -3.331  -4.922  0.00  0.00    +0.005 C 
ATOM     25  C   UNL     1      -1.265  -2.148  -5.097  0.00  0.00    +0.005 C 
ENDBRANCH  19  23
BRANCH   1  26
ATOM     26  C   UNL     1      -1.186  -1.414   0.231  0.00  0.00    +0.081 C 
ATOM     27  C   UNL     1      -1.347  -2.929   0.090  0.00  0.00    +0.028 C 
BRANCH  26  29
ATOM     28  C   UNL     1       0.464   0.438   0.534  0.00  0.00    +0.006 C 
ATOM     29  C   UNL     1       0.302  -1.060   0.269  0.00  0.00    +0.019 C 
ENDBRANCH  26  29
ENDBRANCH   1  26
TORSDOF 3
