REMARK  Name = ZINC05016326
REMARK  6 active torsions:
REMARK  status: ('A' for Active; 'I' for Inactive)
REMARK    1  A    between atoms: C_1  and  C_2
REMARK    2  A    between atoms: C_2  and  C_3
REMARK    3  A    between atoms: C_2  and  C_4
REMARK    4  A    between atoms: C_4  and  N_5
REMARK    5  A    between atoms: C_9  and  N_13
REMARK    6  A    between atoms: N_13  and  C_14
REMARK                            x       y       z     vdW  Elec       q    Type
REMARK                         _______ _______ _______ _____ _____    ______ ____
ROOT
ATOM      1  N   UNL     1      -1.416  -1.993  -0.116  0.00  0.00    -0.240 N 
ATOM      2  C   UNL     1      -1.447  -2.616  -1.300  0.00  0.00    +0.224 C 
ATOM      3  O   UNL     1      -1.491  -2.069  -2.381  0.00  0.00    -0.275 OA
ATOM      4  C   UNL     1      -1.418  -4.112  -1.076  0.00  0.00    +0.128 C 
ATOM      5  C   UNL     1      -1.364  -4.247   0.460  0.00  0.00    +0.166 C 
ATOM      6  C   UNL     1      -1.363  -2.813   0.942  0.00  0.00    +0.243 C 
ATOM      7  O   UNL     1      -1.324  -2.461   2.101  0.00  0.00    -0.273 OA
ENDROOT
BRANCH   5   8
ATOM      8  N   UNL     1      -2.541  -4.965   0.956  0.00  0.00    -0.332 N 
ATOM      9  H   UNL     1      -3.363  -4.964   0.440  0.00  0.00    +0.147 HD
BRANCH   8  10
ATOM     10  C   UNL     1      -2.480  -5.652   2.173  0.00  0.00    +0.031 A 
ATOM     11  C   UNL     1      -1.306  -5.648   2.914  0.00  0.00    +0.027 A 
ATOM     12  C   UNL     1      -1.244  -6.326   4.117  0.00  0.00    +0.051 A 
ATOM     13  C   UNL     1      -2.353  -7.010   4.587  0.00  0.00    +0.166 A 
ATOM     14  C   UNL     1      -3.533  -7.015   3.846  0.00  0.00    +0.168 A 
ATOM     15  C   UNL     1      -3.595  -6.332   2.643  0.00  0.00    +0.072 A 
ATOM     16  O   UNL     1      -4.466  -7.752   4.517  0.00  0.00    -0.453 OA
ATOM     17  C   UNL     1      -3.725  -8.535   5.471  0.00  0.00    +0.466 C 
ATOM     18  O   UNL     1      -2.549  -7.745   5.723  0.00  0.00    -0.453 OA
ENDBRANCH   8  10
ENDBRANCH   5   8
BRANCH   1  19
ATOM     19  C   UNL     1      -1.433  -0.534   0.013  0.00  0.00    +0.119 C 
BRANCH  19  21
ATOM     20  C   UNL     1      -0.019   1.526   0.010  0.00  0.00    +0.009 C 
ATOM     21  C   UNL     1       0.002  -0.004   0.002  0.00  0.00    +0.001 C 
ATOM     22  C   UNL     1       0.742  -0.511   1.242  0.00  0.00    +0.009 C 
ENDBRANCH  19  21
ENDBRANCH   1  19
TORSDOF 4
