REMARK  Name = ZINC36685979
REMARK  6 active torsions:
REMARK  status: ('A' for Active; 'I' for Inactive)
REMARK    1  A    between atoms: C_1  and  C_2
REMARK    2  A    between atoms: C_3  and  C_25
REMARK    3  A    between atoms: C_5  and  N_9
REMARK    4  A    between atoms: C_6  and  C_7
REMARK    5  A    between atoms: C_10  and  C_12
REMARK    6  A    between atoms: C_14  and  C_24
REMARK                            x       y       z     vdW  Elec       q    Type
REMARK                         _______ _______ _______ _____ _____    ______ ____
ROOT
ATOM      1  N   UNL     1       0.194  -3.125   2.128  0.00  0.00    -0.276 N 
ATOM      2  C   UNL     1       0.142  -4.432   1.805  0.00  0.00    +0.262 C 
ATOM      3  O   UNL     1       0.026  -4.766   0.645  0.00  0.00    -0.271 OA
ATOM      4  H   UNL     1       0.214  -2.856   3.060  0.00  0.00    +0.155 HD
ENDROOT
BRANCH   2   5
ATOM      5  C   UNL     1       0.229  -5.479   2.886  0.00  0.00    +0.299 C 
ATOM      6  C   UNL     1      -1.088  -5.522   3.672  0.00  0.00    +0.220 C 
ATOM      7  O   UNL     1      -0.977  -6.534   4.678  0.00  0.00    -0.481 OA
ATOM      8  C   UNL     1      -0.466  -7.733   4.286  0.00  0.00    +0.163 A 
ATOM      9  C   UNL     1      -0.660  -8.850   5.085  0.00  0.00    +0.049 A 
ATOM     10  C   UNL     1      -0.144 -10.073   4.702  0.00  0.00    +0.004 A 
ATOM     11  C   UNL     1       0.568 -10.187   3.522  0.00  0.00    +0.004 A 
ATOM     12  C   UNL     1       0.763  -9.078   2.721  0.00  0.00    +0.049 A 
ATOM     13  C   UNL     1       0.245  -7.848   3.098  0.00  0.00    +0.163 A 
ATOM     14  O   UNL     1       0.441  -6.766   2.295  0.00  0.00    -0.472 OA
ATOM     15  C   UNL     1      -1.340  -4.164   4.330  0.00  0.00    +0.056 C 
ENDBRANCH   2   5
BRANCH   1  20
ATOM     16  C   UNL     1       0.340   1.498   0.066  0.00  0.00    +0.046 C 
ATOM     17  C   UNL     1       0.284  -0.008   0.054  0.00  0.00    -0.021 A 
ATOM     18  C   UNL     1       0.245  -0.714  -1.093  0.00  0.00    -0.007 A 
ATOM     19  S   UNL     1       0.190  -2.401  -0.532  0.00  0.00    -0.077 S 
ATOM     20  C   UNL     1       0.218  -2.163   1.128  0.00  0.00    +0.090 A 
ATOM     21  C   UNL     1       0.276  -0.785   1.272  0.00  0.00    +0.083 A 
ATOM     22  C   UNL     1       0.248  -0.198  -2.508  0.00  0.00    +0.052 C 
BRANCH  21  23
ATOM     23  C   UNL     1       0.319  -0.164   2.561  0.00  0.00    +0.102 C 
ATOM     24  N   UNL     1       0.353   0.328   3.584  0.00  0.00    -0.191 NA
ENDBRANCH  21  23
ENDBRANCH   1  20
TORSDOF 3
