REMARK  Name = ZINC09477665
REMARK  8 active torsions:
REMARK  status: ('A' for Active; 'I' for Inactive)
REMARK    1  A    between atoms: C_1  and  C_2
REMARK    2  A    between atoms: C_2  and  C_3
REMARK    3  A    between atoms: C_3  and  C_5
REMARK    4  A    between atoms: C_3  and  C_6
REMARK    5  A    between atoms: C_9  and  N_12
REMARK    6  A    between atoms: C_16  and  C_17
REMARK    7  A    between atoms: N_19  and  C_26
REMARK    8  A    between atoms: C_26  and  C_27
REMARK                            x       y       z     vdW  Elec       q    Type
REMARK                         _______ _______ _______ _____ _____    ______ ____
ROOT
ATOM      1  N   UNL     1      -0.712  -6.150  -0.833  0.00  0.00    -0.190 N 
ATOM      2  C   UNL     1       0.166  -6.882  -0.115  0.00  0.00    +0.263 C 
ATOM      3  O   UNL     1       0.542  -6.508   0.980  0.00  0.00    -0.269 OA
ATOM      4  C   UNL     1       0.657  -8.144  -0.694  0.00  0.00    +0.100 C 
ATOM      5  C   UNL     1       1.561  -8.950  -0.014  0.00  0.00    +0.028 C 
ATOM      6  C   UNL     1       0.147  -8.515  -2.025  0.00  0.00    +0.257 C 
ATOM      7  O   UNL     1       0.507  -9.544  -2.567  0.00  0.00    -0.270 OA
ATOM      8  N   UNL     1      -0.729  -7.685  -2.627  0.00  0.00    -0.235 N 
ATOM      9  C   UNL     1      -1.138  -6.552  -2.038  0.00  0.00    +0.320 C 
ATOM     10  O   UNL     1      -1.933  -5.850  -2.631  0.00  0.00    -0.251 OA
ATOM     11  H   UNL     1      -1.075  -7.915  -3.504  0.00  0.00    +0.159 HD
ENDROOT
BRANCH   5  12
ATOM     12  C   UNL     1       2.179  -8.478   1.162  0.00  0.00    +0.001 A 
ATOM     13  C   UNL     1       2.727  -7.224   1.369  0.00  0.00    +0.095 A 
ATOM     14  N   UNL     1       3.221  -7.148   2.618  0.00  0.00    -0.342 N 
ATOM     15  C   UNL     1       3.035  -8.340   3.291  0.00  0.00    +0.050 A 
ATOM     16  C   UNL     1       2.379  -9.225   2.421  0.00  0.00    +0.007 A 
ATOM     17  C   UNL     1       2.062 -10.512   2.842  0.00  0.00    +0.010 A 
ATOM     18  C   UNL     1       2.394 -10.915   4.118  0.00  0.00    +0.001 A 
ATOM     19  C   UNL     1       3.042 -10.043   4.979  0.00  0.00    +0.002 A 
ATOM     20  C   UNL     1       3.362  -8.765   4.574  0.00  0.00    +0.026 A 
BRANCH  14  21
ATOM     21  C   UNL     1       3.873  -5.965   3.185  0.00  0.00    +0.157 C 
BRANCH  21  22
ATOM     22  C   UNL     1       5.369  -6.125   3.095  0.00  0.00    -0.020 A 
ATOM     23  C   UNL     1       6.069  -6.625   4.150  0.00  0.00    +0.006 A 
ATOM     24  C   UNL     1       7.452  -6.780   4.085  0.00  0.00    +0.001 A 
ATOM     25  C   UNL     1       8.144  -6.437   2.964  0.00  0.00    +0.008 A 
ATOM     26  C   UNL     1       7.456  -5.918   1.855  0.00  0.00    -0.018 A 
ATOM     27  C   UNL     1       6.048  -5.765   1.919  0.00  0.00    -0.013 A 
ATOM     28  C   UNL     1       5.360  -5.251   0.806  0.00  0.00    +0.009 A 
ATOM     29  C   UNL     1       6.051  -4.913  -0.316  0.00  0.00    +0.001 A 
ATOM     30  C   UNL     1       7.434  -5.068  -0.381  0.00  0.00    +0.001 A 
ATOM     31  C   UNL     1       8.136  -5.552   0.680  0.00  0.00    +0.008 A 
ENDBRANCH  21  22
ENDBRANCH  14  21
ENDBRANCH   5  12
BRANCH   1  35
ATOM     32  C   UNL     1      -2.144  -2.567   0.743  0.00  0.00    -0.044 A 
ATOM     33  C   UNL     1      -2.481  -3.767   1.341  0.00  0.00    +0.006 A 
ATOM     34  C   UNL     1      -2.012  -4.956   0.818  0.00  0.00    +0.024 A 
ATOM     35  C   UNL     1      -1.193  -4.945  -0.303  0.00  0.00    +0.046 A 
ATOM     36  C   UNL     1      -0.852  -3.738  -0.898  0.00  0.00    +0.024 A 
ATOM     37  C   UNL     1      -1.328  -2.553  -0.374  0.00  0.00    +0.006 A 
BRANCH  32  38
ATOM     38  C   UNL     1      -2.661  -1.271   1.312  0.00  0.00    +0.016 C 
ATOM     39  C   UNL     1      -2.178  -1.120   2.756  0.00  0.00    +0.012 C 
BRANCH  38  41
ATOM     40  C   UNL     1      -4.714   0.085   1.746  0.00  0.00    +0.004 C 
ATOM     41  C   UNL     1      -4.191  -1.277   1.284  0.00  0.00    +0.004 C 
ENDBRANCH  38  41
ENDBRANCH  32  38
ENDBRANCH   1  35
TORSDOF 6
