REMARK  Name = ZINC05607195
REMARK  5 active torsions:
REMARK  status: ('A' for Active; 'I' for Inactive)
REMARK    1  A    between atoms: C_1  and  C_2
REMARK    2  A    between atoms: N_13  and  C_16
REMARK    3  A    between atoms: C_16  and  C_17
REMARK    4  A    between atoms: N_19  and  N_20
REMARK    5  A    between atoms: N_20  and  C_21
REMARK                            x       y       z     vdW  Elec       q    Type
REMARK                         _______ _______ _______ _____ _____    ______ ____
ROOT
ATOM      1  C   UNL     1      -0.019   1.526   0.010  0.00  0.00    +0.008 C 
ATOM      2  C   UNL     1       0.002  -0.004   0.002  0.00  0.00    -0.009 C 
ATOM      3  C   UNL     1      -1.433  -0.537   0.021  0.00  0.00    +0.008 C 
ATOM      4  C   UNL     1      -1.431  -2.044  -0.238  0.00  0.00    +0.037 C 
ATOM      5  C   UNL     1      -0.472  -2.713   0.743  0.00  0.00    -0.023 A 
ATOM      6  C   UNL     1       0.476  -1.985   1.382  0.00  0.00    -0.004 A 
ATOM      7  S   UNL     1       1.343  -3.150   2.404  0.00  0.00    -0.071 S 
ATOM      8  C   UNL     1       0.435  -4.602   1.974  0.00  0.00    +0.138 A 
ATOM      9  C   UNL     1      -0.517  -4.131   1.045  0.00  0.00    +0.079 A 
ATOM     10  C   UNL     1      -1.431  -5.094   0.493  0.00  0.00    +0.279 A 
ATOM     11  O   UNL     1      -2.288  -4.786  -0.316  0.00  0.00    -0.265 OA
ATOM     12  N   UNL     1      -1.276  -6.366   0.932  0.00  0.00    -0.201 N 
ATOM     13  N   UNL     1      -0.296  -6.725   1.858  0.00  0.00    -0.061 NA
ATOM     14  N   UNL     1       0.537  -5.868   2.365  0.00  0.00    -0.123 NA
ATOM     15  C   UNL     1       0.737  -0.516   1.249  0.00  0.00    +0.046 C 
ENDROOT
BRANCH  12  16
ATOM     16  C   UNL     1      -2.171  -7.404   0.415  0.00  0.00    +0.246 C 
BRANCH  16  17
ATOM     17  C   UNL     1      -1.568  -8.016  -0.824  0.00  0.00    +0.251 C 
ATOM     18  O   UNL     1      -0.497  -7.623  -1.235  0.00  0.00    -0.272 OA
ATOM     19  N   UNL     1      -2.220  -8.999  -1.476  0.00  0.00    -0.235 N 
ATOM     20  H   UNL     1      -3.077  -9.313  -1.147  0.00  0.00    +0.173 HD
BRANCH  19  21
ATOM     21  N   UNL     1      -1.660  -9.567  -2.627  0.00  0.00    -0.271 N 
ATOM     22  H   UNL     1      -0.803  -9.253  -2.956  0.00  0.00    +0.169 HD
BRANCH  21  23
ATOM     23  C   UNL     1      -2.308 -10.545  -3.276  0.00  0.00    +0.095 C 
ATOM     24  C   UNL     1      -1.749 -11.113  -4.426  0.00  0.00    -0.010 C 
ATOM     25  C   UNL     1      -0.498 -10.660  -4.902  0.00  0.00    +0.013 C 
ATOM     26  C   UNL     1       0.043 -11.212  -6.017  0.00  0.00    +0.051 C 
ATOM     27  C   UNL     1      -0.642 -12.236  -6.701  0.00  0.00    +0.179 C 
ATOM     28  O   UNL     1      -0.153 -12.732  -7.707  0.00  0.00    -0.288 OA
ATOM     29  C   UNL     1      -1.889 -12.689  -6.228  0.00  0.00    +0.051 C 
ATOM     30  C   UNL     1      -2.431 -12.143  -5.110  0.00  0.00    +0.013 C 
ENDBRANCH  21  23
ENDBRANCH  19  21
ENDBRANCH  16  17
ENDBRANCH  12  16
TORSDOF 4
