REMARK  Name = ZINC20141761
REMARK  6 active torsions:
REMARK  status: ('A' for Active; 'I' for Inactive)
REMARK    1  A    between atoms: C_1  and  C_2
REMARK    2  A    between atoms: C_2  and  C_3
REMARK    3  A    between atoms: C_3  and  C_5
REMARK    4  A    between atoms: C_3  and  N_16
REMARK    5  A    between atoms: N_9  and  C_10
REMARK    6  A    between atoms: C_10  and  C_11
REMARK                            x       y       z     vdW  Elec       q    Type
REMARK                         _______ _______ _______ _____ _____    ______ ____
ROOT
ATOM      1  N   UNL     1       2.022  -0.122  -1.168  0.00  0.00    -0.290 NA
ATOM      2  C   UNL     1       2.185   1.333  -1.052  0.00  0.00    +0.104 C 
ATOM      3  C   UNL     1       3.665   1.661  -0.825  0.00  0.00    +0.122 C 
ATOM      4  N   UNL     1       4.453   1.030  -1.895  0.00  0.00    -0.307 N 
ATOM      5  C   UNL     1       4.242  -0.401  -2.162  0.00  0.00    +0.122 C 
ATOM      6  C   UNL     1       2.740  -0.648  -2.336  0.00  0.00    +0.104 C 
ATOM      7  C   UNL     1       5.365   1.760  -2.628  0.00  0.00    +0.162 A 
ATOM      8  N   UNL     1       5.680   3.031  -2.521  0.00  0.00    -0.225 NA
ATOM      9  C   UNL     1       6.601   3.620  -3.315  0.00  0.00    +0.080 A 
ATOM     10  C   UNL     1       7.029   4.967  -3.304  0.00  0.00    +0.029 A 
ATOM     11  C   UNL     1       7.983   5.406  -4.185  0.00  0.00    +0.002 A 
ATOM     12  C   UNL     1       8.559   4.552  -5.114  0.00  0.00    +0.001 A 
ATOM     13  C   UNL     1       8.164   3.228  -5.152  0.00  0.00    +0.017 A 
ATOM     14  C   UNL     1       7.210   2.779  -4.274  0.00  0.00    +0.041 A 
ATOM     15  S   UNL     1       6.424   1.217  -3.961  0.00  0.00    -0.052 S 
ENDROOT
BRANCH   1  16
ATOM     16  C   UNL     1       0.600  -0.490  -1.214  0.00  0.00    +0.126 C 
BRANCH  16  17
ATOM     17  C   UNL     1      -0.023   0.068  -2.467  0.00  0.00    +0.169 A 
ATOM     18  N   UNL     1       0.471   0.009  -3.680  0.00  0.00    -0.112 NA
ATOM     19  N   UNL     1      -0.354   0.598  -4.475  0.00  0.00    -0.023 NA
ATOM     20  N   UNL     1      -1.362   1.031  -3.801  0.00  0.00    -0.044 NA
ATOM     21  N   UNL     1      -1.197   0.719  -2.560  0.00  0.00    -0.223 N 
BRANCH  21  22
ATOM     22  C   UNL     1      -2.114   1.020  -1.458  0.00  0.00    +0.189 C 
BRANCH  22  23
ATOM     23  C   UNL     1      -1.762   2.359  -0.862  0.00  0.00    +0.011 A 
ATOM     24  C   UNL     1      -2.221   3.590  -1.196  0.00  0.00    +0.013 A 
ATOM     25  C   UNL     1      -1.752   4.691  -0.504  0.00  0.00    +0.008 A 
ATOM     26  C   UNL     1      -0.847   4.507   0.488  0.00  0.00    +0.045 A 
ATOM     27  S   UNL     1      -0.635   2.734   0.471  0.00  0.00    -0.100 S 
ENDBRANCH  22  23
ENDBRANCH  21  22
ENDBRANCH  16  17
BRANCH  16  29
ATOM     28  C   UNL     1       1.028  -2.575   0.095  0.00  0.00    +0.006 C 
ATOM     29  C   UNL     1       0.468  -2.014  -1.214  0.00  0.00    +0.023 C 
ENDBRANCH  16  29
ENDBRANCH   1  16
TORSDOF 5
