REMARK  Name = ZINC19863657
REMARK  7 active torsions:
REMARK  status: ('A' for Active; 'I' for Inactive)
REMARK    1  A    between atoms: C_4  and  C_7
REMARK    2  A    between atoms: C_7  and  C_9
REMARK    3  A    between atoms: C_11  and  C_23
REMARK    4  A    between atoms: C_17  and  C_18
REMARK    5  A    between atoms: C_17  and  O_22
REMARK    6  A    between atoms: C_25  and  N_30
REMARK    7  A    between atoms: C_28  and  O_29
REMARK                            x       y       z     vdW  Elec       q    Type
REMARK                         _______ _______ _______ _____ _____    ______ ____
ROOT
ATOM      1  C   UNL     1      -2.787   5.962  -1.496  0.00  0.00    +0.144 C 
ATOM      2  C   UNL     1      -2.594   5.513  -0.044  0.00  0.00    +0.124 C 
ATOM      3  N   UNL     1      -1.326   6.044   0.460  0.00  0.00    -0.292 N 
ATOM      4  C   UNL     1      -0.292   6.276  -0.364  0.00  0.00    +0.302 C 
ATOM      5  O   UNL     1       0.743   6.707   0.106  0.00  0.00    -0.253 OA
ATOM      6  N   UNL     1      -0.354   6.051  -1.685  0.00  0.00    -0.264 N 
ATOM      7  C   UNL     1      -1.566   5.520  -2.311  0.00  0.00    +0.243 C 
ATOM      8  H   UNL     1      -1.208   6.261   1.532  0.00  0.00    +0.151 HD
ATOM      9  H   UNL     1       0.530   6.273  -2.301  0.00  0.00    +0.153 HD
ENDROOT
BRANCH   2  10
ATOM     10  C   UNL     1      -2.569   4.007   0.018  0.00  0.00    +0.017 A 
ATOM     11  C   UNL     1      -1.363   3.338   0.103  0.00  0.00    +0.041 A 
ATOM     12  C   UNL     1      -1.340   1.957   0.154  0.00  0.00    +0.127 A 
ATOM     13  C   UNL     1      -2.523   1.242   0.131  0.00  0.00    +0.036 A 
ATOM     14  C   UNL     1      -3.731   1.906   0.052  0.00  0.00    +0.048 A 
ATOM     15  C   UNL     1      -3.757   3.292  -0.005  0.00  0.00    +0.122 A 
BRANCH  12  16
ATOM     16  N   UNL     1      -0.046   1.243   0.239  0.00  0.00    +0.056 N 
ATOM     17  O   UNL     1      -0.024   0.026   0.289  0.00  0.00    -0.126 OA
ATOM     18  O   UNL     1       0.997   1.872   0.255  0.00  0.00    -0.126 OA
ENDBRANCH  12  16
BRANCH  15  19
ATOM     19  O   UNL     1      -4.945   3.948  -0.084  0.00  0.00    -0.506 OA
ATOM     20  H   UNL     1      -5.887   3.380  -0.102  0.00  0.00    +0.292 HD
ENDBRANCH  15  19
ENDBRANCH   2  10
BRANCH   7  21
ATOM     21  C   UNL     1      -1.682   6.057  -3.739  0.00  0.00    +0.436 C 
ATOM     22  F   UNL     1      -1.609   7.454  -3.719  0.00  0.00    -0.166 F 
ATOM     23  F   UNL     1      -0.637   5.546  -4.515  0.00  0.00    -0.166 F 
ATOM     24  F   UNL     1      -2.907   5.662  -4.287  0.00  0.00    -0.166 F 
ENDBRANCH   7  21
BRANCH   1  25
ATOM     25  C   UNL     1      -2.918   7.463  -1.549  0.00  0.00    +0.173 C 
ATOM     26  O   UNL     1      -2.055   8.164  -1.065  0.00  0.00    -0.292 OA
BRANCH  25  30
ATOM     27  C   UNL     1      -6.306   9.232  -3.388  0.00  0.00    +0.000 A 
ATOM     28  C   UNL     1      -5.273  10.033  -2.933  0.00  0.00    +0.001 A 
ATOM     29  C   UNL     1      -4.168   9.465  -2.334  0.00  0.00    +0.011 A 
ATOM     30  C   UNL     1      -4.094   8.076  -2.187  0.00  0.00    +0.018 A 
ATOM     31  C   UNL     1      -5.140   7.274  -2.653  0.00  0.00    +0.011 A 
ATOM     32  C   UNL     1      -6.240   7.857  -3.245  0.00  0.00    +0.001 A 
ENDBRANCH  25  30
ENDBRANCH   1  25
BRANCH   7  33
ATOM     33  O   UNL     1      -1.504   4.093  -2.341  0.00  0.00    -0.364 OA
ATOM     34  H   UNL     1      -0.690   3.589  -2.882  0.00  0.00    +0.212 HD
ENDBRANCH   7  33
TORSDOF 7
