REMARK  Name = ZINC20356344
REMARK  5 active torsions:
REMARK  status: ('A' for Active; 'I' for Inactive)
REMARK    1  A    between atoms: C_4  and  N_32
REMARK    2  A    between atoms: C_5  and  C_7
REMARK    3  A    between atoms: C_7  and  O_8
REMARK    4  A    between atoms: O_8  and  C_9
REMARK    5  A    between atoms: C_12  and  C_15
REMARK                            x       y       z     vdW  Elec       q    Type
REMARK                         _______ _______ _______ _____ _____    ______ ____
ROOT
ATOM      1  C   UNL     1      -0.800  -8.339  -0.218  0.00  0.00    +0.024 C 
ATOM      2  C   UNL     1      -2.071  -8.825  -0.010  0.00  0.00    +0.081 C 
ATOM      3  C   UNL     1      -3.252  -7.921   0.086  0.00  0.00    +0.153 C 
ATOM      4  N   UNL     1      -3.356  -6.803  -0.583  0.00  0.00    -0.283 NA
ATOM      5  N   UNL     1      -4.247  -8.391   0.968  0.00  0.00    -0.150 N 
ATOM      6  C   UNL     1      -4.283  -9.743   1.225  0.00  0.00    +0.182 C 
ATOM      7  N   UNL     1      -3.434 -10.655   0.821  0.00  0.00    -0.152 NA
ATOM      8  C   UNL     1      -2.341 -10.278   0.126  0.00  0.00    +0.273 C 
ATOM      9  O   UNL     1      -1.594 -11.105  -0.372  0.00  0.00    -0.268 OA
ATOM     10  S   UNL     1      -5.731  -9.894   2.237  0.00  0.00    -0.018 S 
ATOM     11  C   UNL     1      -6.133  -8.155   2.334  0.00  0.00    +0.182 C 
ATOM     12  N   UNL     1      -5.201  -7.614   1.591  0.00  0.00    -0.149 NA
ATOM     13  N   UNL     1      -7.166  -7.538   3.021  0.00  0.00    -0.308 N 
ATOM     14  C   UNL     1      -7.435  -6.093   3.046  0.00  0.00    +0.107 C 
ATOM     15  C   UNL     1      -8.662  -5.871   3.956  0.00  0.00    +0.020 C 
ATOM     16  C   UNL     1      -8.671  -7.143   4.843  0.00  0.00    +0.020 C 
ATOM     17  C   UNL     1      -8.181  -8.222   3.842  0.00  0.00    +0.107 C 
ATOM     18  H   UNL     1      -4.147  -6.251  -0.485  0.00  0.00    +0.188 HD
ENDROOT
BRANCH   1  22
ATOM     19  C   UNL     1      -0.080  -4.176  -0.078  0.00  0.00    +0.121 A 
ATOM     20  C   UNL     1      -1.057  -4.737   0.738  0.00  0.00    +0.046 A 
ATOM     21  C   UNL     1      -1.294  -6.082   0.697  0.00  0.00    +0.011 A 
ATOM     22  C   UNL     1      -0.551  -6.897  -0.170  0.00  0.00    -0.024 A 
ATOM     23  C   UNL     1       0.432  -6.324  -0.990  0.00  0.00    +0.011 A 
ATOM     24  C   UNL     1       0.657  -4.978  -0.943  0.00  0.00    +0.046 A 
BRANCH  19  25
ATOM     25  O   UNL     1       0.151  -2.840  -0.033  0.00  0.00    -0.487 OA
BRANCH  25  26
ATOM     26  C   UNL     1      -0.641  -2.074   0.878  0.00  0.00    +0.266 C 
BRANCH  26  31
ATOM     27  C   UNL     1       1.114   1.102  -0.164  0.00  0.00    +0.001 A 
ATOM     28  C   UNL     1       0.479   2.040   0.629  0.00  0.00    +0.002 A 
ATOM     29  C   UNL     1      -0.517   1.647   1.502  0.00  0.00    +0.033 A 
ATOM     30  C   UNL     1      -0.879   0.315   1.583  0.00  0.00    +0.133 A 
ATOM     31  C   UNL     1      -0.246  -0.623   0.789  0.00  0.00    +0.020 A 
ATOM     32  C   UNL     1       0.752  -0.229  -0.084  0.00  0.00    +0.009 A 
BRANCH  30  33
ATOM     33  N   UNL     1      -1.946  -0.106   2.519  0.00  0.00    +0.057 N 
ATOM     34  O   UNL     1      -2.499   0.714   3.213  0.00  0.00    -0.126 OA
ATOM     35  O   UNL     1      -2.263  -1.271   2.589  0.00  0.00    -0.126 OA
ENDBRANCH  30  33
ENDBRANCH  26  31
ENDBRANCH  25  26
ENDBRANCH  19  25
ENDBRANCH   1  22
TORSDOF 5
