REMARK  Name = ZINC00837490
REMARK  8 active torsions:
REMARK  status: ('A' for Active; 'I' for Inactive)
REMARK    1  A    between atoms: C_1  and  C_2
REMARK    2  A    between atoms: C_8  and  C_34
REMARK    3  A    between atoms: C_9  and  C_28
REMARK    4  A    between atoms: N_10  and  C_11
REMARK    5  A    between atoms: C_11  and  C_12
REMARK    6  A    between atoms: C_12  and  C_14
REMARK    7  A    between atoms: C_12  and  O_27
REMARK    8  A    between atoms: C_14  and  N_15
REMARK                            x       y       z     vdW  Elec       q    Type
REMARK                         _______ _______ _______ _____ _____    ______ ____
ROOT
ATOM      1  C   UNL     1       1.445   6.642  -5.042  0.00  0.00    +0.044 C 
ATOM      2  C   UNL     1       1.415   5.348  -4.271  0.00  0.00    -0.050 A 
ATOM      3  C   UNL     1       2.018   5.275  -3.023  0.00  0.00    +0.005 A 
ATOM      4  C   UNL     1       2.002   4.101  -2.302  0.00  0.00    +0.027 A 
ATOM      5  C   UNL     1       1.376   2.974  -2.827  0.00  0.00    +0.050 A 
ATOM      6  C   UNL     1       0.767   3.054  -4.092  0.00  0.00    +0.008 A 
ATOM      7  C   UNL     1       0.795   4.253  -4.806  0.00  0.00    +0.014 A 
ATOM      8  C   UNL     1       0.203   1.724  -4.364  0.00  0.00    +0.015 A 
ATOM      9  C   UNL     1       0.505   0.940  -3.270  0.00  0.00    +0.058 A 
ATOM     10  N   UNL     1       1.200   1.692  -2.354  0.00  0.00    -0.337 N 
ENDROOT
BRANCH   9  11
ATOM     11  C   UNL     1       0.137  -0.481  -3.109  0.00  0.00    -0.001 A 
ATOM     12  C   UNL     1       1.125  -1.438  -2.866  0.00  0.00    +0.010 A 
ATOM     13  C   UNL     1       0.774  -2.762  -2.710  0.00  0.00    +0.001 A 
ATOM     14  C   UNL     1      -0.552  -3.146  -2.805  0.00  0.00    +0.000 A 
ATOM     15  C   UNL     1      -1.536  -2.204  -3.052  0.00  0.00    +0.001 A 
ATOM     16  C   UNL     1      -1.199  -0.875  -3.204  0.00  0.00    +0.010 A 
ENDBRANCH   9  11
BRANCH   8  17
ATOM     17  C   UNL     1      -0.539   1.307  -5.575  0.00  0.00    -0.015 A 
ATOM     18  C   UNL     1      -1.910   1.057  -5.505  0.00  0.00    +0.008 A 
ATOM     19  C   UNL     1      -2.596   0.674  -6.639  0.00  0.00    +0.001 A 
ATOM     20  C   UNL     1      -1.926   0.527  -7.840  0.00  0.00    +0.000 A 
ATOM     21  C   UNL     1      -0.566   0.769  -7.915  0.00  0.00    +0.001 A 
ATOM     22  C   UNL     1       0.131   1.158  -6.790  0.00  0.00    +0.008 A 
ENDBRANCH   8  17
BRANCH  10  23
ATOM     23  C   UNL     1       1.690   1.199  -1.064  0.00  0.00    +0.155 C 
BRANCH  23  24
ATOM     24  C   UNL     1       0.621   1.426   0.007  0.00  0.00    +0.153 C 
BRANCH  24  25
ATOM     25  O   UNL     1      -0.528   0.630  -0.290  0.00  0.00    -0.388 OA
ATOM     26  H   UNL     1      -0.351  -0.320  -0.320  0.00  0.00    +0.210 HD
ENDBRANCH  24  25
BRANCH  24  27
ATOM     27  C   UNL     1       1.178   1.027   1.375  0.00  0.00    +0.168 C 
BRANCH  27  28
ATOM     28  N   UNL     1       0.155   1.245   2.401  0.00  0.00    -0.165 N 
ATOM     29  C   UNL     1      -0.112   2.387   3.053  0.00  0.00    +0.268 C 
ATOM     30  O   UNL     1       0.522   3.398   2.824  0.00  0.00    -0.268 OA
ATOM     31  C   UNL     1      -1.193   2.381   4.047  0.00  0.00    +0.065 A 
ATOM     32  C   UNL     1      -1.679   3.421   4.859  0.00  0.00    +0.015 A 
ATOM     33  C   UNL     1      -2.712   3.191   5.738  0.00  0.00    +0.001 A 
ATOM     34  C   UNL     1      -3.293   1.939   5.842  0.00  0.00    +0.002 A 
ATOM     35  C   UNL     1      -2.825   0.901   5.050  0.00  0.00    +0.029 A 
ATOM     36  C   UNL     1      -1.800   1.125   4.175  0.00  0.00    +0.121 A 
ATOM     37  S   UNL     1      -0.922   0.119   3.011  0.00  0.00    +0.078 S 
ATOM     38  O   UNL     1      -1.826  -0.223   1.969  0.00  0.00    -0.150 OA
ATOM     39  O   UNL     1      -0.175  -0.841   3.745  0.00  0.00    -0.150 OA
ENDBRANCH  27  28
ENDBRANCH  24  27
ENDBRANCH  23  24
ENDBRANCH  10  23
TORSDOF 7
