REMARK  Name = ZINC39953040
REMARK  4 active torsions:
REMARK  status: ('A' for Active; 'I' for Inactive)
REMARK    1  A    between atoms: C_1  and  O_2
REMARK    2  A    between atoms: O_2  and  C_3
REMARK    3  A    between atoms: C_7  and  N_9
REMARK    4  A    between atoms: C_13  and  C_14
REMARK                            x       y       z     vdW  Elec       q    Type
REMARK                         _______ _______ _______ _____ _____    ______ ____
ROOT
ATOM      1  N   UNL     1      -2.542  -4.066   0.016  0.00  0.00    -0.196 N 
ATOM      2  C   UNL     1      -3.718  -4.663   0.120  0.00  0.00    +0.264 C 
ATOM      3  O   UNL     1      -4.752  -4.030   0.217  0.00  0.00    -0.269 OA
ATOM      4  C   UNL     1      -3.708  -6.147   0.112  0.00  0.00    +0.077 C 
ATOM      5  C   UNL     1      -4.729  -7.008   0.200  0.00  0.00    +0.010 C 
ATOM      6  S   UNL     1      -1.957  -6.468  -0.049  0.00  0.00    -0.026 S 
ATOM      7  C   UNL     1      -1.400  -4.773  -0.097  0.00  0.00    +0.290 C 
ATOM      8  O   UNL     1      -0.263  -4.355  -0.203  0.00  0.00    -0.262 OA
ENDROOT
BRANCH   5   9
ATOM      9  C   UNL     1      -6.139  -6.493   0.331  0.00  0.00    +0.122 C 
ATOM     10  C   UNL     1      -6.908  -6.926  -0.902  0.00  0.00    -0.001 C 
ATOM     11  C   UNL     1      -8.022  -7.681  -0.711  0.00  0.00    -0.003 A 
ATOM     12  C   UNL     1      -8.821  -8.139  -1.849  0.00  0.00    +0.059 A 
ATOM     13  C   UNL     1      -9.929  -8.892  -1.624  0.00  0.00    +0.167 A 
ATOM     14  C   UNL     1     -10.322  -9.239  -0.313  0.00  0.00    +0.168 A 
ATOM     15  C   UNL     1      -9.604  -8.834   0.792  0.00  0.00    +0.073 A 
ATOM     16  C   UNL     1      -8.449  -8.055   0.651  0.00  0.00    +0.044 A 
ATOM     17  N   UNL     1      -7.768  -7.672   1.734  0.00  0.00    -0.284 N 
ATOM     18  C   UNL     1      -6.673  -6.937   1.674  0.00  0.00    +0.228 C 
ATOM     19  O   UNL     1      -6.095  -6.619   2.696  0.00  0.00    -0.274 OA
ATOM     20  O   UNL     1     -11.459  -9.990  -0.396  0.00  0.00    -0.453 OA
ATOM     21  C   UNL     1     -11.989  -9.751  -1.711  0.00  0.00    +0.466 C 
ATOM     22  O   UNL     1     -10.829  -9.431  -2.501  0.00  0.00    -0.453 OA
ATOM     23  H   UNL     1      -8.094  -7.947   2.606  0.00  0.00    +0.155 HD
ENDBRANCH   5   9
BRANCH   1  28
ATOM     24  C   UNL     1      -2.289  -0.593   1.211  0.00  0.00    +0.122 A 
ATOM     25  C   UNL     1      -2.368   0.102   0.012  0.00  0.00    +0.046 A 
ATOM     26  C   UNL     1      -2.505  -0.586  -1.178  0.00  0.00    +0.005 A 
ATOM     27  C   UNL     1      -2.563  -1.966  -1.179  0.00  0.00    +0.024 A 
ATOM     28  C   UNL     1      -2.484  -2.666   0.017  0.00  0.00    +0.048 A 
ATOM     29  C   UNL     1      -2.341  -1.978   1.214  0.00  0.00    +0.069 A 
BRANCH  24  31
ATOM     30  C   UNL     1      -2.108   1.511   2.305  0.00  0.00    +0.277 C 
ATOM     31  O   UNL     1      -2.155   0.085   2.382  0.00  0.00    -0.495 OA
ENDBRANCH  24  31
ENDBRANCH   1  28
TORSDOF 3
