REMARK  Name = ZINC21234091
REMARK  8 active torsions:
REMARK  status: ('A' for Active; 'I' for Inactive)
REMARK    1  A    between atoms: C_1  and  N_2
REMARK    2  A    between atoms: N_2  and  C_3
REMARK    3  A    between atoms: N_2  and  C_4
REMARK    4  A    between atoms: C_7  and  C_10
REMARK    5  A    between atoms: C_15  and  C_25
REMARK    6  A    between atoms: C_27  and  O_33
REMARK    7  A    between atoms: C_28  and  O_32
REMARK    8  A    between atoms: O_33  and  C_34
REMARK                            x       y       z     vdW  Elec       q    Type
REMARK                         _______ _______ _______ _____ _____    ______ ____
ROOT
ATOM      1  C   UNL     1       5.223   3.310   3.830  0.00  0.00    +0.032 C 
ATOM      2  C   UNL     1       5.598   1.896   3.390  0.00  0.00    +0.059 C 
ATOM      3  C   UNL     1       5.232   1.694   1.929  0.00  0.00    +0.017 C 
ATOM      4  C   UNL     1       4.165   2.316   1.402  0.00  0.00    +0.036 C 
ATOM      5  C   UNL     1       3.676   2.187  -0.021  0.00  0.00    +0.136 C 
ATOM      6  N   UNL     1       4.600   1.521  -0.914  0.00  0.00    -0.331 N 
ATOM      7  C   UNL     1       4.940   0.180  -0.731  0.00  0.00    +0.049 A 
ATOM      8  C   UNL     1       4.545  -0.795  -1.633  0.00  0.00    +0.025 A 
ATOM      9  C   UNL     1       4.809  -2.125  -1.354  0.00  0.00    +0.002 A 
ATOM     10  C   UNL     1       5.462  -2.480  -0.188  0.00  0.00    +0.002 A 
ATOM     11  C   UNL     1       5.876  -1.506   0.705  0.00  0.00    +0.025 A 
ATOM     12  C   UNL     1       5.628  -0.174   0.419  0.00  0.00    +0.052 A 
ATOM     13  N   UNL     1       6.055   0.856   1.250  0.00  0.00    -0.316 N 
ATOM     14  C   UNL     1       3.385   3.190   2.196  0.00  0.00    +0.163 C 
ATOM     15  O   UNL     1       2.416   3.728   1.697  0.00  0.00    -0.292 OA
ATOM     16  C   UNL     1       3.712   3.476   3.631  0.00  0.00    +0.088 C 
ATOM     17  H   UNL     1       5.048   2.072  -1.754  0.00  0.00    +0.147 HD
ATOM     18  H   UNL     1       7.146   0.967   1.336  0.00  0.00    +0.152 HD
ENDROOT
BRANCH   5  19
ATOM     19  C   UNL     1       2.381   1.416  -0.013  0.00  0.00    -0.018 A 
ATOM     20  C   UNL     1       1.214   2.023  -0.442  0.00  0.00    +0.055 A 
ATOM     21  C   UNL     1       0.022   1.317  -0.435  0.00  0.00    +0.163 A 
ATOM     22  C   UNL     1       0.002  -0.004   0.004  0.00  0.00    +0.177 A 
ATOM     23  C   UNL     1       1.174  -0.607   0.432  0.00  0.00    +0.086 A 
ATOM     24  C   UNL     1       2.361   0.105   0.423  0.00  0.00    +0.029 A 
ATOM     25 CL   UNL     1       1.154  -2.254   0.980  0.00  0.00    -0.080 Cl
BRANCH  22  26
ATOM     26  O   UNL     1      -1.166  -0.701   0.013  0.00  0.00    -0.502 OA
ATOM     27  H   UNL     1      -1.181  -1.745   0.360  0.00  0.00    +0.292 HD
ENDBRANCH  22  26
BRANCH  21  28
ATOM     28  O   UNL     1      -1.124   1.911  -0.862  0.00  0.00    -0.491 OA
ATOM     29  C   UNL     1      -1.028   3.268  -1.298  0.00  0.00    +0.277 C 
ENDBRANCH  21  28
ENDBRANCH   5  19
BRANCH   1  33
ATOM     30  C   UNL     1       6.213   3.855   7.952  0.00  0.00    +0.029 A 
ATOM     31  C   UNL     1       6.792   4.665   6.984  0.00  0.00    +0.023 A 
ATOM     32  C   UNL     1       6.470   4.487   5.653  0.00  0.00    +0.006 A 
ATOM     33  C   UNL     1       5.572   3.502   5.283  0.00  0.00    -0.043 A 
ATOM     34  C   UNL     1       4.989   2.697   6.245  0.00  0.00    +0.006 A 
ATOM     35  C   UNL     1       5.312   2.867   7.577  0.00  0.00    +0.023 A 
BRANCH  30  37
ATOM     36  C   UNL     1       7.489   5.075   9.692  0.00  0.00    +0.129 C 
ATOM     37  N   UNL     1       6.537   4.032   9.299  0.00  0.00    -0.336 N 
ATOM     38  C   UNL     1       5.926   3.176  10.318  0.00  0.00    +0.129 C 
ENDBRANCH  30  37
ENDBRANCH   1  33
TORSDOF 5
