REMARK  Name = ZINC17747142
REMARK  5 active torsions:
REMARK  status: ('A' for Active; 'I' for Inactive)
REMARK    1  A    between atoms: C_1  and  C_2
REMARK    2  A    between atoms: C_6  and  N_8
REMARK    3  A    between atoms: C_13  and  C_27
REMARK    4  A    between atoms: N_15  and  C_21
REMARK    5  A    between atoms: C_30  and  C_32
REMARK                            x       y       z     vdW  Elec       q    Type
REMARK                         _______ _______ _______ _____ _____    ______ ____
ROOT
ATOM      1  N   UNL     1       0.050  -2.798   2.395  0.00  0.00    -0.208 N 
ATOM      2  C   UNL     1       0.074  -4.168   2.472  0.00  0.00    +0.235 C 
ATOM      3  O   UNL     1       0.302  -4.955   1.579  0.00  0.00    -0.274 OA
ATOM      4  C   UNL     1      -0.232  -4.467   3.850  0.00  0.00    +0.148 C 
ATOM      5  C   UNL     1      -0.066  -5.551   4.832  0.00  0.00    +0.193 C 
ATOM      6  N   UNL     1      -0.144  -4.815   6.135  0.00  0.00    -0.241 N 
ATOM      7  O   UNL     1      -0.261  -3.406   5.834  0.00  0.00    -0.257 OA
ATOM      8  C   UNL     1       0.468  -3.264   4.602  0.00  0.00    +0.249 C 
ATOM      9  C   UNL     1       0.049  -2.201   3.623  0.00  0.00    +0.259 C 
ATOM     10  O   UNL     1      -0.234  -1.049   3.874  0.00  0.00    -0.272 OA
ENDROOT
BRANCH   1  16
ATOM     11  C   UNL     1      -0.018   1.503   0.010  0.00  0.00    +0.044 C 
ATOM     12  C   UNL     1       0.002  -0.004   0.002  0.00  0.00    -0.049 A 
ATOM     13  C   UNL     1       0.006  -0.688  -1.200  0.00  0.00    +0.003 A 
ATOM     14  C   UNL     1       0.024  -2.071  -1.211  0.00  0.00    +0.002 A 
ATOM     15  C   UNL     1       0.039  -2.773  -0.022  0.00  0.00    +0.024 A 
ATOM     16  C   UNL     1       0.035  -2.089   1.186  0.00  0.00    +0.044 A 
ATOM     17  C   UNL     1       0.023  -0.700   1.194  0.00  0.00    +0.027 A 
ENDBRANCH   1  16
BRANCH   6  18
ATOM     18  C   UNL     1      -0.110  -5.387   7.409  0.00  0.00    +0.065 A 
ATOM     19  C   UNL     1       0.012  -6.763   7.551  0.00  0.00    +0.028 A 
ATOM     20  C   UNL     1       0.046  -7.325   8.812  0.00  0.00    +0.002 A 
ATOM     21  C   UNL     1      -0.042  -6.519   9.933  0.00  0.00    +0.000 A 
ATOM     22  C   UNL     1      -0.163  -5.149   9.795  0.00  0.00    +0.002 A 
ATOM     23  C   UNL     1      -0.192  -4.580   8.537  0.00  0.00    +0.028 A 
ENDBRANCH   6  18
BRANCH   5  24
ATOM     24  C   UNL     1      -1.180  -6.558   4.713  0.00  0.00    +0.131 A 
ATOM     25  C   UNL     1      -1.101  -7.746   4.081  0.00  0.00    +0.047 A 
ATOM     26  C   UNL     1      -2.360  -8.366   4.210  0.00  0.00    +0.050 A 
ATOM     27  C   UNL     1      -3.146  -7.514   4.920  0.00  0.00    +0.137 A 
ATOM     28  O   UNL     1      -2.415  -6.424   5.223  0.00  0.00    -0.457 OA
BRANCH  27  29
ATOM     29  C   UNL     1      -4.555  -7.746   5.298  0.00  0.00    +0.037 A 
ATOM     30  C   UNL     1      -5.482  -8.150   4.336  0.00  0.00    +0.033 A 
ATOM     31  C   UNL     1      -6.797  -8.366   4.696  0.00  0.00    +0.042 A 
ATOM     32  C   UNL     1      -7.198  -8.181   6.008  0.00  0.00    +0.021 A 
ATOM     33  C   UNL     1      -6.285  -7.780   6.967  0.00  0.00    +0.022 A 
ATOM     34  C   UNL     1      -4.965  -7.567   6.621  0.00  0.00    +0.052 A 
ATOM     35 CL   UNL     1      -3.819  -7.071   7.827  0.00  0.00    -0.083 Cl
ATOM     36 CL   UNL     1      -7.951  -8.868   3.500  0.00  0.00    -0.084 Cl
ENDBRANCH  27  29
ENDBRANCH   5  24
TORSDOF 4
