REMARK  Name = ZINC06592363
REMARK  8 active torsions:
REMARK  status: ('A' for Active; 'I' for Inactive)
REMARK    1  A    between atoms: C_1  and  C_2
REMARK    2  A    between atoms: C_2  and  C_3
REMARK    3  A    between atoms: C_3  and  C_4
REMARK    4  A    between atoms: C_4  and  N_5
REMARK    5  A    between atoms: C_10  and  C_22
REMARK    6  A    between atoms: C_12  and  C_17
REMARK    7  A    between atoms: C_12  and  C_20
REMARK    8  A    between atoms: C_17  and  C_18
REMARK                            x       y       z     vdW  Elec       q    Type
REMARK                         _______ _______ _______ _____ _____    ______ ____
ROOT
ATOM      1  N   UNL     1      -4.272   0.043   1.157  0.00  0.00    -0.242 N 
ATOM      2  C   UNL     1      -4.253   1.173   1.925  0.00  0.00    +0.224 C 
ATOM      3  O   UNL     1      -4.804   1.343   2.992  0.00  0.00    -0.275 OA
ATOM      4  C   UNL     1      -3.407   2.163   1.172  0.00  0.00    +0.077 C 
ATOM      5  C   UNL     1      -2.367   2.994   1.933  0.00  0.00    -0.020 C 
ATOM      6  C   UNL     1      -1.329   1.940   0.019  0.00  0.00    +0.058 C 
ATOM      7  C   UNL     1      -2.386   1.097   0.602  0.00  0.00    +0.086 C 
ATOM      8  C   UNL     1      -3.281   0.031   0.208  0.00  0.00    +0.225 C 
ATOM      9  O   UNL     1      -3.178  -0.708  -0.748  0.00  0.00    -0.275 OA
ATOM     10  N   UNL     1      -1.268   3.118   0.932  0.00  0.00    +0.396 N 
ATOM     11  H   UNL     1      -0.361   3.137   1.413  0.00  0.00    -0.083 HD
ATOM     12  H   UNL     1      -1.387   3.983   0.391  0.00  0.00    -0.083 HD
ENDROOT
BRANCH   5  13
ATOM     13  C   UNL     1      -2.925   4.346   2.296  0.00  0.00    -0.022 A 
ATOM     14  C   UNL     1      -3.437   4.768   3.478  0.00  0.00    +0.011 A 
ATOM     15  C   UNL     1      -3.893   6.069   3.585  0.00  0.00    +0.028 A 
ATOM     16  C   UNL     1      -3.825   6.881   2.500  0.00  0.00    +0.078 A 
ATOM     17  S   UNL     1      -3.092   5.804   1.279  0.00  0.00    -0.083 S 
ATOM     18 CL   UNL     1      -4.322   8.536   2.340  0.00  0.00    -0.076 Cl
ENDBRANCH   5  13
BRANCH   6  19
ATOM     19  C   UNL     1      -0.014   1.204   0.009  0.00  0.00    +0.347 C 
ATOM     20  O   UNL     1       0.002  -0.004   0.002  0.00  0.00    -0.248 OA
ATOM     21  O   UNL     1       1.139   1.891   0.001  0.00  0.00    -0.248 OA
ENDBRANCH   6  19
BRANCH   1  22
ATOM     22  C   UNL     1      -5.245  -1.038   1.328  0.00  0.00    +0.116 C 
BRANCH  22  23
ATOM     23  C   UNL     1      -6.470  -0.764   0.454  0.00  0.00    +0.019 C 
BRANCH  23  25
ATOM     24  C   UNL     1      -8.712  -1.620  -0.243  0.00  0.00    +0.004 C 
ATOM     25  C   UNL     1      -7.487  -1.894   0.632  0.00  0.00    -0.002 C 
ENDBRANCH  23  25
ENDBRANCH  22  23
ENDBRANCH   1  22
BRANCH   6  26
ATOM     26  C   UNL     1      -1.711   2.372  -1.399  0.00  0.00    +0.125 C 
BRANCH  26  27
ATOM     27  C   UNL     1      -0.636   3.268  -1.957  0.00  0.00    +0.355 C 
ATOM     28  O   UNL     1       0.336   3.534  -1.290  0.00  0.00    -0.246 OA
ATOM     29  O   UNL     1      -0.757   3.771  -3.195  0.00  0.00    -0.246 OA
ENDBRANCH  26  27
ENDBRANCH   6  26
TORSDOF 7
