REMARK  Name = ZINC13064480
REMARK  11 active torsions:
REMARK  status: ('A' for Active; 'I' for Inactive)
REMARK    1  A    between atoms: C_1  and  C_2
REMARK    2  A    between atoms: C_2  and  C_3
REMARK    3  A    between atoms: C_3  and  C_5
REMARK    4  A    between atoms: C_3  and  N_69
REMARK    5  A    between atoms: N_9  and  C_10
REMARK    6  A    between atoms: C_10  and  C_11
REMARK    7  A    between atoms: C_11  and  O_12
REMARK    8  A    between atoms: O_12  and  C_13
REMARK    9  A    between atoms: C_14  and  C_15
REMARK   10  A    between atoms: C_14  and  N_69
REMARK   11  A    between atoms: C_31  and  N_69
REMARK                            x       y       z     vdW  Elec       q    Type
REMARK                         _______ _______ _______ _____ _____    ______ ____
ROOT
ATOM      1  N   UNL     1      -3.126   0.938  -1.159  0.00  0.00    +0.391 N 
ATOM      2  H   UNL     1      -3.156   1.888  -1.547  0.00  0.00    -0.080 HD
ENDROOT
BRANCH   1   3
ATOM      3  C   UNL     1      -1.944   0.235  -1.702  0.00  0.00    -0.067 C 
ATOM      4  C   UNL     1      -1.966   0.337  -3.228  0.00  0.00    -0.015 C 
ATOM      5  C   UNL     1      -0.736  -0.367  -3.804  0.00  0.00    -0.002 C 
ATOM      6  C   UNL     1      -0.751  -1.840  -3.391  0.00  0.00    -0.000 C 
ATOM      7  C   UNL     1      -0.729  -1.942  -1.865  0.00  0.00    -0.002 C 
ATOM      8  C   UNL     1      -1.959  -1.238  -1.288  0.00  0.00    -0.015 C 
ENDBRANCH   1   3
BRANCH   1   9
ATOM      9  C   UNL     1      -4.360   0.222  -1.545  0.00  0.00    +0.003 C 
BRANCH   9  10
ATOM     10  C   UNL     1      -4.554  -0.998  -0.683  0.00  0.00    +0.138 A 
ATOM     11  N   UNL     1      -4.252  -1.115   0.587  0.00  0.00    -0.115 NA
ATOM     12  N   UNL     1      -4.567  -2.306   0.964  0.00  0.00    -0.023 NA
ATOM     13  N   UNL     1      -5.063  -2.952  -0.033  0.00  0.00    -0.044 NA
ATOM     14  N   UNL     1      -5.076  -2.178  -1.065  0.00  0.00    -0.229 N 
BRANCH  14  15
ATOM     15  C   UNL     1      -5.565  -2.520  -2.403  0.00  0.00    +0.175 C 
BRANCH  15  16
ATOM     16  C   UNL     1      -4.460  -3.237  -3.182  0.00  0.00    +0.183 C 
BRANCH  16  17
ATOM     17  O   UNL     1      -4.905  -3.491  -4.516  0.00  0.00    -0.381 OA
ATOM     18  C   UNL     1      -3.942  -4.161  -5.332  0.00  0.00    +0.194 C 
ENDBRANCH  16  17
ENDBRANCH  15  16
ENDBRANCH  14  15
ENDBRANCH   9  10
BRANCH   9  20
ATOM     19  C   UNL     1      -5.415   2.346  -2.334  0.00  0.00    +0.002 C 
ATOM     20  C   UNL     1      -5.550   1.167  -1.368  0.00  0.00    -0.011 C 
ENDBRANCH   9  20
ENDBRANCH   1   9
BRANCH   1  21
ATOM     21  C   UNL     1      -3.031   1.023   0.313  0.00  0.00    -0.036 C 
BRANCH  21  22
ATOM     22  C   UNL     1      -2.076   2.133   0.672  0.00  0.00    +0.001 A 
ATOM     23  C   UNL     1      -2.550   3.381   0.913  0.00  0.00    +0.017 A 
ATOM     24  C   UNL     1      -1.598   4.437   1.254  0.00  0.00    +0.002 A 
ATOM     25  C   UNL     1      -2.029   5.745   1.508  0.00  0.00    +0.059 A 
ATOM     26  C   UNL     1      -1.108   6.720   1.829  0.00  0.00    +0.163 A 
ATOM     27  C   UNL     1       0.252   6.407   1.901  0.00  0.00    +0.164 A 
ATOM     28  C   UNL     1       0.688   5.117   1.650  0.00  0.00    +0.075 A 
ATOM     29  C   UNL     1      -0.227   4.123   1.325  0.00  0.00    +0.053 A 
ATOM     30  N   UNL     1       0.190   2.832   1.073  0.00  0.00    -0.322 N 
ATOM     31  H   UNL     1       1.134   2.617   1.121  0.00  0.00    +0.169 HD
ATOM     32  C   UNL     1      -0.694   1.869   0.760  0.00  0.00    +0.251 A 
ATOM     33  O   UNL     1      -0.290   0.739   0.544  0.00  0.00    -0.268 OA
ATOM     34  O   UNL     1       1.167   7.362   2.220  0.00  0.00    -0.485 OA
ATOM     35  C   UNL     1       0.745   8.724   2.099  0.00  0.00    +0.270 C 
ATOM     36  C   UNL     1      -0.637   8.860   2.753  0.00  0.00    +0.270 C 
ATOM     37  O   UNL     1      -1.544   7.988   2.070  0.00  0.00    -0.485 OA
ENDBRANCH  21  22
ENDBRANCH   1  21
TORSDOF 9
