REMARK  Name = ZINC39133489
REMARK  5 active torsions:
REMARK  status: ('A' for Active; 'I' for Inactive)
REMARK    1  A    between atoms: C_6  and  C_14
REMARK    2  A    between atoms: C_8  and  C_11
REMARK    3  A    between atoms: C_18  and  S_20
REMARK    4  A    between atoms: S_20  and  N_23
REMARK    5  A    between atoms: N_23  and  C_24
REMARK                            x       y       z     vdW  Elec       q    Type
REMARK                         _______ _______ _______ _____ _____    ______ ____
ROOT
ATOM      1  C   UNL     1       3.579  -3.171  -0.600  0.00  0.00    -0.019 A 
ATOM      2  C   UNL     1       3.438  -2.351  -1.704  0.00  0.00    +0.007 A 
ATOM      3  C   UNL     1       3.760  -2.825  -2.962  0.00  0.00    +0.022 A 
ATOM      4  C   UNL     1       4.223  -4.120  -3.116  0.00  0.00    +0.067 A 
ATOM      5  C   UNL     1       4.364  -4.939  -2.010  0.00  0.00    +0.124 A 
ATOM      6  C   UNL     1       4.047  -4.463  -0.752  0.00  0.00    +0.036 A 
ATOM      7 CL   UNL     1       4.627  -4.715  -4.696  0.00  0.00    -0.082 Cl
ENDROOT
BRANCH   1  13
ATOM      8  C   UNL     1       0.060   0.609   1.621  0.00  0.00    +0.001 A 
ATOM      9  C   UNL     1       1.199   1.430   1.580  0.00  0.00    +0.002 A 
ATOM     10  C   UNL     1       2.433   0.931   1.351  0.00  0.00    +0.026 A 
ATOM     11  C   UNL     1       2.590  -0.518   1.139  0.00  0.00    +0.044 A 
ATOM     12  N   UNL     1       3.638  -1.253   0.903  0.00  0.00    -0.373 N 
ATOM     13  C   UNL     1       3.227  -2.654   0.771  0.00  0.00    +0.148 C 
ATOM     14  C   UNL     1       1.727  -2.671   0.967  0.00  0.00    +0.076 C 
ATOM     15  C   UNL     1       1.367  -1.357   1.189  0.00  0.00    +0.010 A 
ATOM     16  C   UNL     1       0.122  -0.728   1.435  0.00  0.00    +0.010 A 
ATOM     17  H   UNL     1       4.548  -0.925   0.826  0.00  0.00    +0.161 HD
BRANCH  14  18
ATOM     18  C   UNL     1       0.871  -3.800   0.930  0.00  0.00    +0.386 C 
ATOM     19  O   UNL     1       1.335  -4.915   0.721  0.00  0.00    -0.241 OA
ATOM     20  O   UNL     1      -0.334  -3.662   1.107  0.00  0.00    -0.241 OA
ENDBRANCH  14  18
ENDBRANCH   1  13
BRANCH   5  21
ATOM     21  S   UNL     1       4.954  -6.588  -2.205  0.00  0.00    +0.060 S 
ATOM     22  O   UNL     1       5.032  -7.148  -0.902  0.00  0.00    -0.153 OA
ATOM     23  O   UNL     1       4.180  -7.176  -3.242  0.00  0.00    -0.153 OA
BRANCH  21  24
ATOM     24  N   UNL     1       6.507  -6.489  -2.772  0.00  0.00    -0.187 NA
ATOM     25  H   UNL     1       6.721  -6.815  -3.660  0.00  0.00    +0.148 HD
BRANCH  24  26
ATOM     26  C   UNL     1       7.557  -5.908  -1.931  0.00  0.00    +0.077 C 
ATOM     27  C   UNL     1       7.749  -4.436  -2.299  0.00  0.00    +0.020 C 
ATOM     28  C   UNL     1       8.846  -3.829  -1.422  0.00  0.00    +0.002 C 
ATOM     29  C   UNL     1      10.156  -4.586  -1.648  0.00  0.00    +0.000 C 
ATOM     30  C   UNL     1       9.965  -6.059  -1.280  0.00  0.00    +0.002 C 
ATOM     31  C   UNL     1       8.868  -6.665  -2.158  0.00  0.00    +0.020 C 
ENDBRANCH  24  26
ENDBRANCH  21  24
ENDBRANCH   5  21
TORSDOF 5
