REMARK  Name = ZINC20597910
REMARK  5 active torsions:
REMARK  status: ('A' for Active; 'I' for Inactive)
REMARK    1  A    between atoms: C_1  and  C_2
REMARK    2  A    between atoms: C_4  and  C_34
REMARK    3  A    between atoms: N_5  and  C_27
REMARK    4  A    between atoms: N_19  and  C_20
REMARK    5  A    between atoms: C_20  and  C_21
REMARK                            x       y       z     vdW  Elec       q    Type
REMARK                         _______ _______ _______ _____ _____    ______ ____
ROOT
ATOM      1  C   UNL     1      -3.187  -0.184  13.108  0.00  0.00    +0.068 C 
ATOM      2  C   UNL     1      -2.949   0.522  11.798  0.00  0.00    +0.072 A 
ATOM      3  C   UNL     1      -4.040   1.002  11.040  0.00  0.00    +0.049 A 
ATOM      4  C   UNL     1      -5.412   1.016  11.156  0.00  0.00    +0.051 A 
ATOM      5  N   UNL     1      -5.912   1.639  10.075  0.00  0.00    -0.236 N 
ATOM      6  N   UNL     1      -4.867   2.042   9.233  0.00  0.00    -0.163 NA
ATOM      7  C   UNL     1      -3.723   1.688   9.771  0.00  0.00    +0.137 A 
ATOM      8  C   UNL     1      -2.307   1.790   9.424  0.00  0.00    +0.172 A 
ATOM      9  N   UNL     1      -1.423   1.280  10.261  0.00  0.00    -0.132 NA
ATOM     10  N   UNL     1      -1.730   0.696  11.355  0.00  0.00    -0.152 NA
ATOM     11  N   UNL     1      -1.903   2.412   8.253  0.00  0.00    -0.309 N 
ATOM     12  C   UNL     1      -0.440   2.397   8.127  0.00  0.00    +0.125 C 
ATOM     13  C   UNL     1      -0.026   3.247   6.920  0.00  0.00    +0.128 C 
ATOM     14  N   UNL     1      -0.757   2.765   5.738  0.00  0.00    -0.283 N 
ATOM     15  C   UNL     1      -2.218   2.628   5.832  0.00  0.00    +0.128 C 
ATOM     16  C   UNL     1      -2.545   1.798   7.083  0.00  0.00    +0.125 C 
ATOM     17  C   UNL     1      -0.105   2.464   4.597  0.00  0.00    +0.302 C 
ATOM     18  O   UNL     1      -0.732   2.155   3.602  0.00  0.00    -0.253 OA
ATOM     19  N   UNL     1       1.241   2.505   4.559  0.00  0.00    -0.297 N 
ATOM     20  C   UNL     1      -6.212   0.435  12.294  0.00  0.00    +0.066 C 
ATOM     21  H   UNL     1       1.806   2.865   5.432  0.00  0.00    +0.150 HD
ENDROOT
BRANCH   5  22
ATOM     22  C   UNL     1      -7.274   1.853   9.826  0.00  0.00    +0.066 A 
ATOM     23  C   UNL     1      -7.787   1.662   8.550  0.00  0.00    +0.029 A 
ATOM     24  C   UNL     1      -9.130   1.868   8.309  0.00  0.00    +0.022 A 
ATOM     25  C   UNL     1      -9.964   2.276   9.336  0.00  0.00    +0.041 A 
ATOM     26  C   UNL     1      -9.455   2.472  10.608  0.00  0.00    +0.022 A 
ATOM     27  C   UNL     1      -8.112   2.262  10.855  0.00  0.00    +0.029 A 
ATOM     28 CL   UNL     1     -11.652   2.542   9.028  0.00  0.00    -0.084 Cl
ENDBRANCH   5  22
BRANCH  19  29
ATOM     29  C   UNL     1       1.954   2.071   3.355  0.00  0.00    +0.137 C 
BRANCH  29  30
ATOM     30  C   UNL     1       3.461   2.218   3.573  0.00  0.00    +0.135 C 
ATOM     31  C   UNL     1       4.228   1.885   2.274  0.00  0.00    +0.035 C 
ATOM     32  C   UNL     1       5.497   1.151   2.761  0.00  0.00    +0.031 C 
ATOM     33  C   UNL     1       5.350   1.127   4.298  0.00  0.00    +0.160 C 
ATOM     34  O   UNL     1       3.931   1.246   4.536  0.00  0.00    -0.375 OA
ENDBRANCH  29  30
ENDBRANCH  19  29
TORSDOF 3
