REMARK  Name = ZINC20567671
REMARK  4 active torsions:
REMARK  status: ('A' for Active; 'I' for Inactive)
REMARK    1  A    between atoms: C_1  and  C_2
REMARK    2  A    between atoms: C_2  and  N_3
REMARK    3  A    between atoms: C_16  and  C_18
REMARK    4  A    between atoms: N_24  and  C_27
REMARK                            x       y       z     vdW  Elec       q    Type
REMARK                         _______ _______ _______ _____ _____    ______ ____
ROOT
ATOM      1  N   UNL     1       1.364  -1.741  -2.005  0.00  0.00    +0.388 N 
ATOM      2  C   UNL     1       2.756  -1.804  -2.469  0.00  0.00    -0.073 C 
ATOM      3  C   UNL     1       2.790  -1.728  -4.002  0.00  0.00    +0.019 C 
ATOM      4  C   UNL     1       1.805  -2.737  -4.535  0.00  0.00    -0.022 A 
ATOM      5  C   UNL     1       1.668  -3.272  -5.870  0.00  0.00    +0.003 A 
ATOM      6  C   UNL     1       2.365  -3.048  -7.061  0.00  0.00    +0.010 A 
ATOM      7  C   UNL     1       1.950  -3.750  -8.166  0.00  0.00    +0.001 A 
ATOM      8  C   UNL     1       0.891  -4.642  -8.116  0.00  0.00    +0.002 A 
ATOM      9  C   UNL     1       0.183  -4.883  -6.952  0.00  0.00    +0.026 A 
ATOM     10  C   UNL     1       0.582  -4.186  -5.814  0.00  0.00    +0.047 A 
ATOM     11  N   UNL     1       0.115  -4.186  -4.530  0.00  0.00    -0.359 N 
ATOM     12  H   UNL     1      -0.625  -4.721  -4.206  0.00  0.00    +0.166 HD
ATOM     13  C   UNL     1       0.850  -3.317  -3.771  0.00  0.00    +0.011 A 
ATOM     14  C   UNL     1       0.672  -3.005  -2.304  0.00  0.00    +0.021 C 
ATOM     15  H   UNL     1       0.891  -0.983  -2.473  0.00  0.00    -0.080 HD
ENDROOT
BRANCH  14  16
ATOM     16  C   UNL     1      -0.795  -2.864  -1.991  0.00  0.00    +0.074 A 
ATOM     17  C   UNL     1      -1.553  -1.832  -2.574  0.00  0.00    +0.260 A 
ATOM     18  N   UNL     1      -2.864  -1.724  -2.282  0.00  0.00    -0.274 N 
ATOM     19  H   UNL     1      -3.389  -1.013  -2.683  0.00  0.00    +0.173 HD
ATOM     20  C   UNL     1      -3.450  -2.593  -1.439  0.00  0.00    +0.337 A 
ATOM     21  O   UNL     1      -4.634  -2.478  -1.188  0.00  0.00    -0.246 OA
ATOM     22  N   UNL     1      -2.746  -3.588  -0.870  0.00  0.00    -0.229 N 
ATOM     23  C   UNL     1      -1.408  -3.738  -1.144  0.00  0.00    +0.267 A 
ATOM     24  O   UNL     1      -0.705  -4.741  -0.576  0.00  0.00    -0.267 OA
ATOM     25  O   UNL     1      -1.027  -1.042  -3.339  0.00  0.00    -0.267 OA
BRANCH  22  26
ATOM     26  C   UNL     1      -3.382  -4.480   0.005  0.00  0.00    +0.054 A 
ATOM     27  C   UNL     1      -3.963  -5.641  -0.487  0.00  0.00    +0.027 A 
ATOM     28  C   UNL     1      -4.589  -6.518   0.376  0.00  0.00    +0.017 A 
ATOM     29  C   UNL     1      -4.637  -6.240   1.731  0.00  0.00    +0.018 A 
ATOM     30  C   UNL     1      -4.059  -5.084   2.224  0.00  0.00    +0.017 A 
ATOM     31  C   UNL     1      -3.426  -4.207   1.365  0.00  0.00    +0.027 A 
ATOM     32 BR   UNL     1      -5.495  -7.444   2.911  0.00  0.00    -0.050 Br
ENDBRANCH  22  26
ENDBRANCH  14  16
BRANCH   1  34
ATOM     33  C   UNL     1       1.951  -0.136  -0.251  0.00  0.00    -0.017 C 
ATOM     34  C   UNL     1       1.344  -1.507  -0.555  0.00  0.00    -0.081 C 
ENDBRANCH   1  34
TORSDOF 3
