REMARK  Name = ZINC03528096
REMARK  5 active torsions:
REMARK  status: ('A' for Active; 'I' for Inactive)
REMARK    1  A    between atoms: C_1  and  C_2
REMARK    2  A    between atoms: C_2  and  C_3
REMARK    3  A    between atoms: C_3  and  C_20
REMARK    4  A    between atoms: N_6  and  N_10
REMARK    5  A    between atoms: C_11  and  C_12
REMARK                            x       y       z     vdW  Elec       q    Type
REMARK                         _______ _______ _______ _____ _____    ______ ____
ROOT
ATOM      1  C   UNL     1      -0.612   7.787  -0.195  0.00  0.00    +0.111 C 
ATOM      2  C   UNL     1      -1.082   6.351  -0.070  0.00  0.00    +0.266 C 
ATOM      3  O   UNL     1      -2.227   5.961   0.018  0.00  0.00    -0.271 OA
ATOM      4  N   UNL     1       0.036   5.600  -0.075  0.00  0.00    -0.109 N 
ATOM      5  C   UNL     1       1.137   6.354  -0.181  0.00  0.00    +0.330 C 
ATOM      6  O   UNL     1       2.265   5.902  -0.203  0.00  0.00    -0.250 OA
ATOM      7  N   UNL     1       0.855   7.666  -0.264  0.00  0.00    -0.284 N 
ATOM      8  C   UNL     1      -1.032   8.600   1.030  0.00  0.00    +0.041 C 
ATOM      9  H   UNL     1       1.493   8.392  -0.347  0.00  0.00    +0.151 HD
ENDROOT
BRANCH   1  11
ATOM     10  C   UNL     1      -0.571   9.825  -1.640  0.00  0.00    +0.006 C 
ATOM     11  C   UNL     1      -1.160   8.423  -1.475  0.00  0.00    +0.032 C 
ENDBRANCH   1  11
BRANCH   4  12
ATOM     12  N   UNL     1       0.046   4.202   0.023  0.00  0.00    -0.176 NA
ATOM     13  C   UNL     1      -1.072   3.544   0.022  0.00  0.00    +0.140 C 
BRANCH  13  14
ATOM     14  C   UNL     1      -1.060   2.070   0.013  0.00  0.00    +0.013 A 
ATOM     15  C   UNL     1      -2.262   1.358   0.013  0.00  0.00    +0.012 A 
ATOM     16  C   UNL     1      -2.243  -0.021   0.004  0.00  0.00    +0.021 A 
ATOM     17  C   UNL     1      -1.036  -0.701  -0.003  0.00  0.00    +0.042 A 
ATOM     18  C   UNL     1       0.159  -0.003  -0.002  0.00  0.00    +0.040 A 
ATOM     19  C   UNL     1       0.155   1.378   0.006  0.00  0.00    +0.051 A 
ATOM     20 CL   UNL     1       1.655   2.252   0.015  0.00  0.00    -0.083 Cl
ATOM     21 CL   UNL     1      -1.023  -2.437  -0.012  0.00  0.00    -0.083 Cl
ENDBRANCH  13  14
ENDBRANCH   4  12
TORSDOF 3
