REMARK  Name = ZINC15775857
REMARK  10 active torsions:
REMARK  status: ('A' for Active; 'I' for Inactive)
REMARK    1  A    between atoms: C_1  and  C_2
REMARK    2  A    between atoms: C_5  and  N_9
REMARK    3  A    between atoms: C_6  and  C_8
REMARK    4  A    between atoms: N_9  and  C_10
REMARK    5  A    between atoms: C_10  and  N_12
REMARK    6  A    between atoms: N_12  and  C_13
REMARK    7  A    between atoms: C_13  and  C_15
REMARK    8  A    between atoms: C_13  and  N_19
REMARK    9  A    between atoms: C_20  and  C_22
REMARK   10  A    between atoms: C_25  and  N_28
REMARK                            x       y       z     vdW  Elec       q    Type
REMARK                         _______ _______ _______ _____ _____    ______ ____
ROOT
ATOM      1  C   UNL     1      -1.073   2.900  -0.366  0.00  0.00    +0.211 C 
ENDROOT
BRANCH   1   2
ATOM      2  C   UNL     1      -1.820   3.304   0.907  0.00  0.00    +0.225 C 
ATOM      3 CL   UNL     1      -1.291   2.255   2.274  0.00  0.00    -0.080 Cl
ATOM      4 CL   UNL     1      -1.456   5.027   1.295  0.00  0.00    -0.080 Cl
ATOM      5 CL   UNL     1      -3.594   3.108   0.651  0.00  0.00    -0.080 Cl
ENDBRANCH   1   2
BRANCH   1   6
ATOM      6  N   UNL     1      -1.369   1.500  -0.682  0.00  0.00    -0.290 N 
ATOM      7  C   UNL     1      -0.373   0.664  -1.037  0.00  0.00    +0.246 C 
ATOM      8  O   UNL     1       0.770   1.073  -1.100  0.00  0.00    -0.270 OA
ATOM      9  H   UNL     1      -2.282   1.175  -0.635  0.00  0.00    +0.151 HD
BRANCH   7  10
ATOM     10  C   UNL     1      -0.672  -0.748  -1.356  0.00  0.00    +0.037 A 
ATOM     11  C   UNL     1      -1.982  -1.222  -1.278  0.00  0.00    +0.015 A 
ATOM     12  C   UNL     1      -2.255  -2.540  -1.583  0.00  0.00    +0.033 A 
ATOM     13  C   UNL     1      -1.231  -3.394  -1.953  0.00  0.00    +0.126 A 
ATOM     14  C   UNL     1       0.071  -2.931  -2.026  0.00  0.00    +0.033 A 
ATOM     15  C   UNL     1       0.356  -1.615  -1.730  0.00  0.00    +0.015 A 
BRANCH  13  16
ATOM     16  N   UNL     1      -1.530  -4.808  -2.272  0.00  0.00    +0.056 N 
ATOM     17  O   UNL     1      -0.630  -5.562  -2.598  0.00  0.00    -0.126 OA
ATOM     18  O   UNL     1      -2.675  -5.218  -2.208  0.00  0.00    -0.126 OA
ENDBRANCH  13  16
ENDBRANCH   7  10
ENDBRANCH   1   6
BRANCH   1  19
ATOM     19  N   UNL     1      -1.504   3.752  -1.477  0.00  0.00    -0.305 N 
ATOM     20  H   UNL     1      -2.447   3.937  -1.610  0.00  0.00    +0.150 HD
BRANCH  19  21
ATOM     21  C   UNL     1      -0.590   4.281  -2.314  0.00  0.00    +0.136 C 
ATOM     22  S   UNL     1       1.075   3.957  -2.079  0.00  0.00    -0.019 S 
BRANCH  21  23
ATOM     23  N   UNL     1      -0.985   5.066  -3.336  0.00  0.00    -0.297 N 
ATOM     24  H   UNL     1      -1.931   5.186  -3.517  0.00  0.00    +0.154 HD
BRANCH  23  29
ATOM     25  C   UNL     1       2.878   7.664  -6.577  0.00  0.00    +0.044 C 
ATOM     26  C   UNL     1       1.851   6.974  -5.716  0.00  0.00    -0.050 A 
ATOM     27  C   UNL     1       1.994   6.972  -4.340  0.00  0.00    +0.005 A 
ATOM     28  C   UNL     1       1.055   6.340  -3.548  0.00  0.00    +0.024 A 
ATOM     29  C   UNL     1      -0.033   5.707  -4.135  0.00  0.00    +0.036 A 
ATOM     30  C   UNL     1      -0.171   5.707  -5.517  0.00  0.00    -0.029 A 
ATOM     31  C   UNL     1       0.769   6.345  -6.303  0.00  0.00    +0.008 A 
ATOM     32  C   UNL     1      -1.347   5.016  -6.158  0.00  0.00    +0.045 C 
ENDBRANCH  23  29
ENDBRANCH  21  23
ENDBRANCH  19  21
ENDBRANCH   1  19
TORSDOF 8
