REMARK  Name = ZINC04817100
REMARK  7 active torsions:
REMARK  status: ('A' for Active; 'I' for Inactive)
REMARK    1  A    between atoms: N_7  and  C_22
REMARK    2  A    between atoms: N_9  and  C_10
REMARK    3  A    between atoms: C_10  and  C_11
REMARK    4  A    between atoms: C_11  and  C_13
REMARK    5  A    between atoms: C_11  and  O_21
REMARK    6  A    between atoms: C_22  and  C_23
REMARK    7  A    between atoms: C_23  and  N_53
REMARK                            x       y       z     vdW  Elec       q    Type
REMARK                         _______ _______ _______ _____ _____    ______ ____
ROOT
ATOM      1  C   UNL     1       1.060   5.794   0.019  0.00  0.00    +0.002 A 
ATOM      2  C   UNL     1       2.383   5.388   0.005  0.00  0.00    +0.002 A 
ATOM      3  C   UNL     1       2.699   4.044  -0.004  0.00  0.00    +0.028 A 
ATOM      4  C   UNL     1       1.686   3.096   0.002  0.00  0.00    +0.068 A 
ATOM      5  C   UNL     1       0.352   3.505   0.016  0.00  0.00    +0.068 A 
ATOM      6  C   UNL     1       0.045   4.858   0.025  0.00  0.00    +0.028 A 
ATOM      7  N   UNL     1      -0.438   2.356   0.013  0.00  0.00    -0.313 N 
ATOM      8  C   UNL     1       0.394   1.265   0.005  0.00  0.00    +0.183 A 
ATOM      9  N   UNL     1       1.695   1.701  -0.005  0.00  0.00    -0.309 N 
ATOM     10  H   UNL     1      -0.911  -0.302   0.009  0.00  0.00    +0.159 HD
ATOM     11  N   UNL     1       0.070  -0.023   0.001  0.00  0.00    -0.371 N 
ATOM     12  H   UNL     1       0.807  -0.738  -0.010  0.00  0.00    +0.159 HD
ENDROOT
BRANCH   9  13
ATOM     13  C   UNL     1       2.887   0.850  -0.020  0.00  0.00    +0.161 C 
BRANCH  13  14
ATOM     14  C   UNL     1       3.289   0.560  -1.467  0.00  0.00    +0.164 C 
BRANCH  14  15
ATOM     15  C   UNL     1       4.583  -0.212  -1.484  0.00  0.00    -0.016 A 
ATOM     16  C   UNL     1       5.785   0.457  -1.632  0.00  0.00    +0.008 A 
ATOM     17  C   UNL     1       6.972  -0.250  -1.648  0.00  0.00    +0.022 A 
ATOM     18  C   UNL     1       6.959  -1.627  -1.516  0.00  0.00    +0.059 A 
ATOM     19  C   UNL     1       5.756  -2.296  -1.368  0.00  0.00    +0.060 A 
ATOM     20  C   UNL     1       4.569  -1.587  -1.347  0.00  0.00    +0.027 A 
ATOM     21 CL   UNL     1       5.738  -4.024  -1.203  0.00  0.00    -0.082 Cl
ATOM     22 CL   UNL     1       8.450  -2.516  -1.536  0.00  0.00    -0.082 Cl
ENDBRANCH  14  15
BRANCH  14  23
ATOM     23  O   UNL     1       2.266  -0.210  -2.101  0.00  0.00    -0.385 OA
ATOM     24  H   UNL     1       2.096  -1.062  -1.676  0.00  0.00    +0.210 HD
ENDBRANCH  14  23
ENDBRANCH  13  14
ENDBRANCH   9  13
BRANCH   7  25
ATOM     25  C   UNL     1      -1.902   2.319   0.019  0.00  0.00    +0.107 C 
BRANCH  25  26
ATOM     26  C   UNL     1      -2.406   2.302   1.464  0.00  0.00    -0.057 C 
BRANCH  26  31
ATOM     27  C   UNL     1      -4.383   1.153   0.627  0.00  0.00    -0.079 C 
ATOM     28  C   UNL     1      -5.823   0.938   1.155  0.00  0.00    -0.020 C 
ATOM     29  C   UNL     1      -5.671   1.165   2.676  0.00  0.00    -0.020 C 
ATOM     30  C   UNL     1      -4.392   2.008   2.832  0.00  0.00    -0.079 C 
ATOM     31  N   UNL     1      -3.899   2.253   1.476  0.00  0.00    +0.381 N 
ATOM     32  H   UNL     1      -4.267   3.147   1.129  0.00  0.00    -0.082 HD
ENDBRANCH  26  31
ENDBRANCH  25  26
ENDBRANCH   7  25
TORSDOF 7
