REMARK  Name = ZINC58913509
REMARK  10 active torsions:
REMARK  status: ('A' for Active; 'I' for Inactive)
REMARK    1  A    between atoms: C_1  and  C_2
REMARK    2  A    between atoms: C_5  and  O_30
REMARK    3  A    between atoms: C_6  and  N_8
REMARK    4  A    between atoms: C_9  and  C_11
REMARK    5  A    between atoms: N_13  and  N_14
REMARK    6  A    between atoms: C_15  and  C_16
REMARK    7  A    between atoms: C_18  and  C_29
REMARK    8  A    between atoms: N_19  and  C_22
REMARK    9  A    between atoms: C_20  and  C_21
REMARK   10  A    between atoms: O_30  and  C_31
REMARK                            x       y       z     vdW  Elec       q    Type
REMARK                         _______ _______ _______ _____ _____    ______ ____
ROOT
ATOM      1  C   UNL     1       0.278  -2.885   4.844  0.00  0.00    +0.318 C 
ATOM      2  O   UNL     1       0.293  -4.100   4.832  0.00  0.00    -0.263 OA
ATOM      3  N   UNL     1       0.376  -2.221   6.012  0.00  0.00    -0.199 N 
ATOM      4  H   UNL     1       0.364  -1.251   6.021  0.00  0.00    +0.178 HD
ENDROOT
BRANCH   1   6
ATOM      5  N   UNL     1       0.051  -2.794   2.397  0.00  0.00    -0.275 N 
ATOM      6  C   UNL     1       0.150  -2.130   3.566  0.00  0.00    +0.305 C 
ATOM      7  O   UNL     1       0.134  -0.915   3.577  0.00  0.00    -0.265 OA
ATOM      8  H   UNL     1      -0.002  -3.763   2.393  0.00  0.00    +0.155 HD
BRANCH   5  14
ATOM      9  C   UNL     1      -1.305   1.190  -0.144  0.00  0.00    +0.044 C 
ATOM     10  C   UNL     1      -0.625  -0.153  -0.071  0.00  0.00    -0.048 A 
ATOM     11  C   UNL     1      -0.028  -0.686  -1.199  0.00  0.00    +0.007 A 
ATOM     12  C   UNL     1       0.597  -1.918  -1.139  0.00  0.00    +0.048 A 
ATOM     13  C   UNL     1       0.627  -2.623   0.053  0.00  0.00    +0.141 A 
ATOM     14  C   UNL     1       0.025  -2.087   1.190  0.00  0.00    +0.076 A 
ATOM     15  C   UNL     1      -0.596  -0.847   1.123  0.00  0.00    +0.030 A 
BRANCH  13  16
ATOM     16  O   UNL     1       1.240  -3.834   0.113  0.00  0.00    -0.493 OA
ATOM     17  C   UNL     1       1.835  -4.321  -1.091  0.00  0.00    +0.277 C 
ENDBRANCH  13  16
ENDBRANCH   5  14
ENDBRANCH   1   6
BRANCH   3  18
ATOM     18  N   UNL     1       0.496  -2.931   7.214  0.00  0.00    -0.187 NA
ATOM     19  C   UNL     1       0.592  -2.291   8.341  0.00  0.00    +0.140 C 
BRANCH  19  20
ATOM     20  C   UNL     1       0.718  -3.037   9.604  0.00  0.00    +0.016 A 
ATOM     21  C   UNL     1       0.828  -2.472  10.953  0.00  0.00    +0.032 A 
ATOM     22  C   UNL     1       0.922  -3.514  11.799  0.00  0.00    +0.022 A 
ATOM     23  N   UNL     1       0.878  -4.674  11.079  0.00  0.00    -0.317 N 
ATOM     24  C   UNL     1       0.750  -4.395   9.754  0.00  0.00    +0.030 A 
ATOM     25  C   UNL     1       0.662  -5.409   8.643  0.00  0.00    +0.064 C 
ATOM     26  C   UNL     1       1.054  -3.417  13.297  0.00  0.00    +0.064 C 
BRANCH  23  27
ATOM     27  C   UNL     1       0.950  -5.963  11.626  0.00  0.00    +0.048 A 
ATOM     28  C   UNL     1       2.035  -6.780  11.340  0.00  0.00    +0.026 A 
ATOM     29  C   UNL     1       2.104  -8.049  11.880  0.00  0.00    +0.003 A 
ATOM     30  C   UNL     1       1.093  -8.507  12.706  0.00  0.00    +0.015 A 
ATOM     31  C   UNL     1       0.010  -7.694  12.992  0.00  0.00    +0.020 A 
ATOM     32  C   UNL     1      -0.061  -6.421  12.458  0.00  0.00    +0.041 A 
ATOM     33 BR   UNL     1      -1.371  -8.324  14.121  0.00  0.00    -0.050 Br
ENDBRANCH  23  27
ENDBRANCH  19  20
ENDBRANCH   3  18
TORSDOF 6
