REMARK  Name = ZINC11582528
REMARK  3 active torsions:
REMARK  status: ('A' for Active; 'I' for Inactive)
REMARK    1  A    between atoms: C_1  and  C_2
REMARK    2  A    between atoms: N_11  and  N_12
REMARK    3  A    between atoms: N_12  and  C_13
REMARK                            x       y       z     vdW  Elec       q    Type
REMARK                         _______ _______ _______ _____ _____    ______ ____
ROOT
ATOM      1  N   UNL     1      -0.046  -1.330   3.361  0.00  0.00    -0.237 N 
ATOM      2  H   UNL     1      -0.034  -2.275   3.143  0.00  0.00    +0.174 HD
ENDROOT
BRANCH   1  13
ATOM      3  C   UNL     1       0.485   1.460   0.019  0.00  0.00    +0.068 C 
ATOM      4  C   UNL     1       0.212  -0.022   0.005  0.00  0.00    +0.066 C 
ATOM      5  N   UNL     1       0.127  -0.763  -1.064  0.00  0.00    -0.250 NA
ATOM      6  C   UNL     1      -0.125  -2.063  -0.773  0.00  0.00    +0.073 A 
ATOM      7  C   UNL     1      -0.297  -3.200  -1.569  0.00  0.00    +0.028 A 
ATOM      8  C   UNL     1      -0.549  -4.418  -0.980  0.00  0.00    +0.002 A 
ATOM      9  C   UNL     1      -0.636  -4.536   0.400  0.00  0.00    +0.001 A 
ATOM     10  C   UNL     1      -0.471  -3.428   1.205  0.00  0.00    +0.012 A 
ATOM     11  C   UNL     1      -0.215  -2.191   0.629  0.00  0.00    +0.029 A 
ATOM     12  C   UNL     1       0.015  -0.831   1.158  0.00  0.00    +0.112 C 
ATOM     13  N   UNL     1       0.030  -0.450   2.421  0.00  0.00    -0.180 NA
ENDBRANCH   1  13
BRANCH   1  14
ATOM     14  C   UNL     1      -0.144  -0.923   4.692  0.00  0.00    +0.052 A 
ATOM     15  C   UNL     1      -0.167   0.431   5.006  0.00  0.00    +0.028 A 
ATOM     16  C   UNL     1      -0.264   0.834   6.322  0.00  0.00    +0.051 A 
ATOM     17  C   UNL     1      -0.340  -0.110   7.337  0.00  0.00    +0.162 A 
ATOM     18  C   UNL     1      -0.320  -1.466   7.027  0.00  0.00    +0.164 A 
ATOM     19  C   UNL     1      -0.226  -1.870   5.705  0.00  0.00    +0.074 A 
ATOM     20  O   UNL     1      -0.401  -2.405   8.008  0.00  0.00    -0.485 OA
ATOM     21  C   UNL     1      -0.124  -1.968   9.343  0.00  0.00    +0.270 C 
ATOM     22  C   UNL     1      -0.883  -0.657   9.587  0.00  0.00    +0.270 C 
ATOM     23  O   UNL     1      -0.431   0.307   8.630  0.00  0.00    -0.485 OA
ENDBRANCH   1  14
TORSDOF 2
