REMARK  Name = ZINC06074642
REMARK  12 active torsions:
REMARK  status: ('A' for Active; 'I' for Inactive)
REMARK    1  A    between atoms: C_1  and  C_2
REMARK    2  A    between atoms: C_2  and  C_3
REMARK    3  A    between atoms: C_2  and  C_4
REMARK    4  A    between atoms: C_2  and  N_5
REMARK    5  A    between atoms: C_6  and  C_8
REMARK    6  A    between atoms: C_8  and  C_10
REMARK    7  A    between atoms: C_8  and  N_15
REMARK    8  A    between atoms: N_15  and  C_16
REMARK    9  A    between atoms: C_16  and  C_17
REMARK   10  A    between atoms: C_24  and  C_26
REMARK   11  A    between atoms: C_26  and  N_27
REMARK   12  A    between atoms: C_29  and  C_32
REMARK                            x       y       z     vdW  Elec       q    Type
REMARK                         _______ _______ _______ _____ _____    ______ ____
ROOT
ATOM      1  N   UNL     1      -1.946  -0.973  -1.148  0.00  0.00    -0.277 N 
ATOM      2  C   UNL     1      -2.388   0.294  -1.267  0.00  0.00    +0.240 C 
ATOM      3  O   UNL     1      -2.426   0.824  -2.357  0.00  0.00    -0.273 OA
ENDROOT
BRANCH   1   4
ATOM      4  C   UNL     1      -1.651  -1.761  -2.348  0.00  0.00    +0.228 C 
BRANCH   4   5
ATOM      5  C   UNL     1      -2.268  -3.130  -2.214  0.00  0.00    +0.134 A 
ATOM      6  C   UNL     1      -2.879  -3.816  -3.196  0.00  0.00    +0.047 A 
ATOM      7  C   UNL     1      -3.305  -5.042  -2.635  0.00  0.00    +0.041 A 
ATOM      8  C   UNL     1      -2.928  -5.031  -1.344  0.00  0.00    +0.195 A 
ATOM      9  O   UNL     1      -2.296  -3.873  -1.096  0.00  0.00    -0.465 OA
ENDBRANCH   4   5
BRANCH   4  11
ATOM     10  N   UNL     1       0.349  -2.644  -3.506  0.00  0.00    -0.309 N 
ATOM     11  C   UNL     1      -0.158  -1.896  -2.506  0.00  0.00    +0.242 C 
ATOM     12  O   UNL     1       0.587  -1.333  -1.732  0.00  0.00    -0.273 OA
ATOM     13  H   UNL     1      -0.245  -3.057  -4.152  0.00  0.00    +0.149 HD
BRANCH  10  15
ATOM     14  C   UNL     1       2.315  -3.562  -2.378  0.00  0.00    +0.031 C 
ATOM     15  C   UNL     1       1.797  -2.831  -3.619  0.00  0.00    +0.026 C 
ATOM     16  C   UNL     1       2.109  -3.660  -4.866  0.00  0.00    +0.031 C 
ATOM     17  C   UNL     1       2.481  -1.467  -3.729  0.00  0.00    +0.031 C 
ENDBRANCH  10  15
ENDBRANCH   4  11
ENDBRANCH   1   4
BRANCH   1  18
ATOM     18  C   UNL     1      -1.760  -1.563   0.180  0.00  0.00    +0.145 C 
BRANCH  18  19
ATOM     19  C   UNL     1      -0.297  -1.846   0.404  0.00  0.00    -0.012 A 
ATOM     20  C   UNL     1       0.176  -3.143   0.330  0.00  0.00    +0.006 A 
ATOM     21  C   UNL     1       1.518  -3.403   0.535  0.00  0.00    +0.000 A 
ATOM     22  C   UNL     1       2.388  -2.366   0.814  0.00  0.00    +0.001 A 
ATOM     23  C   UNL     1       1.917  -1.069   0.887  0.00  0.00    +0.020 A 
ATOM     24  C   UNL     1       0.574  -0.808   0.682  0.00  0.00    +0.046 A 
ATOM     25 CL   UNL     1      -0.017   0.822   0.767  0.00  0.00    -0.083 Cl
ENDBRANCH  18  19
ENDBRANCH   1  18
BRANCH   2  26
ATOM     26  C   UNL     1      -2.834   1.054  -0.044  0.00  0.00    +0.264 C 
BRANCH  26  27
ATOM     27  N   UNL     1      -3.360   2.361  -0.446  0.00  0.00    -0.154 N 
ATOM     28  N   UNL     1      -2.667   3.442  -0.552  0.00  0.00    -0.130 NA
ATOM     29  C   UNL     1      -3.480   4.406  -0.936  0.00  0.00    +0.205 A 
ATOM     30  N   UNL     1      -4.698   3.859  -1.050  0.00  0.00    -0.108 NA
ATOM     31  N   UNL     1      -4.587   2.611  -0.743  0.00  0.00    -0.045 NA
BRANCH  29  32
ATOM     32  C   UNL     1      -3.118   5.824  -1.189  0.00  0.00    +0.023 A 
ATOM     33  C   UNL     1      -1.802   6.249  -1.022  0.00  0.00    +0.014 A 
ATOM     34  C   UNL     1      -1.468   7.566  -1.264  0.00  0.00    +0.039 A 
ATOM     35  C   UNL     1      -2.443   8.467  -1.660  0.00  0.00    +0.123 A 
ATOM     36  C   UNL     1      -3.754   8.050  -1.822  0.00  0.00    +0.039 A 
ATOM     37  C   UNL     1      -4.094   6.733  -1.589  0.00  0.00    +0.014 A 
ATOM     38  F   UNL     1      -2.113   9.757  -1.890  0.00  0.00    -0.205 F 
ENDBRANCH  29  32
ENDBRANCH  26  27
ENDBRANCH   2  26
TORSDOF 9
