REMARK  Name = ZINC37602540
REMARK  9 active torsions:
REMARK  status: ('A' for Active; 'I' for Inactive)
REMARK    1  A    between atoms: C_1  and  C_2
REMARK    2  A    between atoms: C_2  and  C_3
REMARK    3  A    between atoms: C_11  and  O_23
REMARK    4  A    between atoms: C_14  and  C_16
REMARK    5  A    between atoms: O_23  and  C_24
REMARK    6  A    between atoms: C_24  and  C_25
REMARK    7  A    between atoms: C_27  and  C_30
REMARK    8  A    between atoms: N_32  and  C_33
REMARK    9  A    between atoms: C_33  and  C_34
REMARK                            x       y       z     vdW  Elec       q    Type
REMARK                         _______ _______ _______ _____ _____    ______ ____
ROOT
ATOM      1  C   UNL     1       1.769  -0.440  -1.164  0.00  0.00    +0.216 C 
ATOM      2  O   UNL     1       2.168   0.233  -2.091  0.00  0.00    -0.276 OA
ATOM      3  N   UNL     1       1.439  -1.732  -1.362  0.00  0.00    -0.290 N 
ATOM      4  C   UNL     1       1.066  -2.607  -0.239  0.00  0.00    +0.113 C 
ATOM      5  C   UNL     1      -0.392  -3.023  -0.431  0.00  0.00    +0.054 C 
ATOM      6  C   UNL     1      -0.635  -3.488  -1.843  0.00  0.00    -0.040 A 
ATOM      7  C   UNL     1      -1.751  -4.283  -2.075  0.00  0.00    +0.007 A 
ATOM      8  C   UNL     1      -2.040  -4.735  -3.345  0.00  0.00    +0.046 A 
ATOM      9  C   UNL     1      -1.211  -4.393  -4.403  0.00  0.00    +0.121 A 
ATOM     10  C   UNL     1      -0.097  -3.604  -4.172  0.00  0.00    +0.051 A 
ATOM     11  C   UNL     1       0.194  -3.155  -2.892  0.00  0.00    -0.016 A 
ATOM     12  C   UNL     1       1.430  -2.319  -2.706  0.00  0.00    +0.137 C 
ENDROOT
BRANCH  12  13
ATOM     13  C   UNL     1       1.450  -1.219  -3.735  0.00  0.00    -0.020 A 
ATOM     14  C   UNL     1       0.428  -0.288  -3.771  0.00  0.00    +0.006 A 
ATOM     15  C   UNL     1       0.445   0.723  -4.714  0.00  0.00    +0.003 A 
ATOM     16  C   UNL     1       1.483   0.803  -5.623  0.00  0.00    +0.038 A 
ATOM     17  C   UNL     1       2.506  -0.128  -5.588  0.00  0.00    +0.124 A 
ATOM     18  C   UNL     1       2.492  -1.136  -4.639  0.00  0.00    +0.044 A 
ATOM     19  F   UNL     1       3.521  -0.051  -6.476  0.00  0.00    -0.205 F 
ENDBRANCH  12  13
BRANCH   1  21
ATOM     20  C   UNL     1       2.077   1.634   0.160  0.00  0.00    +0.013 C 
ATOM     21  C   UNL     1       1.642   0.168   0.209  0.00  0.00    +0.092 C 
ENDBRANCH   1  21
BRANCH   9  22
ATOM     22  O   UNL     1      -1.490  -4.831  -5.660  0.00  0.00    -0.485 OA
BRANCH  22  23
ATOM     23  C   UNL     1      -2.656  -5.641  -5.820  0.00  0.00    +0.291 C 
BRANCH  23  24
ATOM     24  C   UNL     1      -2.803  -6.029  -7.269  0.00  0.00    +0.116 A 
ATOM     25  N   UNL     1      -2.323  -7.081  -7.873  0.00  0.00    -0.236 NA
ATOM     26  C   UNL     1      -2.574  -7.234  -9.178  0.00  0.00    +0.133 A 
ATOM     27  C   UNL     1      -3.326  -6.252  -9.765  0.00  0.00    +0.080 A 
ATOM     28  S   UNL     1      -3.628  -5.211  -8.481  0.00  0.00    -0.076 S 
BRANCH  26  29
ATOM     29  C   UNL     1      -2.071  -8.391  -9.938  0.00  0.00    +0.263 C 
ATOM     30  O   UNL     1      -2.321  -8.494 -11.124  0.00  0.00    -0.269 OA
ATOM     31  N   UNL     1      -1.335  -9.335  -9.320  0.00  0.00    -0.308 N 
ATOM     32  H   UNL     1      -1.135  -9.252  -8.374  0.00  0.00    +0.149 HD
BRANCH  31  33
ATOM     33  C   UNL     1      -0.835 -10.486 -10.076  0.00  0.00    +0.136 C 
BRANCH  33  34
ATOM     34  C   UNL     1      -0.034 -11.399  -9.145  0.00  0.00    +0.135 C 
ATOM     35  C   UNL     1       0.598 -12.550  -9.957  0.00  0.00    +0.035 C 
ATOM     36  C   UNL     1       0.432 -13.760  -8.998  0.00  0.00    +0.031 C 
ATOM     37  C   UNL     1      -0.916 -13.413  -8.317  0.00  0.00    +0.160 C 
ATOM     38  O   UNL     1      -0.905 -11.982  -8.170  0.00  0.00    -0.375 OA
ENDBRANCH  33  34
ENDBRANCH  31  33
ENDBRANCH  26  29
ENDBRANCH  23  24
ENDBRANCH  22  23
ENDBRANCH   9  22
TORSDOF 8
