REMARK  Name = ZINC44434861
REMARK  6 active torsions:
REMARK  status: ('A' for Active; 'I' for Inactive)
REMARK    1  A    between atoms: C_3  and  O_29
REMARK    2  A    between atoms: C_6  and  C_7
REMARK    3  A    between atoms: C_7  and  N_8
REMARK    4  A    between atoms: C_9  and  C_15
REMARK    5  A    between atoms: C_17  and  C_20
REMARK    6  A    between atoms: O_29  and  C_30
REMARK                            x       y       z     vdW  Elec       q    Type
REMARK                         _______ _______ _______ _____ _____    ______ ____
ROOT
ATOM      1  N   UNL     1      -1.593  -1.135  -1.451  0.00  0.00    -0.285 N 
ATOM      2  C   UNL     1      -2.454  -0.256  -2.250  0.00  0.00    +0.165 C 
ATOM      3  C   UNL     1      -2.329  -0.765  -3.703  0.00  0.00    +0.041 C 
ATOM      4  C   UNL     1      -1.940  -2.245  -3.486  0.00  0.00    +0.098 C 
ATOM      5  C   UNL     1      -1.288  -2.260  -2.121  0.00  0.00    +0.217 C 
ATOM      6  O   UNL     1      -0.594  -3.157  -1.692  0.00  0.00    -0.276 OA
ENDROOT
BRANCH   2   7
ATOM      7  C   UNL     1      -1.978   1.171  -2.152  0.00  0.00    +0.248 A 
ATOM      8  N   UNL     1      -2.732   2.213  -1.949  0.00  0.00    -0.190 NA
ATOM      9  C   UNL     1      -1.980   3.327  -1.917  0.00  0.00    +0.202 A 
ATOM     10  N   UNL     1      -0.726   2.991  -2.103  0.00  0.00    -0.056 NA
ATOM     11  O   UNL     1      -0.707   1.579  -2.253  0.00  0.00    -0.336 OA
BRANCH   9  12
ATOM     12  C   UNL     1      -2.484   4.707  -1.708  0.00  0.00    +0.026 A 
ATOM     13  C   UNL     1      -3.846   4.930  -1.517  0.00  0.00    +0.015 A 
ATOM     14  C   UNL     1      -4.314   6.213  -1.322  0.00  0.00    +0.050 A 
ATOM     15  C   UNL     1      -3.433   7.284  -1.317  0.00  0.00    +0.166 A 
ATOM     16  C   UNL     1      -2.069   7.066  -1.508  0.00  0.00    +0.167 A 
ATOM     17  C   UNL     1      -1.595   5.780  -1.697  0.00  0.00    +0.061 A 
ATOM     18  O   UNL     1      -1.424   8.268  -1.460  0.00  0.00    -0.453 OA
ATOM     19  C   UNL     1      -2.450   9.262  -1.647  0.00  0.00    +0.466 C 
ATOM     20  O   UNL     1      -3.640   8.622  -1.149  0.00  0.00    -0.453 OA
ENDBRANCH   9  12
ENDBRANCH   2   7
BRANCH   1  21
ATOM     21  C   UNL     1      -1.121  -0.824  -0.099  0.00  0.00    +0.143 C 
BRANCH  21  27
ATOM     22  C   UNL     1      -2.051  -2.574   1.429  0.00  0.00    +0.009 A 
ATOM     23  C   UNL     1      -2.981  -3.008   2.354  0.00  0.00    +0.046 A 
ATOM     24  C   UNL     1      -4.002  -2.160   2.760  0.00  0.00    +0.130 A 
ATOM     25  C   UNL     1      -4.085  -0.878   2.236  0.00  0.00    +0.046 A 
ATOM     26  C   UNL     1      -3.153  -0.449   1.312  0.00  0.00    +0.009 A 
ATOM     27  C   UNL     1      -2.137  -1.295   0.909  0.00  0.00    -0.030 A 
BRANCH  24  28
ATOM     28  O   UNL     1      -4.918  -2.585   3.669  0.00  0.00    -0.406 OA
BRANCH  28  29
ATOM     29  C   UNL     1      -5.941  -1.659   4.041  0.00  0.00    +0.575 C 
ATOM     30  F   UNL     1      -6.676  -1.296   2.908  0.00  0.00    -0.133 F 
ATOM     31  F   UNL     1      -6.792  -2.255   4.978  0.00  0.00    -0.133 F 
ATOM     32  F   UNL     1      -5.355  -0.518   4.602  0.00  0.00    -0.133 F 
ENDBRANCH  28  29
ENDBRANCH  24  28
ENDBRANCH  21  27
ENDBRANCH   1  21
TORSDOF 6
