REMARK  Name = ZINC66675016
REMARK  6 active torsions:
REMARK  status: ('A' for Active; 'I' for Inactive)
REMARK    1  A    between atoms: C_1  and  C_2
REMARK    2  A    between atoms: C_2  and  N_3
REMARK    3  A    between atoms: N_3  and  C_4
REMARK    4  A    between atoms: C_10  and  C_12
REMARK    5  A    between atoms: C_13  and  C_15
REMARK    6  A    between atoms: C_16  and  C_26
REMARK                            x       y       z     vdW  Elec       q    Type
REMARK                         _______ _______ _______ _____ _____    ______ ____
ROOT
ATOM      1  N   UNL     1      -1.441  -0.380   0.025  0.00  0.00    -0.293 N 
ATOM      2  C   UNL     1      -1.958  -0.846   1.179  0.00  0.00    +0.263 C 
ATOM      3  O   UNL     1      -3.003  -1.470   1.170  0.00  0.00    -0.268 OA
ENDROOT
BRANCH   2   4
ATOM      4  C   UNL     1      -1.261  -0.600   2.448  0.00  0.00    +0.106 A 
ATOM      5  C   UNL     1      -0.151  -1.264   2.891  0.00  0.00    -0.010 A 
ATOM      6  C   UNL     1       0.175  -0.712   4.136  0.00  0.00    +0.042 A 
ATOM      7  C   UNL     1      -0.761   0.283   4.417  0.00  0.00    +0.027 A 
ATOM      8  N   UNL     1      -1.613   0.345   3.393  0.00  0.00    -0.354 N 
ATOM      9  H   UNL     1      -2.363   0.956   3.323  0.00  0.00    +0.166 HD
ATOM     10  C   UNL     1      -0.734   1.098   5.684  0.00  0.00    +0.054 C 
ATOM     11  C   UNL     1       0.081   0.353   6.746  0.00  0.00    +0.014 C 
ATOM     12  C   UNL     1       1.460  -0.029   6.200  0.00  0.00    +0.080 C 
ATOM     13  C   UNL     1       1.269  -1.028   5.068  0.00  0.00    +0.165 C 
ATOM     14  O   UNL     1       1.967  -2.012   4.943  0.00  0.00    -0.292 OA
ATOM     15  C   UNL     1       0.579  -2.374   2.179  0.00  0.00    +0.047 C 
ENDBRANCH   2   4
BRANCH   1  16
ATOM     16  C   UNL     1      -2.188  -0.532  -1.226  0.00  0.00    +0.079 C 
ATOM     17  C   UNL     1      -2.425  -2.019  -1.501  0.00  0.00    +0.023 C 
ATOM     18  C   UNL     1      -3.205  -2.178  -2.808  0.00  0.00    +0.002 C 
ATOM     19  C   UNL     1      -4.551  -1.460  -2.689  0.00  0.00    +0.000 C 
ATOM     20  C   UNL     1      -4.313   0.026  -2.415  0.00  0.00    +0.005 C 
ATOM     21  C   UNL     1      -3.534   0.185  -1.108  0.00  0.00    +0.006 C 
ATOM     22  C   UNL     1      -3.296   1.672  -0.833  0.00  0.00    +0.009 C 
ENDBRANCH   1  16
BRANCH   1  24
ATOM     23  C   UNL     1      -0.313   1.773   0.293  0.00  0.00    +0.024 C 
ATOM     24  C   UNL     1      -0.133   0.278   0.022  0.00  0.00    +0.105 C 
ENDBRANCH   1  24
TORSDOF 3
