REMARK  Name = ZINC02153687
REMARK  5 active torsions:
REMARK  status: ('A' for Active; 'I' for Inactive)
REMARK    1  A    between atoms: C_11  and  C_31
REMARK    2  A    between atoms: N_19  and  C_23
REMARK    3  A    between atoms: C_23  and  C_24
REMARK    4  A    between atoms: C_24  and  C_25
REMARK    5  A    between atoms: C_25  and  N_64
REMARK                            x       y       z     vdW  Elec       q    Type
REMARK                         _______ _______ _______ _____ _____    ______ ____
ROOT
ATOM      1  C   UNL     1      13.305  -1.861   5.128  0.00  0.00    +0.001 A 
ATOM      2  C   UNL     1      14.242  -0.894   5.453  0.00  0.00    +0.002 A 
ATOM      3  C   UNL     1      13.979   0.460   5.330  0.00  0.00    +0.026 A 
ATOM      4  C   UNL     1      12.717   0.817   4.859  0.00  0.00    +0.047 A 
ATOM      5  C   UNL     1      11.761  -0.178   4.529  0.00  0.00    +0.003 A 
ATOM      6  C   UNL     1      12.054  -1.538   4.663  0.00  0.00    +0.010 A 
ATOM      7  C   UNL     1      10.580   0.534   4.083  0.00  0.00    -0.015 A 
ATOM      8  C   UNL     1      10.862   1.852   4.157  0.00  0.00    +0.046 A 
ATOM      9  N   UNL     1      12.138   2.031   4.622  0.00  0.00    -0.356 N 
ATOM     10  H   UNL     1      12.566   2.890   4.761  0.00  0.00    +0.166 HD
ATOM     11  C   UNL     1       9.883   2.938   3.774  0.00  0.00    +0.154 C 
ATOM     12  N   UNL     1       8.559   2.301   3.606  0.00  0.00    -0.276 N 
ATOM     13  C   UNL     1       8.495   1.048   2.855  0.00  0.00    +0.167 C 
ATOM     14  C   UNL     1       9.265  -0.038   3.618  0.00  0.00    +0.069 C 
ATOM     15  C   UNL     1       7.087   0.598   2.634  0.00  0.00    +0.237 C 
ATOM     16  O   UNL     1       6.906  -0.384   1.944  0.00  0.00    -0.274 OA
ATOM     17  N   UNL     1       6.018   1.208   3.142  0.00  0.00    -0.291 N 
ATOM     18  C   UNL     1       6.086   2.391   3.983  0.00  0.00    +0.203 C 
ATOM     19  C   UNL     1       7.486   2.885   4.144  0.00  0.00    +0.234 C 
ATOM     20  O   UNL     1       7.660   3.885   4.808  0.00  0.00    -0.274 OA
ENDROOT
BRANCH  11  21
ATOM     21  C   UNL     1       9.817   3.977   4.864  0.00  0.00    -0.021 A 
ATOM     22  C   UNL     1       9.959   5.316   4.551  0.00  0.00    +0.007 A 
ATOM     23  C   UNL     1       9.893   6.270   5.549  0.00  0.00    +0.020 A 
ATOM     24  C   UNL     1       9.696   5.883   6.863  0.00  0.00    +0.041 A 
ATOM     25  C   UNL     1       9.560   4.542   7.176  0.00  0.00    +0.020 A 
ATOM     26  C   UNL     1       9.620   3.590   6.176  0.00  0.00    +0.007 A 
ATOM     27 CL   UNL     1       9.620   7.080   8.118  0.00  0.00    -0.084 Cl
ENDBRANCH  11  21
BRANCH  17  28
ATOM     28  C   UNL     1       4.697   0.650   2.840  0.00  0.00    +0.106 C 
BRANCH  28  29
ATOM     29  C   UNL     1       4.151   1.294   1.564  0.00  0.00    +0.000 C 
BRANCH  29  30
ATOM     30  C   UNL     1       2.772   0.712   1.249  0.00  0.00    -0.077 C 
BRANCH  30  36
ATOM     31  C   UNL     1       0.836   0.977  -0.183  0.00  0.00    -0.050 C 
ATOM     32  C   UNL     1       0.348   1.591  -1.498  0.00  0.00    +0.141 C 
ATOM     33  O   UNL     1       0.553   3.006  -1.462  0.00  0.00    -0.383 OA
ATOM     34  C   UNL     1       1.917   3.386  -1.264  0.00  0.00    +0.141 C 
ATOM     35  C   UNL     1       2.421   2.790   0.054  0.00  0.00    -0.050 C 
ATOM     36  N   UNL     1       2.261   1.322   0.001  0.00  0.00    +0.383 N 
ATOM     37  H   UNL     1       2.799   0.956  -0.793  0.00  0.00    -0.082 HD
ENDBRANCH  30  36
ENDBRANCH  29  30
ENDBRANCH  28  29
ENDBRANCH  17  28
TORSDOF 5
