REMARK  Name = ZINC24840649
REMARK  9 active torsions:
REMARK  status: ('A' for Active; 'I' for Inactive)
REMARK    1  A    between atoms: C_1  and  C_2
REMARK    2  A    between atoms: C_9  and  C_16
REMARK    3  A    between atoms: C_11  and  O_12
REMARK    4  A    between atoms: C_16  and  O_17
REMARK    5  A    between atoms: O_17  and  C_18
REMARK    6  A    between atoms: C_18  and  C_20
REMARK    7  A    between atoms: C_25  and  C_26
REMARK    8  A    between atoms: C_26  and  S_27
REMARK    9  A    between atoms: S_27  and  C_28
REMARK                            x       y       z     vdW  Elec       q    Type
REMARK                         _______ _______ _______ _____ _____    ______ ____
ROOT
ATOM      1  C   UNL     1      -2.248   1.449   1.208  0.00  0.00    +0.109 C 
ATOM      2  C   UNL     1      -2.218  -0.056   1.143  0.00  0.00    +0.214 C 
ATOM      3  O   UNL     1      -3.100  -0.704   1.665  0.00  0.00    -0.276 OA
ATOM      4  N   UNL     1      -1.210  -0.683   0.504  0.00  0.00    -0.286 N 
ATOM      5  C   UNL     1      -1.129  -2.076   0.527  0.00  0.00    +0.037 A 
ATOM      6  C   UNL     1       0.120  -2.696   0.567  0.00  0.00    +0.024 A 
ATOM      7  C   UNL     1       0.214  -4.057   0.596  0.00  0.00    +0.014 A 
ATOM      8  C   UNL     1      -0.948  -4.836   0.573  0.00  0.00    +0.024 A 
ATOM      9  C   UNL     1      -0.875  -6.298   0.597  0.00  0.00    +0.007 A 
ATOM     10  C   UNL     1      -2.039  -7.000   0.574  0.00  0.00    +0.095 A 
ATOM     11  C   UNL     1      -3.270  -6.314   0.527  0.00  0.00    +0.285 A 
ATOM     12  O   UNL     1      -3.330  -4.973   0.505  0.00  0.00    -0.425 OA
ATOM     13  C   UNL     1      -2.211  -4.217   0.526  0.00  0.00    +0.141 A 
ATOM     14  C   UNL     1      -2.291  -2.833   0.504  0.00  0.00    +0.070 A 
ATOM     15  H   UNL     1      -0.452  -0.097  -0.035  0.00  0.00    +0.155 HD
ENDROOT
BRANCH  11  16
ATOM     16  O   UNL     1      -4.306  -6.954   0.506  0.00  0.00    -0.480 OA
ATOM     17  H   UNL     1      -5.274  -6.434   0.470  0.00  0.00    +0.295 HD
ENDBRANCH  11  16
BRANCH   9  18
ATOM     18  C   UNL     1       0.454  -7.006   0.648  0.00  0.00    +0.269 C 
BRANCH  18  19
ATOM     19  O   UNL     1       0.237  -8.442   0.664  0.00  0.00    -0.456 OA
BRANCH  19  20
ATOM     20  C   UNL     1       1.333  -9.225   0.709  0.00  0.00    +0.340 C 
ATOM     21  O   UNL     1       2.438  -8.723   0.733  0.00  0.00    -0.245 OA
BRANCH  20  22
ATOM     22  C   UNL     1       1.189 -10.695   0.727  0.00  0.00    +0.063 A 
ATOM     23  C   UNL     1      -0.075 -11.278   0.615  0.00  0.00    +0.015 A 
ATOM     24  C   UNL     1      -0.202 -12.652   0.629  0.00  0.00    +0.001 A 
ATOM     25  C   UNL     1       0.919 -13.451   0.764  0.00  0.00    +0.000 A 
ATOM     26  C   UNL     1       2.174 -12.881   0.881  0.00  0.00    +0.005 A 
ATOM     27  C   UNL     1       2.316 -11.508   0.863  0.00  0.00    -0.023 A 
BRANCH  27  28
ATOM     28  C   UNL     1       3.683 -10.889   0.992  0.00  0.00    +0.112 C 
BRANCH  28  29
ATOM     29  S   UNL     1       3.962 -10.392   2.710  0.00  0.00    -0.095 S 
BRANCH  29  30
ATOM     30  C   UNL     1       5.585  -9.720   2.574  0.00  0.00    +0.126 C 
ATOM     31  N   UNL     1       6.310  -9.640   1.502  0.00  0.00    -0.270 NA
ATOM     32  C   UNL     1       7.635  -9.063   1.514  0.00  0.00    +0.154 C 
ATOM     33  C   UNL     1       8.061  -8.572   2.916  0.00  0.00    +0.099 C 
ATOM     34  S   UNL     1       6.561  -9.003   3.881  0.00  0.00    -0.098 S 
ENDBRANCH  29  30
ENDBRANCH  28  29
ENDBRANCH  27  28
ENDBRANCH  20  22
ENDBRANCH  19  20
ENDBRANCH  18  19
ENDBRANCH   9  18
TORSDOF 8
