REMARK  Name = ZINC39710536
REMARK  13 active torsions:
REMARK  status: ('A' for Active; 'I' for Inactive)
REMARK    1  A    between atoms: C_1  and  C_2
REMARK    2  A    between atoms: C_2  and  C_3
REMARK    3  A    between atoms: C_10  and  C_15
REMARK    4  A    between atoms: C_15  and  C_17
REMARK    5  A    between atoms: C_15  and  N_27
REMARK    6  A    between atoms: N_22  and  C_23
REMARK    7  A    between atoms: C_23  and  C_24
REMARK    8  A    between atoms: C_23  and  C_25
REMARK    9  A    between atoms: C_23  and  C_26
REMARK   10  A    between atoms: N_27  and  C_28
REMARK   11  A    between atoms: N_27  and  C_34
REMARK   12  A    between atoms: C_28  and  C_29
REMARK   13  A    between atoms: C_34  and  C_35
REMARK                            x       y       z     vdW  Elec       q    Type
REMARK                         _______ _______ _______ _____ _____    ______ ____
ROOT
ATOM      1  C   UNL     1      -0.242  -3.356   6.447  0.00  0.00    -0.009 C 
ENDROOT
BRANCH   1   9
ATOM      2  C   UNL     1       5.557  -3.573   5.837  0.00  0.00    -0.047 A 
ATOM      3  C   UNL     1       5.740  -2.534   6.750  0.00  0.00    +0.005 A 
ATOM      4  C   UNL     1       4.716  -1.756   7.190  0.00  0.00    +0.024 A 
ATOM      5  C   UNL     1       3.404  -1.976   6.732  0.00  0.00    +0.040 A 
ATOM      6  N   UNL     1       2.408  -1.206   7.170  0.00  0.00    -0.285 N 
ATOM      7  C   UNL     1       1.153  -1.359   6.781  0.00  0.00    +0.223 C 
ATOM      8  O   UNL     1       0.286  -0.625   7.216  0.00  0.00    -0.275 OA
ATOM      9  C   UNL     1       0.801  -2.447   5.793  0.00  0.00    +0.088 C 
ATOM     10  C   UNL     1       1.931  -3.325   5.290  0.00  0.00    -0.006 C 
ATOM     11  C   UNL     1       3.182  -3.067   5.767  0.00  0.00    -0.007 A 
ATOM     12  C   UNL     1       4.330  -3.862   5.331  0.00  0.00    +0.013 A 
ATOM     13  H   UNL     1       2.613  -0.502   7.805  0.00  0.00    +0.155 HD
BRANCH   2  15
ATOM     14  C   UNL     1       7.380  -3.743   4.165  0.00  0.00    +0.009 C 
ATOM     15  C   UNL     1       6.746  -4.388   5.399  0.00  0.00    +0.032 C 
ENDBRANCH   2  15
ENDBRANCH   1   9
BRANCH   1  16
ATOM     16  C   UNL     1      -0.407  -4.627   5.611  0.00  0.00    +0.205 C 
ATOM     17  N   UNL     1       0.890  -5.290   5.425  0.00  0.00    -0.152 NA
ATOM     18  N   UNL     1       1.147  -5.332   4.220  0.00  0.00    -0.070 NA
ATOM     19  N   UNL     1       0.153  -4.753   3.433  0.00  0.00    -0.179 N 
ATOM     20  N   UNL     1      -0.854  -4.290   4.243  0.00  0.00    -0.183 NA
ATOM     21  H   UNL     1       0.170  -4.687   2.465  0.00  0.00    +0.191 HD
BRANCH  20  22
ATOM     22  C   UNL     1      -1.032  -2.841   4.089  0.00  0.00    +0.035 C 
ATOM     23  C   UNL     1       0.297  -2.205   3.674  0.00  0.00    +0.029 C 
ATOM     24  C   UNL     1      -2.085  -2.567   3.013  0.00  0.00    +0.029 C 
ATOM     25  C   UNL     1      -1.492  -2.239   5.418  0.00  0.00    +0.029 C 
ENDBRANCH  20  22
ENDBRANCH   1  16
BRANCH   1  26
ATOM     26  N   UNL     1       0.200  -3.713   7.801  0.00  0.00    +0.391 N 
ATOM     27  H   UNL     1      -0.292  -4.539   8.108  0.00  0.00    -0.080 HD
BRANCH  26  28
ATOM     28  C   UNL     1       1.645  -3.980   7.790  0.00  0.00    -0.002 C 
BRANCH  28  29
ATOM     29  C   UNL     1       2.056  -4.571   9.113  0.00  0.00    +0.089 A 
ATOM     30  C   UNL     1       2.089  -5.882   9.413  0.00  0.00    +0.042 A 
ATOM     31  C   UNL     1       2.531  -5.985  10.752  0.00  0.00    +0.041 A 
ATOM     32  C   UNL     1       2.743  -4.731  11.190  0.00  0.00    +0.195 A 
ATOM     33  O   UNL     1       2.459  -3.879  10.192  0.00  0.00    -0.470 OA
ENDBRANCH  28  29
ENDBRANCH  26  28
BRANCH  26  34
ATOM     34  C   UNL     1      -0.086  -2.603   8.719  0.00  0.00    -0.046 C 
BRANCH  34  35
ATOM     35  C   UNL     1      -1.597  -2.371   8.783  0.00  0.00    +0.102 C 
ATOM     36  C   UNL     1      -1.895  -1.071   9.561  0.00  0.00    +0.032 C 
ATOM     37  C   UNL     1      -3.154  -1.459  10.382  0.00  0.00    +0.030 C 
ATOM     38  C   UNL     1      -2.867  -2.954  10.672  0.00  0.00    +0.160 C 
ATOM     39  O   UNL     1      -2.225  -3.450   9.484  0.00  0.00    -0.378 OA
ENDBRANCH  34  35
ENDBRANCH  26  34
ENDBRANCH   1  26
TORSDOF 9
