REMARK  Name = ZINC05397001
REMARK  12 active torsions:
REMARK  status: ('A' for Active; 'I' for Inactive)
REMARK    1  A    between atoms: C_1  and  C_2
REMARK    2  A    between atoms: C_5  and  O_38
REMARK    3  A    between atoms: C_7  and  C_35
REMARK    4  A    between atoms: C_7  and  C_36
REMARK    5  A    between atoms: C_25  and  C_27
REMARK    6  A    between atoms: C_27  and  C_28
REMARK    7  A    between atoms: N_30  and  C_31
REMARK    8  A    between atoms: C_31  and  C_32
REMARK    9  A    between atoms: C_32  and  N_77
REMARK   10  A    between atoms: C_33  and  N_77
REMARK   11  A    between atoms: C_34  and  N_77
REMARK   12  A    between atoms: C_36  and  O_37
REMARK                            x       y       z     vdW  Elec       q    Type
REMARK                         _______ _______ _______ _____ _____    ______ ____
ROOT
ATOM      1  C   UNL     1      10.082  -2.266   4.002  0.00  0.00    +0.012 C 
ATOM      2  C   UNL     1      10.209  -1.920   2.517  0.00  0.00    -0.019 C 
ATOM      3  C   UNL     1      11.604  -1.350   2.240  0.00  0.00    +0.010 C 
ATOM      4  C   UNL     1      12.677  -2.393   2.545  0.00  0.00    +0.032 C 
ATOM      5  C   UNL     1      12.453  -3.608   1.639  0.00  0.00    +0.123 C 
ATOM      6  C   UNL     1      11.080  -4.212   1.935  0.00  0.00    +0.021 C 
ATOM      7  C   UNL     1       9.979  -3.178   1.677  0.00  0.00    +0.011 C 
ATOM      8  C   UNL     1       8.643  -3.822   2.094  0.00  0.00    +0.049 C 
ATOM      9  C   UNL     1       7.604  -2.763   2.192  0.00  0.00    +0.015 A 
ATOM     10  C   UNL     1       7.790  -1.419   2.232  0.00  0.00    +0.058 A 
ATOM     11  N   UNL     1       6.688  -0.679   2.325  0.00  0.00    -0.229 NA
ATOM     12  C   UNL     1       5.485  -1.214   2.371  0.00  0.00    +0.166 A 
ATOM     13  S   UNL     1       5.840  -2.914   2.292  0.00  0.00    -0.057 S 
ATOM     14  N   UNL     1       4.251  -0.582   2.465  0.00  0.00    -0.248 N 
ATOM     15  C   UNL     1       3.120  -1.315   2.500  0.00  0.00    +0.308 C 
ATOM     16  O   UNL     1       3.183  -2.528   2.543  0.00  0.00    -0.252 OA
ATOM     17  N   UNL     1       1.919  -0.703   2.486  0.00  0.00    -0.281 N 
ATOM     18  C   UNL     1       0.673  -1.481   2.414  0.00  0.00    +0.137 C 
ATOM     19  C   UNL     1      -0.191  -0.906   1.285  0.00  0.00    +0.179 C 
ATOM     20  O   UNL     1      -0.333   0.504   1.473  0.00  0.00    -0.377 OA
ATOM     21  C   UNL     1       0.897   1.230   1.410  0.00  0.00    +0.179 C 
ATOM     22  C   UNL     1       1.817   0.764   2.544  0.00  0.00    +0.137 C 
ATOM     23  C   UNL     1       9.196  -0.841   2.168  0.00  0.00    +0.054 C 
ATOM     24  C   UNL     1      10.847  -5.434   1.044  0.00  0.00    +0.016 C 
ATOM     25  H   UNL     1       4.203   0.386   2.506  0.00  0.00    +0.158 HD
ENDROOT
BRANCH   5  26
ATOM     26  O   UNL     1      13.468  -4.583   1.886  0.00  0.00    -0.391 OA
ATOM     27  H   UNL     1      14.366  -4.266   1.719  0.00  0.00    +0.210 HD
ENDBRANCH   5  26
BRANCH  23  28
ATOM     28  C   UNL     1       9.316   0.318   3.159  0.00  0.00    +0.106 C 
BRANCH  28  29
ATOM     29  C   UNL     1       8.463   1.469   2.692  0.00  0.00    +0.214 C 
ATOM     30  O   UNL     1       7.822   1.372   1.667  0.00  0.00    -0.276 OA
ATOM     31  N   UNL     1       8.412   2.607   3.414  0.00  0.00    -0.317 N 
ATOM     32  H   UNL     1       8.925   2.684   4.233  0.00  0.00    +0.149 HD
BRANCH  31  33
ATOM     33  C   UNL     1       7.582   3.726   2.960  0.00  0.00    +0.085 C 
BRANCH  33  34
ATOM     34  C   UNL     1       7.702   4.885   3.951  0.00  0.00    -0.061 C 
BRANCH  34  37
ATOM     35  C   UNL     1       6.771   7.043   4.532  0.00  0.00    -0.097 C 
ATOM     36  C   UNL     1       7.385   6.567   2.239  0.00  0.00    -0.097 C 
ATOM     37  N   UNL     1       6.844   5.997   3.491  0.00  0.00    +0.377 N 
ATOM     38  H   UNL     1       5.899   5.637   3.312  0.00  0.00    -0.083 HD
ENDBRANCH  34  37
ENDBRANCH  33  34
ENDBRANCH  31  33
ENDBRANCH  28  29
ENDBRANCH  23  28
BRANCH   6  39
ATOM     39  C   UNL     1      11.036  -4.643   3.402  0.00  0.00    +0.165 C 
BRANCH  39  40
ATOM     40  O   UNL     1      11.953  -5.720   3.610  0.00  0.00    -0.394 OA
ATOM     41  H   UNL     1      11.978  -6.045   4.520  0.00  0.00    +0.209 HD
ENDBRANCH  39  40
ENDBRANCH   6  39
TORSDOF 8
