REMARK  Name = ZINC13065288
REMARK  16 active torsions:
REMARK  status: ('A' for Active; 'I' for Inactive)
REMARK    1  A    between atoms: C_1  and  C_2
REMARK    2  A    between atoms: C_2  and  C_3
REMARK    3  A    between atoms: C_3  and  C_5
REMARK    4  A    between atoms: C_3  and  N_70
REMARK    5  A    between atoms: N_9  and  C_10
REMARK    6  A    between atoms: C_10  and  C_11
REMARK    7  A    between atoms: C_11  and  O_12
REMARK    8  A    between atoms: O_12  and  C_13
REMARK    9  A    between atoms: C_14  and  C_15
REMARK   10  A    between atoms: C_14  and  N_70
REMARK   11  A    between atoms: C_18  and  O_21
REMARK   12  A    between atoms: O_21  and  C_22
REMARK   13  A    between atoms: C_23  and  C_24
REMARK   14  A    between atoms: C_23  and  N_70
REMARK   15  A    between atoms: C_27  and  C_37
REMARK   16  A    between atoms: C_30  and  C_36
REMARK                            x       y       z     vdW  Elec       q    Type
REMARK                         _______ _______ _______ _____ _____    ______ ____
ROOT
ATOM      1  N   UNL     1       1.845   4.651   3.477  0.00  0.00    +0.392 N 
ATOM      2  H   UNL     1       2.497   3.875   3.643  0.00  0.00    -0.080 HD
ENDROOT
BRANCH   1   3
ATOM      3  C   UNL     1       0.814   4.214   2.513  0.00  0.00    +0.003 C 
BRANCH   3   4
ATOM      4  C   UNL     1      -0.158   5.332   2.237  0.00  0.00    +0.138 A 
ATOM      5  N   UNL     1       0.017   6.604   2.497  0.00  0.00    -0.115 NA
ATOM      6  N   UNL     1      -1.040   7.237   2.120  0.00  0.00    -0.023 NA
ATOM      7  N   UNL     1      -1.883   6.402   1.621  0.00  0.00    -0.044 NA
ATOM      8  N   UNL     1      -1.375   5.217   1.671  0.00  0.00    -0.229 N 
BRANCH   8   9
ATOM      9  C   UNL     1      -2.006   3.979   1.207  0.00  0.00    +0.175 C 
BRANCH   9  10
ATOM     10  C   UNL     1      -1.781   3.826  -0.298  0.00  0.00    +0.183 C 
BRANCH  10  11
ATOM     11  O   UNL     1      -2.397   2.618  -0.751  0.00  0.00    -0.381 OA
ATOM     12  C   UNL     1      -2.245   2.378  -2.151  0.00  0.00    +0.194 C 
ENDBRANCH  10  11
ENDBRANCH   9  10
ENDBRANCH   8   9
ENDBRANCH   3   4
BRANCH   3  14
ATOM     13  C   UNL     1       2.376   2.572   1.460  0.00  0.00    +0.002 C 
ATOM     14  C   UNL     1       1.498   3.800   1.208  0.00  0.00    -0.011 C 
ENDBRANCH   3  14
ENDBRANCH   1   3
BRANCH   1  15
ATOM     15  C   UNL     1       2.596   5.800   2.929  0.00  0.00    -0.042 C 
BRANCH  15  16
ATOM     16  C   UNL     1       3.881   5.290   2.330  0.00  0.00    -0.064 A 
ATOM     17  C   UNL     1       4.848   4.732   3.145  0.00  0.00    +0.005 A 
ATOM     18  C   UNL     1       6.025   4.258   2.598  0.00  0.00    +0.046 A 
ATOM     19  C   UNL     1       6.240   4.353   1.231  0.00  0.00    +0.120 A 
ATOM     20  C   UNL     1       5.271   4.919   0.416  0.00  0.00    +0.046 A 
ATOM     21  C   UNL     1       4.093   5.386   0.967  0.00  0.00    +0.005 A 
BRANCH  19  22
ATOM     22  O   UNL     1       7.399   3.892   0.691  0.00  0.00    -0.495 OA
ATOM     23  C   UNL     1       8.352   3.322   1.590  0.00  0.00    +0.277 C 
ENDBRANCH  19  22
ENDBRANCH  15  16
ENDBRANCH   1  15
BRANCH   1  24
ATOM     24  C   UNL     1       1.211   5.026   4.759  0.00  0.00    -0.036 C 
BRANCH  24  25
ATOM     25  C   UNL     1       0.894   3.769   5.527  0.00  0.00    +0.001 A 
ATOM     26  C   UNL     1       1.788   3.280   6.421  0.00  0.00    +0.017 A 
ATOM     27  C   UNL     1       1.448   2.059   7.154  0.00  0.00    +0.002 A 
ATOM     28  C   UNL     1       2.327   1.510   8.094  0.00  0.00    -0.041 A 
ATOM     29  C   UNL     1       1.982   0.368   8.758  0.00  0.00    +0.004 A 
ATOM     30  C   UNL     1       0.765  -0.254   8.509  0.00  0.00    +0.005 A 
ATOM     31  C   UNL     1      -0.116   0.269   7.588  0.00  0.00    -0.026 A 
ATOM     32  C   UNL     1       0.214   1.432   6.899  0.00  0.00    +0.052 A 
ATOM     33  N   UNL     1      -0.649   1.977   5.973  0.00  0.00    -0.322 N 
ATOM     34  H   UNL     1      -1.499   1.544   5.799  0.00  0.00    +0.169 HD
ATOM     35  C   UNL     1      -0.330   3.101   5.308  0.00  0.00    +0.251 A 
ATOM     36  O   UNL     1      -1.117   3.555   4.496  0.00  0.00    -0.268 OA
ATOM     37  C   UNL     1      -1.433  -0.416   7.328  0.00  0.00    +0.046 C 
ATOM     38  C   UNL     1       3.650   2.177   8.372  0.00  0.00    +0.044 C 
ENDBRANCH  24  25
ENDBRANCH   1  24
TORSDOF 11
