REMARK  Name = ZINC20609509
REMARK  14 active torsions:
REMARK  status: ('A' for Active; 'I' for Inactive)
REMARK    1  A    between atoms: C_1  and  C_2
REMARK    2  A    between atoms: C_2  and  O_3
REMARK    3  A    between atoms: O_3  and  C_4
REMARK    4  A    between atoms: C_4  and  C_6
REMARK    5  A    between atoms: C_9  and  C_10
REMARK    6  A    between atoms: C_15  and  O_16
REMARK    7  A    between atoms: O_16  and  C_17
REMARK    8  A    between atoms: C_18  and  N_38
REMARK    9  A    between atoms: C_19  and  C_34
REMARK   10  A    between atoms: C_23  and  C_26
REMARK   11  A    between atoms: C_31  and  O_32
REMARK   12  A    between atoms: O_32  and  C_33
REMARK   13  A    between atoms: C_34  and  O_36
REMARK   14  A    between atoms: O_36  and  C_37
REMARK                            x       y       z     vdW  Elec       q    Type
REMARK                         _______ _______ _______ _____ _____    ______ ____
ROOT
ATOM      1  C   UNL     1      -2.098   2.711   0.702  0.00  0.00    +0.118 C 
ATOM      2  C   UNL     1      -1.550   3.980   0.776  0.00  0.00    +0.079 A 
ATOM      3  C   UNL     1      -0.704   4.636  -0.226  0.00  0.00    +0.024 A 
ATOM      4  C   UNL     1      -0.181   4.077  -1.377  0.00  0.00    +0.023 C 
ATOM      5  C   UNL     1      -0.529   6.017   0.255  0.00  0.00    +0.065 A 
ATOM      6  C   UNL     1      -1.182   6.112   1.464  0.00  0.00    +0.155 A 
ATOM      7  N   UNL     1      -1.746   4.878   1.812  0.00  0.00    -0.270 N 
ATOM      8  C   UNL     1      -2.357   4.608   2.983  0.00  0.00    +0.250 C 
ATOM      9  O   UNL     1      -2.696   5.523   3.702  0.00  0.00    -0.271 OA
ATOM     10  C   UNL     1      -2.626   3.191   3.417  0.00  0.00    +0.174 C 
ATOM     11  S   UNL     1      -3.199   2.217   1.995  0.00  0.00    -0.098 S 
ENDROOT
BRANCH   4  12
ATOM     12  C   UNL     1       0.792   4.822  -2.176  0.00  0.00    +0.017 A 
ATOM     13  C   UNL     1       1.864   5.476  -1.552  0.00  0.00    +0.011 A 
ATOM     14  C   UNL     1       2.778   6.172  -2.312  0.00  0.00    +0.001 A 
ATOM     15  C   UNL     1       2.638   6.237  -3.690  0.00  0.00    +0.004 A 
ATOM     16  C   UNL     1       1.585   5.601  -4.319  0.00  0.00    +0.046 A 
ATOM     17  C   UNL     1       0.656   4.891  -3.575  0.00  0.00    +0.127 A 
BRANCH  17  18
ATOM     18  O   UNL     1      -0.378   4.267  -4.191  0.00  0.00    -0.495 OA
ATOM     19  C   UNL     1      -0.450   4.382  -5.614  0.00  0.00    +0.277 C 
ENDBRANCH  17  18
ENDBRANCH   4  12
BRANCH  10  20
ATOM     20  C   UNL     1      -1.358   2.584   3.962  0.00  0.00    +0.017 A 
ATOM     21  C   UNL     1      -0.584   1.765   3.162  0.00  0.00    +0.009 A 
ATOM     22  C   UNL     1       0.578   1.208   3.662  0.00  0.00    +0.001 A 
ATOM     23  C   UNL     1       0.969   1.468   4.962  0.00  0.00    +0.004 A 
ATOM     24  C   UNL     1       0.202   2.291   5.763  0.00  0.00    +0.046 A 
ATOM     25  C   UNL     1      -0.968   2.847   5.266  0.00  0.00    +0.125 A 
BRANCH  25  26
ATOM     26  O   UNL     1      -1.727   3.652   6.055  0.00  0.00    -0.495 OA
ATOM     27  C   UNL     1      -1.203   3.981   7.343  0.00  0.00    +0.277 C 
ENDBRANCH  25  26
ENDBRANCH  10  20
BRANCH   5  28
ATOM     28  N   UNL     1       0.162   7.028  -0.387  0.00  0.00    -0.356 N 
ATOM     29  H   UNL     1       0.226   8.026   0.071  0.00  0.00    +0.142 HD
ATOM     30  H   UNL     1       0.647   6.835  -1.355  0.00  0.00    +0.142 HD
ENDBRANCH   5  28
BRANCH   1  31
ATOM     31  C   UNL     1      -1.788   1.842  -0.368  0.00  0.00    +0.348 C 
ATOM     32  O   UNL     1      -2.551   1.743  -1.313  0.00  0.00    -0.244 OA
BRANCH  31  33
ATOM     33  O   UNL     1      -0.646   1.121  -0.344  0.00  0.00    -0.461 OA
BRANCH  33  35
ATOM     34  C   UNL     1       0.932  -0.467  -1.255  0.00  0.00    +0.048 C 
ATOM     35  C   UNL     1      -0.397   0.263  -1.459  0.00  0.00    +0.229 C 
ENDBRANCH  33  35
ENDBRANCH  31  33
ENDBRANCH   1  31
BRANCH   6  36
ATOM     36  C   UNL     1      -1.270   7.287   2.242  0.00  0.00    +0.358 C 
ATOM     37  O   UNL     1      -1.190   7.221   3.455  0.00  0.00    -0.243 OA
BRANCH  36  38
ATOM     38  O   UNL     1      -1.444   8.483   1.640  0.00  0.00    -0.463 OA
ATOM     39  C   UNL     1      -1.526   9.630   2.489  0.00  0.00    +0.280 C 
ENDBRANCH  36  38
ENDBRANCH   6  36
TORSDOF 10
