REMARK  Name = ZINC20762530
REMARK  12 active torsions:
REMARK  status: ('A' for Active; 'I' for Inactive)
REMARK    1  A    between atoms: C_1  and  O_2
REMARK    2  A    between atoms: O_2  and  C_3
REMARK    3  A    between atoms: C_7  and  C_9
REMARK    4  A    between atoms: N_22  and  C_23
REMARK    5  A    between atoms: C_23  and  C_25
REMARK    6  A    between atoms: C_23  and  C_31
REMARK    7  A    between atoms: C_25  and  C_26
REMARK    8  A    between atoms: C_26  and  C_27
REMARK    9  A    between atoms: C_27  and  O_29
REMARK   10  A    between atoms: O_29  and  C_30
REMARK   11  A    between atoms: C_31  and  O_33
REMARK   12  A    between atoms: O_33  and  C_34
REMARK                            x       y       z     vdW  Elec       q    Type
REMARK                         _______ _______ _______ _____ _____    ______ ____
ROOT
ATOM      1  C   UNL     1       1.384  -4.142   2.213  0.00  0.00    +0.156 C 
ATOM      2  C   UNL     1       0.435  -4.662   3.264  0.00  0.00    +0.064 A 
ATOM      3  C   UNL     1       0.825  -5.182   4.448  0.00  0.00    +0.066 A 
ATOM      4  N   UNL     1      -0.274  -5.532   5.123  0.00  0.00    -0.240 NA
ATOM      5  C   UNL     1      -1.329  -5.252   4.403  0.00  0.00    +0.197 A 
ATOM      6  N   UNL     1      -0.924  -4.707   3.232  0.00  0.00    -0.346 N 
ATOM      7  H   UNL     1      -1.495  -4.405   2.508  0.00  0.00    +0.167 HD
ATOM      8  C   UNL     1       2.262  -5.327   4.882  0.00  0.00    +0.076 C 
ATOM      9  C   UNL     1       3.136  -4.412   4.016  0.00  0.00    +0.116 C 
ATOM     10  N   UNL     1       2.743  -4.560   2.605  0.00  0.00    -0.273 N 
ATOM     11  C   UNL     1       3.600  -5.064   1.695  0.00  0.00    +0.304 C 
ATOM     12  O   UNL     1       4.681  -5.493   2.050  0.00  0.00    -0.253 OA
ATOM     13  N   UNL     1       3.259  -5.093   0.391  0.00  0.00    -0.286 N 
ATOM     14  H   UNL     1       2.430  -4.684   0.098  0.00  0.00    +0.151 HD
ENDROOT
BRANCH   1  19
ATOM     15  C   UNL     1       1.402  -0.506   3.242  0.00  0.00    +0.120 A 
ATOM     16  C   UNL     1       1.164   0.123   2.029  0.00  0.00    +0.045 A 
ATOM     17  C   UNL     1       0.998  -0.629   0.882  0.00  0.00    +0.004 A 
ATOM     18  C   UNL     1       1.070  -2.009   0.943  0.00  0.00    +0.006 A 
ATOM     19  C   UNL     1       1.307  -2.639   2.151  0.00  0.00    -0.018 A 
ATOM     20  C   UNL     1       1.479  -1.890   3.299  0.00  0.00    +0.051 A 
BRANCH  15  22
ATOM     21  C   UNL     1       1.474   1.651   4.237  0.00  0.00    +0.277 C 
ATOM     22  O   UNL     1       1.566   0.232   4.371  0.00  0.00    -0.495 OA
ENDBRANCH  15  22
ENDBRANCH   1  19
BRANCH  13  23
ATOM     23  C   UNL     1       4.140  -5.743  -0.582  0.00  0.00    +0.184 C 
BRANCH  23  24
ATOM     24  C   UNL     1       5.199  -4.768  -1.029  0.00  0.00    +0.327 C 
ATOM     25  O   UNL     1       5.216  -3.646  -0.581  0.00  0.00    -0.249 OA
BRANCH  24  26
ATOM     26  O   UNL     1       6.124  -5.147  -1.926  0.00  0.00    -0.467 OA
ATOM     27  C   UNL     1       7.097  -4.172  -2.305  0.00  0.00    +0.280 C 
ENDBRANCH  24  26
ENDBRANCH  23  24
BRANCH  23  28
ATOM     28  C   UNL     1       3.319  -6.195  -1.791  0.00  0.00    +0.045 C 
BRANCH  28  29
ATOM     29  C   UNL     1       2.327  -7.276  -1.359  0.00  0.00    +0.123 C 
BRANCH  29  30
ATOM     30  C   UNL     1       1.519  -7.721  -2.550  0.00  0.00    +0.307 C 
ATOM     31  O   UNL     1       1.716  -7.225  -3.634  0.00  0.00    -0.251 OA
BRANCH  30  32
ATOM     32  O   UNL     1       0.580  -8.670  -2.407  0.00  0.00    -0.468 OA
ATOM     33  C   UNL     1      -0.149  -9.043  -3.579  0.00  0.00    +0.280 C 
ENDBRANCH  30  32
ENDBRANCH  29  30
ENDBRANCH  28  29
ENDBRANCH  23  28
ENDBRANCH  13  23
TORSDOF 9
