REMARK  Name = ZINC01428385
REMARK  4 active torsions:
REMARK  status: ('A' for Active; 'I' for Inactive)
REMARK    1  A    between atoms: C_6  and  N_7
REMARK    2  A    between atoms: C_11  and  C_19
REMARK    3  A    between atoms: N_12  and  C_13
REMARK    4  A    between atoms: C_19  and  O_20
REMARK                            x       y       z     vdW  Elec       q    Type
REMARK                         _______ _______ _______ _____ _____    ______ ____
ROOT
ATOM      1  C   UNL     1       0.071   1.446   0.183  0.00  0.00    +0.035 A 
ATOM      2  C   UNL     1       0.045   0.084  -0.031  0.00  0.00    +0.030 A 
ATOM      3  C   UNL     1       1.234  -0.632  -0.044  0.00  0.00    +0.069 A 
ATOM      4  C   UNL     1       2.454   0.035   0.160  0.00  0.00    +0.092 A 
ATOM      5  C   UNL     1       2.455   1.415   0.375  0.00  0.00    +0.062 A 
ATOM      6  C   UNL     1       1.275   2.104   0.385  0.00  0.00    +0.128 A 
ATOM      7  N   UNL     1       3.433  -0.903   0.095  0.00  0.00    -0.230 NA
ATOM      8  C   UNL     1       2.906  -2.071  -0.130  0.00  0.00    +0.137 A 
ATOM      9  N   UNL     1       1.553  -1.963  -0.225  0.00  0.00    -0.323 N 
ENDROOT
BRANCH   9  10
ATOM     10  C   UNL     1       0.610  -3.056  -0.472  0.00  0.00    +0.089 C 
ATOM     11  C   UNL     1      -0.169  -2.776  -1.759  0.00  0.00    +0.025 C 
ATOM     12  C   UNL     1      -1.154  -3.918  -2.018  0.00  0.00    +0.002 C 
ATOM     13  C   UNL     1      -2.130  -4.025  -0.844  0.00  0.00    +0.000 C 
ATOM     14  C   UNL     1      -1.352  -4.304   0.443  0.00  0.00    +0.002 C 
ATOM     15  C   UNL     1      -0.366  -3.163   0.701  0.00  0.00    +0.025 C 
ENDBRANCH   9  10
BRANCH   6  16
ATOM     16  N   UNL     1       1.282   3.566   0.612  0.00  0.00    +0.056 N 
ATOM     17  O   UNL     1       0.234   4.186   0.622  0.00  0.00    -0.126 OA
ATOM     18  O   UNL     1       2.336   4.150   0.790  0.00  0.00    -0.126 OA
ENDBRANCH   6  16
BRANCH   8  19
ATOM     19  C   UNL     1       3.681  -3.357  -0.266  0.00  0.00    +0.230 C 
BRANCH  19  20
ATOM     20  O   UNL     1       3.929  -3.619  -1.648  0.00  0.00    -0.387 OA
ATOM     21  H   UNL     1       4.425  -4.434  -1.811  0.00  0.00    +0.210 HD
ENDBRANCH  19  20
ENDBRANCH   8  19
TORSDOF 4
