REMARK  Name = ZINC23904460
REMARK  6 active torsions:
REMARK  status: ('A' for Active; 'I' for Inactive)
REMARK    1  A    between atoms: C_1  and  O_2
REMARK    2  A    between atoms: O_2  and  C_3
REMARK    3  A    between atoms: C_6  and  C_9
REMARK    4  A    between atoms: C_11  and  C_14
REMARK    5  A    between atoms: C_14  and  N_15
REMARK    6  A    between atoms: C_22  and  C_25
REMARK                            x       y       z     vdW  Elec       q    Type
REMARK                         _______ _______ _______ _____ _____    ______ ____
ROOT
ATOM      1  N   UNL     1       1.137   2.019   0.002  0.00  0.00    -0.291 N 
ATOM      2  C   UNL     1      -0.016   1.302   0.009  0.00  0.00    +0.203 A 
ATOM      3  N   UNL     1       0.002  -0.004   0.002  0.00  0.00    -0.230 NA
ATOM      4  C   UNL     1       1.151  -0.674  -0.013  0.00  0.00    +0.116 A 
ATOM      5  C   UNL     1       2.393  -0.018  -0.021  0.00  0.00    +0.080 A 
ATOM      6  C   UNL     1       2.338   1.413  -0.012  0.00  0.00    +0.263 A 
ATOM      7  O   UNL     1       3.364   2.071  -0.019  0.00  0.00    -0.267 OA
ATOM      8  C   UNL     1       3.557  -0.896  -0.037  0.00  0.00    +0.004 A 
ATOM      9  C   UNL     1       3.361  -2.237  -0.042  0.00  0.00    +0.056 A 
ATOM     10  S   UNL     1       1.585  -2.394  -0.026  0.00  0.00    -0.076 S 
ENDROOT
BRANCH   8  11
ATOM     11  C   UNL     1       4.928  -0.333  -0.048  0.00  0.00    -0.016 A 
ATOM     12  C   UNL     1       5.273   0.650  -0.974  0.00  0.00    +0.010 A 
ATOM     13  C   UNL     1       6.550   1.173  -0.976  0.00  0.00    +0.020 A 
ATOM     14  C   UNL     1       7.490   0.717  -0.068  0.00  0.00    +0.041 A 
ATOM     15  C   UNL     1       7.154  -0.263   0.850  0.00  0.00    +0.020 A 
ATOM     16  C   UNL     1       5.878  -0.790   0.865  0.00  0.00    +0.010 A 
ATOM     17 CL   UNL     1       9.096   1.376  -0.081  0.00  0.00    -0.084 Cl
ENDBRANCH   8  11
BRANCH   1  18
ATOM     18  C   UNL     1       1.072   3.483   0.010  0.00  0.00    +0.206 C 
BRANCH  18  21
ATOM     19  C   UNL     1       1.667   4.671   3.345  0.00  0.00    +0.259 A 
ATOM     20  N   UNL     1       2.140   4.286   2.172  0.00  0.00    -0.190 NA
ATOM     21  C   UNL     1       1.062   3.978   1.434  0.00  0.00    +0.192 A 
ATOM     22  N   UNL     1       0.009   4.188   2.167  0.00  0.00    -0.059 NA
ATOM     23  O   UNL     1       0.330   4.581   3.268  0.00  0.00    -0.333 OA
BRANCH  19  27
ATOM     24  C   UNL     1       3.936   5.948   6.701  0.00  0.00    +0.120 A 
ATOM     25  C   UNL     1       2.549   5.908   6.777  0.00  0.00    +0.046 A 
ATOM     26  C   UNL     1       1.809   5.494   5.691  0.00  0.00    +0.017 A 
ATOM     27  C   UNL     1       2.455   5.115   4.511  0.00  0.00    +0.040 A 
ATOM     28  C   UNL     1       3.850   5.152   4.441  0.00  0.00    +0.017 A 
ATOM     29  C   UNL     1       4.582   5.572   5.530  0.00  0.00    +0.046 A 
BRANCH  24  31
ATOM     30  C   UNL     1       6.082   6.374   7.627  0.00  0.00    +0.277 C 
ATOM     31  O   UNL     1       4.661   6.356   7.774  0.00  0.00    -0.495 OA
ENDBRANCH  24  31
ENDBRANCH  19  27
ENDBRANCH  18  21
ENDBRANCH   1  18
TORSDOF 5
