REMARK  Name = ZINC09271219
REMARK  14 active torsions:
REMARK  status: ('A' for Active; 'I' for Inactive)
REMARK    1  A    between atoms: C_1  and  C_2
REMARK    2  A    between atoms: C_2  and  N_67
REMARK    3  A    between atoms: C_3  and  C_4
REMARK    4  A    between atoms: C_3  and  N_67
REMARK    5  A    between atoms: C_5  and  C_6
REMARK    6  A    between atoms: C_5  and  N_67
REMARK    7  A    between atoms: C_6  and  N_7
REMARK    8  A    between atoms: C_8  and  C_27
REMARK    9  A    between atoms: C_11  and  C_12
REMARK   10  A    between atoms: C_11  and  O_22
REMARK   11  A    between atoms: C_15  and  O_18
REMARK   12  A    between atoms: O_18  and  C_19
REMARK   13  A    between atoms: C_19  and  C_20
REMARK   14  A    between atoms: C_19  and  C_21
REMARK                            x       y       z     vdW  Elec       q    Type
REMARK                         _______ _______ _______ _____ _____    ______ ____
ROOT
ATOM      1  N   UNL     1      -4.562   2.759  -0.578  0.00  0.00    -0.285 N 
ATOM      2  C   UNL     1      -3.626   3.874  -0.406  0.00  0.00    +0.144 C 
ATOM      3  C   UNL     1      -2.236   3.285  -0.467  0.00  0.00    +0.071 C 
ATOM      4  C   UNL     1      -1.040   3.967  -0.354  0.00  0.00    +0.133 C 
ATOM      5  C   UNL     1      -2.404   1.905  -0.656  0.00  0.00    +0.249 C 
ATOM      6  O   UNL     1      -1.511   1.083  -0.752  0.00  0.00    -0.282 OA
ATOM      7  C   UNL     1      -3.863   1.620  -0.720  0.00  0.00    +0.288 C 
ATOM      8  O   UNL     1      -4.351   0.520  -0.876  0.00  0.00    -0.266 OA
ENDROOT
BRANCH   2   9
ATOM      9  C   UNL     1      -3.812   4.876  -1.516  0.00  0.00    -0.019 A 
ATOM     10  C   UNL     1      -4.067   4.440  -2.803  0.00  0.00    +0.009 A 
ATOM     11  C   UNL     1      -4.238   5.356  -3.825  0.00  0.00    +0.050 A 
ATOM     12  C   UNL     1      -4.154   6.713  -3.561  0.00  0.00    +0.166 A 
ATOM     13  C   UNL     1      -3.897   7.152  -2.264  0.00  0.00    +0.167 A 
ATOM     14  C   UNL     1      -3.732   6.229  -1.244  0.00  0.00    +0.055 A 
ATOM     15  O   UNL     1      -3.863   8.517  -2.264  0.00  0.00    -0.453 OA
ATOM     16  C   UNL     1      -3.695   8.897  -3.643  0.00  0.00    +0.466 C 
ATOM     17  O   UNL     1      -4.281   7.803  -4.373  0.00  0.00    -0.453 OA
ENDBRANCH   2   9
BRANCH   4  18
ATOM     18  C   UNL     1       0.231   3.270  -0.603  0.00  0.00    +0.017 A 
ATOM     19  C   UNL     1       0.451   2.625  -1.827  0.00  0.00    +0.015 A 
ATOM     20  C   UNL     1       1.640   1.970  -2.053  0.00  0.00    +0.046 A 
ATOM     21  C   UNL     1       2.626   1.956  -1.072  0.00  0.00    +0.121 A 
ATOM     22  C   UNL     1       2.415   2.600   0.142  0.00  0.00    +0.046 A 
ATOM     23  C   UNL     1       1.228   3.254   0.380  0.00  0.00    +0.015 A 
BRANCH  21  24
ATOM     24  O   UNL     1       3.799   1.313  -1.302  0.00  0.00    -0.489 OA
BRANCH  24  25
ATOM     25  C   UNL     1       3.904   0.570  -2.518  0.00  0.00    +0.167 C 
ATOM     26  C   UNL     1       4.483   1.466  -3.615  0.00  0.00    +0.051 C 
ATOM     27  C   UNL     1       4.825  -0.633  -2.303  0.00  0.00    +0.051 C 
ENDBRANCH  24  25
ENDBRANCH  21  24
ENDBRANCH   4  18
BRANCH   4  28
ATOM     28  O   UNL     1      -1.037   5.274  -0.016  0.00  0.00    -0.506 OA
ATOM     29  H   UNL     1      -0.095   5.608   0.020  0.00  0.00    +0.292 HD
ENDBRANCH   4  28
BRANCH   1  30
ATOM     30  C   UNL     1      -6.023   2.868  -0.588  0.00  0.00    +0.090 C 
BRANCH  30  31
ATOM     31  C   UNL     1      -6.555   2.713   0.838  0.00  0.00    -0.060 C 
BRANCH  31  32
ATOM     32  N   UNL     1      -8.027   2.847   0.815  0.00  0.00    +0.380 N 
ATOM     33  H   UNL     1      -8.276   3.711   0.320  0.00  0.00    -0.082 HD
BRANCH  32  35
ATOM     34  C   UNL     1      -8.348   0.396   0.859  0.00  0.00    -0.017 C 
ATOM     35  C   UNL     1      -8.627   1.697   0.105  0.00  0.00    -0.082 C 
ENDBRANCH  32  35
BRANCH  32  36
ATOM     36  C   UNL     1      -8.550   2.917   2.195  0.00  0.00    -0.082 C 
ATOM     37  C   UNL     1     -10.055   3.188   2.141  0.00  0.00    -0.017 C 
ENDBRANCH  32  36
ENDBRANCH  31  32
ENDBRANCH  30  31
ENDBRANCH   1  30
TORSDOF 10
