REMARK  Name = ZINC14753278
REMARK  7 active torsions:
REMARK  status: ('A' for Active; 'I' for Inactive)
REMARK    1  A    between atoms: C_1  and  C_2
REMARK    2  A    between atoms: C_5  and  C_7
REMARK    3  A    between atoms: C_7  and  N_8
REMARK    4  A    between atoms: C_9  and  C_11
REMARK    5  A    between atoms: N_14  and  C_16
REMARK    6  A    between atoms: C_19  and  N_53
REMARK    7  A    between atoms: C_22  and  N_53
REMARK                            x       y       z     vdW  Elec       q    Type
REMARK                         _______ _______ _______ _____ _____    ______ ____
ROOT
ATOM      1  C   UNL     1       5.869   0.943  -3.070  0.00  0.00    +0.150 A 
ATOM      2  C   UNL     1       7.205   1.019  -3.499  0.00  0.00    +0.004 A 
ATOM      3  C   UNL     1       7.162   1.018  -4.854  0.00  0.00    +0.043 A 
ATOM      4  N   UNL     1       5.869   0.957  -5.211  0.00  0.00    -0.270 N 
ATOM      5  N   UNL     1       5.123   0.912  -4.161  0.00  0.00    -0.166 NA
ATOM      6  C   UNL     1       5.378   0.941  -6.591  0.00  0.00    +0.172 C 
ATOM      7  C   UNL     1       8.385   1.080  -5.733  0.00  0.00    +0.054 C 
ATOM      8  C   UNL     1       9.610   0.718  -4.883  0.00  0.00    -0.009 C 
ATOM      9  C   UNL     1       9.607   1.548  -3.597  0.00  0.00    -0.067 C 
ATOM     10  C   UNL     1       8.468   1.076  -2.684  0.00  0.00    +0.023 C 
ENDROOT
BRANCH   1  12
ATOM     11  N   UNL     1       4.070   0.842  -1.414  0.00  0.00    -0.303 N 
ATOM     12  C   UNL     1       5.391   0.910  -1.673  0.00  0.00    +0.265 C 
ATOM     13  O   UNL     1       6.189   0.945  -0.757  0.00  0.00    -0.268 OA
ATOM     14  H   UNL     1       3.434   0.815  -2.145  0.00  0.00    +0.150 HD
BRANCH  11  15
ATOM     15  C   UNL     1       3.596   0.810  -0.028  0.00  0.00    +0.179 C 
BRANCH  15  20
ATOM     16  C   UNL     1      -1.250   2.205   0.020  0.00  0.00    +0.086 C 
ATOM     17  C   UNL     1      -0.016   1.341   0.009  0.00  0.00    +0.102 A 
ATOM     18  C   UNL     1       0.002  -0.004   0.002  0.00  0.00    +0.045 A 
ATOM     19  C   UNL     1       1.361  -0.395  -0.013  0.00  0.00    +0.046 A 
ATOM     20  C   UNL     1       2.091   0.734  -0.014  0.00  0.00    +0.122 A 
ATOM     21  O   UNL     1       1.252   1.783  -0.000  0.00  0.00    -0.463 OA
ENDBRANCH  15  20
ENDBRANCH  11  15
ENDBRANCH   1  12
BRANCH   9  22
ATOM     22  N   UNL     1      10.893   1.374  -2.896  0.00  0.00    +0.383 N 
ATOM     23  H   UNL     1      11.224   0.411  -3.030  0.00  0.00    -0.085 HD
ATOM     24  H   UNL     1      10.760   1.553  -1.894  0.00  0.00    -0.085 HD
BRANCH  22  25
ATOM     25  C   UNL     1      11.899   2.312  -3.429  0.00  0.00    -0.071 C 
ATOM     26  C   UNL     1      12.625   1.681  -4.634  0.00  0.00    -0.016 C 
ATOM     27  C   UNL     1      14.091   2.158  -4.487  0.00  0.00    -0.002 C 
ATOM     28  C   UNL     1      14.315   2.107  -2.955  0.00  0.00    -0.002 C 
ATOM     29  C   UNL     1      12.973   2.583  -2.361  0.00  0.00    -0.016 C 
ENDBRANCH  22  25
ENDBRANCH   9  22
TORSDOF 5
