REMARK  Name = ZINC19499641
REMARK  10 active torsions:
REMARK  status: ('A' for Active; 'I' for Inactive)
REMARK    1  A    between atoms: C_1  and  C_2
REMARK    2  A    between atoms: C_2  and  C_3
REMARK    3  A    between atoms: C_3  and  C_4
REMARK    4  A    between atoms: C_3  and  C_5
REMARK    5  A    between atoms: C_3  and  N_6
REMARK    6  A    between atoms: C_7  and  C_11
REMARK    7  A    between atoms: C_11  and  C_13
REMARK    8  A    between atoms: C_11  and  N_26
REMARK    9  A    between atoms: C_19  and  C_25
REMARK   10  A    between atoms: N_29  and  C_32
REMARK                            x       y       z     vdW  Elec       q    Type
REMARK                         _______ _______ _______ _____ _____    ______ ____
ROOT
ATOM      1  C   UNL     1      -0.050  -2.989   4.688  0.00  0.00    +0.162 C 
ENDROOT
BRANCH   1   2
ATOM      2  C   UNL     1      -0.319  -2.049   3.542  0.00  0.00    +0.042 A 
ATOM      3  C   UNL     1      -0.621  -2.546   2.317  0.00  0.00    +0.021 A 
ATOM      4  C   UNL     1      -0.877  -1.606   1.224  0.00  0.00    -0.001 A 
ATOM      5  C   UNL     1      -1.194  -2.059  -0.061  0.00  0.00    +0.010 A 
ATOM      6  C   UNL     1      -1.427  -1.156  -1.059  0.00  0.00    +0.001 A 
ATOM      7  C   UNL     1      -1.359   0.208  -0.808  0.00  0.00    +0.005 A 
ATOM      8  C   UNL     1      -1.043   0.677   0.449  0.00  0.00    -0.026 A 
ATOM      9  C   UNL     1      -0.801  -0.224   1.481  0.00  0.00    +0.052 A 
ATOM     10  N   UNL     1      -0.489   0.217   2.749  0.00  0.00    -0.322 N 
ATOM     11  H   UNL     1      -0.427   1.296   2.957  0.00  0.00    +0.169 HD
ATOM     12  C   UNL     1      -0.255  -0.654   3.747  0.00  0.00    +0.254 A 
ATOM     13  O   UNL     1       0.019  -0.228   4.855  0.00  0.00    -0.268 OA
ATOM     14  C   UNL     1      -0.967   2.160   0.706  0.00  0.00    +0.046 C 
ENDBRANCH   1   2
BRANCH   1  15
ATOM     15  N   UNL     1       1.263  -2.685   5.273  0.00  0.00    -0.286 NA
ATOM     16  C   UNL     1       2.332  -2.839   4.277  0.00  0.00    +0.104 C 
ATOM     17  C   UNL     1       3.670  -2.438   4.902  0.00  0.00    +0.120 C 
ATOM     18  N   UNL     1       3.928  -3.275   6.081  0.00  0.00    -0.327 N 
ATOM     19  C   UNL     1       2.859  -3.121   7.077  0.00  0.00    +0.120 C 
ATOM     20  C   UNL     1       1.521  -3.523   6.452  0.00  0.00    +0.104 C 
BRANCH  18  21
ATOM     21  C   UNL     1       5.178  -2.986   6.638  0.00  0.00    +0.030 A 
ATOM     22  C   UNL     1       5.274  -2.605   7.970  0.00  0.00    +0.026 A 
ATOM     23  C   UNL     1       6.510  -2.324   8.519  0.00  0.00    +0.040 A 
ATOM     24  C   UNL     1       7.651  -2.412   7.740  0.00  0.00    +0.124 A 
ATOM     25  C   UNL     1       7.557  -2.786   6.410  0.00  0.00    +0.040 A 
ATOM     26  C   UNL     1       6.324  -3.073   5.858  0.00  0.00    +0.026 A 
ATOM     27  F   UNL     1       8.858  -2.132   8.277  0.00  0.00    -0.205 F 
ENDBRANCH  18  21
ENDBRANCH   1  15
BRANCH   1  29
ATOM     28  N   UNL     1      -2.076  -3.710   6.059  0.00  0.00    -0.222 N 
ATOM     29  C   UNL     1      -1.118  -2.821   5.737  0.00  0.00    +0.174 A 
ATOM     30  N   UNL     1      -1.292  -1.782   6.518  0.00  0.00    -0.111 NA
ATOM     31  N   UNL     1      -2.308  -2.018   7.274  0.00  0.00    -0.023 NA
ATOM     32  N   UNL     1      -2.783  -3.183   7.001  0.00  0.00    -0.043 NA
BRANCH  28  33
ATOM     33  C   UNL     1      -2.279  -5.028   5.452  0.00  0.00    +0.062 C 
ATOM     34  C   UNL     1      -2.474  -4.870   3.942  0.00  0.00    +0.036 C 
ATOM     35  C   UNL     1      -1.054  -5.906   5.718  0.00  0.00    +0.036 C 
BRANCH  33  37
ATOM     36  C   UNL     1      -3.731  -7.061   5.427  0.00  0.00    +0.006 C 
ATOM     37  C   UNL     1      -3.519  -5.685   6.061  0.00  0.00    +0.026 C 
ENDBRANCH  33  37
ENDBRANCH  28  33
ENDBRANCH   1  29
TORSDOF 6
