REMARK  Name = ZINC39634843
REMARK  11 active torsions:
REMARK  status: ('A' for Active; 'I' for Inactive)
REMARK    1  A    between atoms: C_1  and  C_2
REMARK    2  A    between atoms: C_2  and  C_3
REMARK    3  A    between atoms: C_2  and  N_4
REMARK    4  A    between atoms: N_4  and  C_5
REMARK    5  A    between atoms: N_4  and  C_34
REMARK    6  A    between atoms: C_5  and  C_6
REMARK    7  A    between atoms: C_6  and  N_7
REMARK    8  A    between atoms: C_8  and  C_10
REMARK    9  A    between atoms: C_21  and  C_23
REMARK   10  A    between atoms: C_34  and  C_35
REMARK   11  A    between atoms: C_34  and  C_36
REMARK                            x       y       z     vdW  Elec       q    Type
REMARK                         _______ _______ _______ _____ _____    ______ ____
ROOT
ATOM      1  C   UNL     1      -3.845   4.027  -3.616  0.00  0.00    +0.100 C 
ATOM      2  C   UNL     1      -3.189   3.625  -4.955  0.00  0.00    +0.121 C 
ATOM      3  N   UNL     1      -3.311   4.830  -5.809  0.00  0.00    -0.297 N 
ATOM      4  C   UNL     1      -3.049   5.962  -4.889  0.00  0.00    +0.115 C 
ATOM      5  C   UNL     1      -3.751   5.562  -3.576  0.00  0.00    -0.004 C 
ATOM      6  C   UNL     1      -5.147   6.176  -3.515  0.00  0.00    -0.010 C 
ATOM      7  C   UNL     1      -5.025   7.699  -3.419  0.00  0.00    -0.082 C 
ATOM      8  N   UNL     1      -4.259   8.056  -2.218  0.00  0.00    +0.379 N 
ATOM      9  C   UNL     1      -2.889   7.540  -2.326  0.00  0.00    -0.082 C 
ATOM     10  C   UNL     1      -2.921   6.010  -2.377  0.00  0.00    -0.010 C 
ATOM     11  C   UNL     1      -3.595   4.884  -7.126  0.00  0.00    +0.260 C 
ATOM     12  O   UNL     1      -3.877   3.869  -7.728  0.00  0.00    -0.271 OA
ATOM     13  H   UNL     1      -4.233   9.060  -2.124  0.00  0.00    -0.086 HD
ATOM     14  H   UNL     1      -4.705   7.656  -1.406  0.00  0.00    -0.086 HD
ENDROOT
BRANCH  11  15
ATOM     15  C   UNL     1      -3.564   6.205  -7.849  0.00  0.00    +0.296 C 
ATOM     16  C   UNL     1      -2.115   6.698  -7.964  0.00  0.00    +0.283 C 
ATOM     17  O   UNL     1      -2.120   7.945  -8.667  0.00  0.00    -0.484 OA
ATOM     18  C   UNL     1      -2.873   8.006  -9.799  0.00  0.00    +0.162 A 
ATOM     19  C   UNL     1      -2.649   9.027 -10.711  0.00  0.00    +0.049 A 
ATOM     20  C   UNL     1      -3.408   9.103 -11.864  0.00  0.00    +0.004 A 
ATOM     21  C   UNL     1      -4.391   8.163 -12.111  0.00  0.00    +0.004 A 
ATOM     22  C   UNL     1      -4.618   7.143 -11.207  0.00  0.00    +0.049 A 
ATOM     23  C   UNL     1      -3.859   7.059 -10.049  0.00  0.00    +0.163 A 
ATOM     24  O   UNL     1      -4.089   6.044  -9.171  0.00  0.00    -0.473 OA
ENDBRANCH  11  15
BRANCH   1  26
ATOM     25  N   UNL     1      -3.740   3.109  -1.322  0.00  0.00    -0.317 N 
ATOM     26  C   UNL     1      -3.090   3.425  -2.459  0.00  0.00    +0.218 C 
ATOM     27  O   UNL     1      -1.897   3.225  -2.552  0.00  0.00    -0.275 OA
ATOM     28  H   UNL     1      -4.694   3.269  -1.247  0.00  0.00    +0.149 HD
BRANCH  25  29
ATOM     29  C   UNL     1      -3.005   2.523  -0.197  0.00  0.00    +0.085 C 
BRANCH  29  30
ATOM     30  C   UNL     1      -3.970   2.261   0.961  0.00  0.00    -0.059 C 
BRANCH  30  31
ATOM     31  N   UNL     1      -3.213   1.816   2.138  0.00  0.00    +0.384 N 
ATOM     32  H   UNL     1      -2.481   2.481   2.339  0.00  0.00    -0.081 HD
BRANCH  31  34
ATOM     33  C   UNL     1      -3.491  -0.260   0.869  0.00  0.00    -0.014 C 
ATOM     34  C   UNL     1      -2.617   0.500   1.868  0.00  0.00    -0.074 C 
ATOM     35  C   UNL     1      -1.216   0.685   1.282  0.00  0.00    -0.014 C 
ENDBRANCH  31  34
BRANCH  31  36
ATOM     36  C   UNL     1      -4.115   1.717   3.293  0.00  0.00    -0.074 C 
ATOM     37  C   UNL     1      -3.306   1.374   4.545  0.00  0.00    -0.014 C 
ATOM     38  C   UNL     1      -4.830   3.054   3.498  0.00  0.00    -0.014 C 
ENDBRANCH  31  36
ENDBRANCH  30  31
ENDBRANCH  29  30
ENDBRANCH  25  29
ENDBRANCH   1  26
TORSDOF 7
