REMARK  Name = ZINC36005517
REMARK  14 active torsions:
REMARK  status: ('A' for Active; 'I' for Inactive)
REMARK    1  A    between atoms: C_1  and  C_2
REMARK    2  A    between atoms: C_2  and  O_3
REMARK    3  A    between atoms: O_3  and  C_4
REMARK    4  A    between atoms: C_4  and  C_6
REMARK    5  A    between atoms: C_7  and  C_23
REMARK    6  A    between atoms: N_8  and  C_22
REMARK    7  A    between atoms: C_12  and  C_14
REMARK    8  A    between atoms: C_17  and  C_21
REMARK    9  A    between atoms: C_19  and  C_20
REMARK   10  A    between atoms: C_23  and  N_24
REMARK   11  A    between atoms: N_33  and  C_34
REMARK   12  A    between atoms: C_34  and  C_35
REMARK   13  A    between atoms: C_34  and  C_36
REMARK   14  A    between atoms: C_34  and  C_37
REMARK                            x       y       z     vdW  Elec       q    Type
REMARK                         _______ _______ _______ _____ _____    ______ ____
ROOT
ATOM      1  C   UNL     1      -2.953  -2.564   0.042  0.00  0.00    +0.076 C 
ATOM      2  C   UNL     1      -3.074  -3.902  -0.098  0.00  0.00    +0.010 C 
ATOM      3  N   UNL     1      -4.228  -4.460  -0.568  0.00  0.00    -0.264 N 
ATOM      4  C   UNL     1      -5.307  -3.750  -0.919  0.00  0.00    +0.307 C 
ATOM      5  O   UNL     1      -6.291  -4.336  -1.327  0.00  0.00    -0.252 OA
ATOM      6  N   UNL     1      -5.339  -2.405  -0.836  0.00  0.00    -0.288 N 
ATOM      7  C   UNL     1      -4.144  -1.706  -0.334  0.00  0.00    +0.144 C 
ATOM      8  C   UNL     1      -4.290  -5.918  -0.694  0.00  0.00    +0.139 C 
ATOM      9  H   UNL     1      -6.131  -1.910  -1.096  0.00  0.00    +0.151 HD
ENDROOT
BRANCH   7  10
ATOM     10  C   UNL     1      -3.699  -0.735  -1.398  0.00  0.00    -0.020 A 
ATOM     11  C   UNL     1      -2.566  -0.999  -2.145  0.00  0.00    +0.006 A 
ATOM     12  C   UNL     1      -2.158  -0.109  -3.120  0.00  0.00    +0.004 A 
ATOM     13  C   UNL     1      -2.883   1.046  -3.349  0.00  0.00    -0.050 A 
ATOM     14  C   UNL     1      -4.016   1.310  -2.603  0.00  0.00    +0.007 A 
ATOM     15  C   UNL     1      -4.427   0.417  -1.630  0.00  0.00    -0.045 A 
ATOM     16  C   UNL     1      -5.665   0.702  -0.820  0.00  0.00    +0.044 C 
ATOM     17  C   UNL     1      -2.438   2.017  -4.412  0.00  0.00    +0.044 C 
ENDBRANCH   7  10
BRANCH   1  18
ATOM     18  C   UNL     1      -1.758  -1.985   0.528  0.00  0.00    +0.339 C 
ATOM     19  O   UNL     1      -0.805  -2.692   0.798  0.00  0.00    -0.245 OA
BRANCH  18  20
ATOM     20  O   UNL     1      -1.675  -0.648   0.693  0.00  0.00    -0.462 OA
BRANCH  20  22
ATOM     21  C   UNL     1      -0.471   1.409   1.096  0.00  0.00    +0.048 C 
ATOM     22  C   UNL     1      -0.403  -0.120   1.076  0.00  0.00    +0.229 C 
ENDBRANCH  20  22
ENDBRANCH  18  20
ENDBRANCH   1  18
BRANCH   2  23
ATOM     23  C   UNL     1      -1.915  -4.793   0.269  0.00  0.00    -0.026 C 
BRANCH  23  24
ATOM     24  N   UNL     1      -1.891  -4.990   1.725  0.00  0.00    +0.384 N 
ATOM     25  C   UNL     1      -0.628  -5.630   2.082  0.00  0.00    -0.077 C 
ATOM     26  C   UNL     1      -0.236  -5.215   3.483  0.00  0.00    +0.000 C 
ATOM     27  C   UNL     1      -0.758  -6.256   4.491  0.00  0.00    +0.107 C 
ATOM     28  N   UNL     1      -2.109  -6.723   4.120  0.00  0.00    -0.287 N 
ATOM     29  C   UNL     1      -3.135  -5.823   3.636  0.00  0.00    +0.091 C 
ATOM     30  C   UNL     1      -3.049  -5.708   2.097  0.00  0.00    -0.059 C 
ATOM     31  C   UNL     1      -2.397  -8.035   4.235  0.00  0.00    +0.303 C 
ATOM     32  O   UNL     1      -1.573  -8.800   4.698  0.00  0.00    -0.253 OA
ATOM     33  N   UNL     1      -3.598  -8.499   3.837  0.00  0.00    -0.294 N 
ATOM     34  H   UNL     1      -4.229  -7.903   3.404  0.00  0.00    +0.151 HD
ATOM     35  H   UNL     1      -1.922  -4.083   2.167  0.00  0.00    -0.081 HD
BRANCH  33  36
ATOM     36  C   UNL     1      -3.951  -9.903   4.059  0.00  0.00    +0.028 C 
ATOM     37  C   UNL     1      -3.916 -10.207   5.558  0.00  0.00    +0.031 C 
ATOM     38  C   UNL     1      -5.358 -10.167   3.518  0.00  0.00    +0.031 C 
ATOM     39  C   UNL     1      -2.949 -10.802   3.333  0.00  0.00    +0.031 C 
ENDBRANCH  33  36
ENDBRANCH  23  24
ENDBRANCH   2  23
TORSDOF 7
