REMARK  Name = ZINC52858918
REMARK  7 active torsions:
REMARK  status: ('A' for Active; 'I' for Inactive)
REMARK    1  A    between atoms: C_1  and  C_2
REMARK    2  A    between atoms: C_2  and  C_4
REMARK    3  A    between atoms: C_2  and  N_11
REMARK    4  A    between atoms: C_8  and  N_10
REMARK    5  A    between atoms: N_11  and  C_12
REMARK    6  A    between atoms: N_11  and  C_13
REMARK    7  A    between atoms: C_18  and  C_19
REMARK                            x       y       z     vdW  Elec       q    Type
REMARK                         _______ _______ _______ _____ _____    ______ ____
ROOT
ATOM      1  N   UNL     1       0.955  -0.622  -1.041  0.00  0.00    -0.326 N 
ATOM      2  C   UNL     1       0.613  -0.433  -2.453  0.00  0.00    +0.130 C 
ENDROOT
BRANCH   1   3
ATOM      3  C   UNL     1       2.178  -1.181  -0.691  0.00  0.00    +0.042 A 
ATOM      4  C   UNL     1       2.309  -2.559  -0.582  0.00  0.00    +0.025 A 
ATOM      5  C   UNL     1       3.525  -3.113  -0.235  0.00  0.00    +0.022 A 
ATOM      6  C   UNL     1       4.622  -2.300   0.008  0.00  0.00    +0.042 A 
ATOM      7  C   UNL     1       4.511  -0.930  -0.096  0.00  0.00    +0.035 A 
ATOM      8  C   UNL     1       3.288  -0.356  -0.452  0.00  0.00    +0.059 A 
ATOM      9 CL   UNL     1       6.144  -3.012   0.445  0.00  0.00    -0.084 Cl
BRANCH   8  10
ATOM     10  C   UNL     1       3.162   1.109  -0.571  0.00  0.00    +0.243 C 
ATOM     11  O   UNL     1       2.077   1.610  -0.792  0.00  0.00    -0.270 OA
ATOM     12  N   UNL     1       4.251   1.891  -0.434  0.00  0.00    -0.325 N 
ATOM     13  H   UNL     1       5.117   1.491  -0.258  0.00  0.00    +0.145 HD
ATOM     14  H   UNL     1       4.169   2.854  -0.512  0.00  0.00    +0.145 HD
ENDBRANCH   8  10
ENDBRANCH   1   3
BRANCH   1  16
ATOM     15  C   UNL     1      -1.183   0.496  -0.637  0.00  0.00    +0.033 C 
ATOM     16  C   UNL     1       0.007  -0.221   0.003  0.00  0.00    +0.100 C 
BRANCH  16  17
ATOM     17  C   UNL     1      -0.478  -1.444   0.736  0.00  0.00    -0.026 A 
ATOM     18  C   UNL     1      -0.910  -2.550   0.026  0.00  0.00    +0.005 A 
ATOM     19  C   UNL     1      -1.357  -3.674   0.695  0.00  0.00    +0.002 A 
ATOM     20  C   UNL     1      -1.373  -3.697   2.076  0.00  0.00    +0.023 A 
ATOM     21  C   UNL     1      -0.940  -2.588   2.793  0.00  0.00    +0.025 A 
ATOM     22  C   UNL     1      -0.487  -1.462   2.117  0.00  0.00    +0.028 A 
BRANCH  21  23
ATOM     23  N   UNL     1      -0.955  -2.608   4.189  0.00  0.00    -0.358 N 
ATOM     24  H   UNL     1      -1.269  -3.396   4.660  0.00  0.00    +0.142 HD
ATOM     25  H   UNL     1      -0.652  -1.833   4.688  0.00  0.00    +0.142 HD
ENDBRANCH  21  23
ENDBRANCH  16  17
ENDBRANCH   1  16
TORSDOF 5
