REMARK  Name = ZINC35610741
REMARK  4 active torsions:
REMARK  status: ('A' for Active; 'I' for Inactive)
REMARK    1  A    between atoms: C_1  and  C_2
REMARK    2  A    between atoms: C_3  and  C_23
REMARK    3  A    between atoms: C_7  and  N_11
REMARK    4  A    between atoms: N_11  and  N_12
REMARK                            x       y       z     vdW  Elec       q    Type
REMARK                         _______ _______ _______ _____ _____    ______ ____
ROOT
ATOM      1  N   UNL     1       0.480   1.139   2.692  0.00  0.00    -0.220 N 
ATOM      2  H   UNL     1       0.339   1.765   1.964  0.00  0.00    +0.176 HD
ENDROOT
BRANCH   1   9
ATOM      3  C   UNL     1      -0.849   1.288   0.150  0.00  0.00    +0.045 C 
ATOM      4  C   UNL     1      -0.466  -0.169   0.101  0.00  0.00    -0.028 A 
ATOM      5  C   UNL     1      -0.788  -0.919  -0.963  0.00  0.00    -0.008 A 
ATOM      6  S   UNL     1      -0.134  -2.526  -0.553  0.00  0.00    -0.074 S 
ATOM      7  C   UNL     1       0.555  -2.146   1.036  0.00  0.00    +0.114 A 
ATOM      8  C   UNL     1       0.261  -0.774   1.202  0.00  0.00    +0.052 A 
ATOM      9  C   UNL     1       0.716  -0.197   2.420  0.00  0.00    +0.150 A 
ATOM     10  N   UNL     1       1.367  -0.953   3.289  0.00  0.00    -0.219 NA
ATOM     11  C   UNL     1       1.611  -2.231   3.065  0.00  0.00    +0.224 A 
ATOM     12  N   UNL     1       1.206  -2.826   1.959  0.00  0.00    -0.228 NA
ATOM     13  C   UNL     1      -1.528  -0.503  -2.208  0.00  0.00    +0.052 C 
ENDBRANCH   1   9
BRANCH   1  14
ATOM     14  N   UNL     1       0.446   1.588   4.019  0.00  0.00    -0.185 NA
ATOM     15  C   UNL     1       0.353   2.858   4.272  0.00  0.00    +0.067 C 
ATOM     16  C   UNL     1      -0.180   3.356   5.599  0.00  0.00    +0.058 C 
ATOM     17  C   UNL     1      -1.117   4.534   5.303  0.00  0.00    +0.011 C 
ATOM     18  C   UNL     1      -0.317   5.675   4.683  0.00  0.00    +0.036 C 
ATOM     19  C   UNL     1       0.441   5.213   3.468  0.00  0.00    -0.038 A 
ATOM     20  C   UNL     1       0.769   3.870   3.277  0.00  0.00    +0.001 A 
ATOM     21  C   UNL     1       1.483   3.474   2.144  0.00  0.00    +0.010 A 
ATOM     22  C   UNL     1       1.868   4.417   1.213  0.00  0.00    +0.001 A 
ATOM     23  C   UNL     1       1.545   5.748   1.404  0.00  0.00    +0.000 A 
ATOM     24  C   UNL     1       0.829   6.144   2.522  0.00  0.00    +0.004 A 
ENDBRANCH   1  14
TORSDOF 2
