REMARK  Name = ZINC22101900
REMARK  8 active torsions:
REMARK  status: ('A' for Active; 'I' for Inactive)
REMARK    1  A    between atoms: C_1  and  C_2
REMARK    2  A    between atoms: C_9  and  C_16
REMARK    3  A    between atoms: C_11  and  O_12
REMARK    4  A    between atoms: C_16  and  S_17
REMARK    5  A    between atoms: S_17  and  C_18
REMARK    6  A    between atoms: C_21  and  C_24
REMARK    7  A    between atoms: C_27  and  O_30
REMARK    8  A    between atoms: O_30  and  C_31
REMARK                            x       y       z     vdW  Elec       q    Type
REMARK                         _______ _______ _______ _____ _____    ______ ____
ROOT
ATOM      1  C   UNL     1      -2.193   1.470   0.609  0.00  0.00    +0.109 C 
ATOM      2  C   UNL     1      -2.168  -0.036   0.609  0.00  0.00    +0.214 C 
ATOM      3  O   UNL     1      -3.058  -0.658   1.150  0.00  0.00    -0.276 OA
ATOM      4  N   UNL     1      -1.156  -0.694   0.009  0.00  0.00    -0.286 N 
ATOM      5  C   UNL     1      -1.081  -2.085   0.091  0.00  0.00    +0.037 A 
ATOM      6  C   UNL     1       0.164  -2.708   0.166  0.00  0.00    +0.024 A 
ATOM      7  C   UNL     1       0.253  -4.066   0.253  0.00  0.00    +0.013 A 
ATOM      8  C   UNL     1      -0.913  -4.841   0.254  0.00  0.00    +0.022 A 
ATOM      9  C   UNL     1      -0.848  -6.301   0.341  0.00  0.00    -0.020 A 
ATOM     10  C   UNL     1      -2.014  -6.998   0.339  0.00  0.00    +0.092 A 
ATOM     11  C   UNL     1      -3.242  -6.309   0.254  0.00  0.00    +0.285 A 
ATOM     12  O   UNL     1      -3.295  -4.971   0.176  0.00  0.00    -0.425 OA
ATOM     13  C   UNL     1      -2.173  -4.219   0.173  0.00  0.00    +0.141 A 
ATOM     14  C   UNL     1      -2.246  -2.837   0.092  0.00  0.00    +0.070 A 
ATOM     15  H   UNL     1      -0.388  -0.134  -0.545  0.00  0.00    +0.155 HD
ENDROOT
BRANCH  11  16
ATOM     16  O   UNL     1      -4.280  -6.946   0.253  0.00  0.00    -0.480 OA
ATOM     17  H   UNL     1      -5.246  -6.423   0.188  0.00  0.00    +0.295 HD
ENDBRANCH  11  16
BRANCH   9  18
ATOM     18  C   UNL     1       0.478  -7.013   0.429  0.00  0.00    +0.113 C 
BRANCH  18  19
ATOM     19  S   UNL     1       1.070  -7.395  -1.238  0.00  0.00    -0.082 S 
BRANCH  19  20
ATOM     20  C   UNL     1       2.589  -8.198  -0.846  0.00  0.00    +0.185 A 
ATOM     21  N   UNL     1       3.483  -8.720  -1.738  0.00  0.00    -0.201 NA
ATOM     22  H   UNL     1       2.656  -8.144   1.341  0.00  0.00    +0.191 HD
ATOM     23  C   UNL     1       4.506  -9.237  -0.978  0.00  0.00    +0.182 A 
ATOM     24  N   UNL     1       4.202  -9.015   0.280  0.00  0.00    -0.152 NA
ATOM     25  N   UNL     1       3.072  -8.407   0.357  0.00  0.00    -0.253 N 
BRANCH  23  26
ATOM     26  C   UNL     1       5.720  -9.915  -1.482  0.00  0.00    +0.021 A 
ATOM     27  C   UNL     1       5.912 -10.076  -2.855  0.00  0.00    +0.015 A 
ATOM     28  C   UNL     1       7.047 -10.705  -3.321  0.00  0.00    +0.046 A 
ATOM     29  C   UNL     1       7.994 -11.185  -2.426  0.00  0.00    +0.120 A 
ATOM     30  C   UNL     1       7.804 -11.031  -1.059  0.00  0.00    +0.046 A 
ATOM     31  C   UNL     1       6.674 -10.400  -0.585  0.00  0.00    +0.015 A 
BRANCH  29  32
ATOM     32  O   UNL     1       9.108 -11.809  -2.889  0.00  0.00    -0.495 OA
ATOM     33  C   UNL     1       9.241 -11.934  -4.306  0.00  0.00    +0.277 C 
ENDBRANCH  29  32
ENDBRANCH  23  26
ENDBRANCH  19  20
ENDBRANCH  18  19
ENDBRANCH   9  18
TORSDOF 6
