REMARK  Name = ZINC02792716
REMARK  10 active torsions:
REMARK  status: ('A' for Active; 'I' for Inactive)
REMARK    1  A    between atoms: C_1  and  C_2
REMARK    2  A    between atoms: C_5  and  N_9
REMARK    3  A    between atoms: C_6  and  C_8
REMARK    4  A    between atoms: C_10  and  C_15
REMARK    5  A    between atoms: C_15  and  S_16
REMARK    6  A    between atoms: S_16  and  C_17
REMARK    7  A    between atoms: C_20  and  C_29
REMARK    8  A    between atoms: N_21  and  C_22
REMARK    9  A    between atoms: C_22  and  C_23
REMARK   10  A    between atoms: N_32  and  C_34
REMARK                            x       y       z     vdW  Elec       q    Type
REMARK                         _______ _______ _______ _____ _____    ______ ____
ROOT
ATOM      1  C   UNL     1       6.719   4.096   2.656  0.00  0.00    +0.192 A 
ATOM      2  N   UNL     1       7.427   3.033   2.965  0.00  0.00    -0.122 NA
ATOM      3  N   UNL     1       8.461   3.376   3.648  0.00  0.00    -0.127 NA
ATOM      4  C   UNL     1       8.476   4.677   3.816  0.00  0.00    +0.185 A 
ATOM      5  N   UNL     1       7.363   5.179   3.181  0.00  0.00    -0.298 N 
ENDROOT
BRANCH   4   6
ATOM      6  C   UNL     1       9.498   5.458   4.546  0.00  0.00    +0.130 A 
ATOM      7  C   UNL     1      10.636   4.934   5.194  0.00  0.00    +0.052 A 
ATOM      8  C   UNL     1      11.316   5.967   5.735  0.00  0.00    +0.108 A 
ATOM      9  N   UNL     1      10.642   7.104   5.456  0.00  0.00    -0.274 N 
ATOM     10  N   UNL     1       9.506   6.765   4.710  0.00  0.00    -0.168 NA
ATOM     11  C   UNL     1      11.032   8.456   5.862  0.00  0.00    +0.172 C 
ENDBRANCH   4   6
BRANCH   1  12
ATOM     12  S   UNL     1       5.220   4.119   1.729  0.00  0.00    -0.078 S 
BRANCH  12  13
ATOM     13  C   UNL     1       5.030   2.350   1.395  0.00  0.00    +0.154 C 
BRANCH  13  15
ATOM     14  N   UNL     1       2.523   1.887   1.088  0.00  0.00    -0.273 N 
ATOM     15  C   UNL     1       3.776   2.123   0.589  0.00  0.00    +0.149 A 
ATOM     16  N   UNL     1       3.684   2.116  -0.711  0.00  0.00    -0.132 NA
ATOM     17  N   UNL     1       2.471   1.887  -1.067  0.00  0.00    -0.121 NA
ATOM     18  C   UNL     1       1.714   1.735  -0.005  0.00  0.00    +0.207 A 
ATOM     19  S   UNL     1      -0.017   1.406   0.010  0.00  0.00    -0.009 SA
BRANCH  14  24
ATOM     20  C   UNL     1       1.003   1.586   6.548  0.00  0.00    +0.044 C 
ATOM     21  C   UNL     1       1.406   1.666   5.099  0.00  0.00    -0.050 A 
ATOM     22  C   UNL     1       1.815   0.525   4.432  0.00  0.00    +0.005 A 
ATOM     23  C   UNL     1       2.181   0.595   3.102  0.00  0.00    +0.027 A 
ATOM     24  C   UNL     1       2.147   1.813   2.437  0.00  0.00    +0.053 A 
ATOM     25  C   UNL     1       1.736   2.956   3.108  0.00  0.00    -0.026 A 
ATOM     26  C   UNL     1       1.366   2.880   4.437  0.00  0.00    +0.008 A 
ATOM     27  C   UNL     1       1.692   4.279   2.388  0.00  0.00    +0.046 C 
ENDBRANCH  14  24
ENDBRANCH  13  15
ENDBRANCH  12  13
ENDBRANCH   1  12
BRANCH   5  28
ATOM     28  C   UNL     1       6.954   6.583   3.090  0.00  0.00    +0.157 C 
BRANCH  28  29
ATOM     29  C   UNL     1       6.055   6.930   4.279  0.00  0.00    +0.138 C 
ATOM     30  C   UNL     1       5.526   8.373   4.131  0.00  0.00    +0.035 C 
ATOM     31  C   UNL     1       5.584   8.897   5.592  0.00  0.00    +0.031 C 
ATOM     32  C   UNL     1       6.844   8.163   6.117  0.00  0.00    +0.160 C 
ATOM     33  O   UNL     1       6.811   6.869   5.494  0.00  0.00    -0.375 OA
ENDBRANCH  28  29
ENDBRANCH   5  28
TORSDOF 7
