REMARK  Name = ZINC39663921
REMARK  14 active torsions:
REMARK  status: ('A' for Active; 'I' for Inactive)
REMARK    1  A    between atoms: C_1  and  C_2
REMARK    2  A    between atoms: C_2  and  C_3
REMARK    3  A    between atoms: C_3  and  C_5
REMARK    4  A    between atoms: C_3  and  C_6
REMARK    5  A    between atoms: C_6  and  C_7
REMARK    6  A    between atoms: C_11  and  C_20
REMARK    7  A    between atoms: N_22  and  C_23
REMARK    8  A    between atoms: C_23  and  C_24
REMARK    9  A    between atoms: C_24  and  C_26
REMARK   10  A    between atoms: C_24  and  N_34
REMARK   11  A    between atoms: C_29  and  O_32
REMARK   12  A    between atoms: O_32  and  C_33
REMARK   13  A    between atoms: N_34  and  C_35
REMARK   14  A    between atoms: N_34  and  C_36
REMARK                            x       y       z     vdW  Elec       q    Type
REMARK                         _______ _______ _______ _____ _____    ______ ____
ROOT
ATOM      1  C   UNL     1      -3.077  -3.833  -0.414  0.00  0.00    +0.216 C 
ATOM      2  O   UNL     1      -3.994  -3.050  -0.550  0.00  0.00    -0.276 OA
ATOM      3  N   UNL     1      -3.326  -5.106  -0.051  0.00  0.00    -0.300 N 
ATOM      4  C   UNL     1      -2.347  -6.196   0.170  0.00  0.00    +0.121 C 
ATOM      5  C   UNL     1      -2.884  -6.960   1.401  0.00  0.00    +0.100 C 
ATOM      6  C   UNL     1      -4.390  -6.654   1.427  0.00  0.00    -0.004 C 
ATOM      7  C   UNL     1      -4.642  -5.731   0.226  0.00  0.00    +0.115 C 
ATOM      8  C   UNL     1      -4.761  -5.936   2.722  0.00  0.00    -0.010 C 
ATOM      9  C   UNL     1      -6.273  -5.693   2.750  0.00  0.00    -0.082 C 
ATOM     10  N   UNL     1      -6.979  -6.978   2.658  0.00  0.00    +0.379 N 
ATOM     11  C   UNL     1      -6.689  -7.618   1.370  0.00  0.00    -0.082 C 
ATOM     12  C   UNL     1      -5.195  -7.942   1.283  0.00  0.00    -0.010 C 
ATOM     13  H   UNL     1      -6.675  -7.581   3.408  0.00  0.00    -0.086 HD
ATOM     14  H   UNL     1      -7.972  -6.820   2.738  0.00  0.00    -0.086 HD
ENDROOT
BRANCH   5  15
ATOM     15  C   UNL     1      -2.222  -6.458   2.659  0.00  0.00    +0.218 C 
ATOM     16  O   UNL     1      -1.821  -5.315   2.719  0.00  0.00    -0.275 OA
ATOM     17  N   UNL     1      -2.075  -7.280   3.717  0.00  0.00    -0.316 N 
ATOM     18  H   UNL     1      -2.395  -8.195   3.669  0.00  0.00    +0.149 HD
BRANCH  17  19
ATOM     19  C   UNL     1      -1.432  -6.793   4.940  0.00  0.00    +0.093 C 
BRANCH  19  20
ATOM     20  C   UNL     1      -1.281  -7.948   5.932  0.00  0.00    -0.021 C 
BRANCH  20  21
ATOM     21  C   UNL     1      -0.348  -8.983   5.359  0.00  0.00    -0.059 A 
ATOM     22  C   UNL     1       1.020  -8.795   5.431  0.00  0.00    +0.005 A 
ATOM     23  C   UNL     1       1.877  -9.743   4.906  0.00  0.00    +0.046 A 
ATOM     24  C   UNL     1       1.364 -10.885   4.308  0.00  0.00    +0.120 A 
ATOM     25  C   UNL     1      -0.009 -11.071   4.237  0.00  0.00    +0.046 A 
ATOM     26  C   UNL     1      -0.862 -10.123   4.768  0.00  0.00    +0.005 A 
BRANCH  24  27
ATOM     27  O   UNL     1       2.205 -11.818   3.790  0.00  0.00    -0.495 OA
ATOM     28  C   UNL     1       1.607 -12.968   3.189  0.00  0.00    +0.277 C 
ENDBRANCH  24  27
ENDBRANCH  20  21
BRANCH  20  29
ATOM     29  N   UNL     1      -0.732  -7.439   7.196  0.00  0.00    +0.382 N 
ATOM     30  C   UNL     1      -1.663  -6.463   7.777  0.00  0.00    -0.096 C 
ATOM     31  C   UNL     1      -0.543  -8.555   8.132  0.00  0.00    -0.096 C 
ATOM     32  H   UNL     1       0.157  -6.993   7.021  0.00  0.00    -0.082 HD
ENDBRANCH  20  29
ENDBRANCH  19  20
ENDBRANCH  17  19
ENDBRANCH   5  15
BRANCH   1  33
ATOM     33  C   UNL     1      -1.659  -3.381  -0.652  0.00  0.00    +0.099 C 
BRANCH  33  34
ATOM     34  C   UNL     1      -1.655  -1.904  -1.051  0.00  0.00    -0.006 C 
ATOM     35  C   UNL     1      -2.364  -1.736  -2.396  0.00  0.00    +0.008 C 
BRANCH  34  37
ATOM     36  C   UNL     1      -0.205   0.092  -1.447  0.00  0.00    +0.004 C 
ATOM     37  C   UNL     1      -0.211  -1.412  -1.171  0.00  0.00    +0.000 C 
ENDBRANCH  34  37
ENDBRANCH  33  34
ENDBRANCH   1  33
TORSDOF 9
