REMARK  Name = ZINC25383509
REMARK  8 active torsions:
REMARK  status: ('A' for Active; 'I' for Inactive)
REMARK    1  A    between atoms: C_3  and  C_6
REMARK    2  A    between atoms: C_6  and  C_8
REMARK    3  A    between atoms: C_6  and  N_30
REMARK    4  A    between atoms: C_8  and  N_9
REMARK    5  A    between atoms: C_10  and  C_12
REMARK    6  A    between atoms: C_15  and  S_18
REMARK    7  A    between atoms: S_18  and  N_21
REMARK    8  A    between atoms: N_21  and  C_22
REMARK                            x       y       z     vdW  Elec       q    Type
REMARK                         _______ _______ _______ _____ _____    ______ ____
ROOT
ATOM      1  C   UNL     1       2.851   4.625  -3.669  0.00  0.00    +0.037 A 
ATOM      2  C   UNL     1       3.044   3.329  -4.147  0.00  0.00    +0.015 A 
ATOM      3  C   UNL     1       2.021   2.407  -4.064  0.00  0.00    +0.029 A 
ATOM      4  C   UNL     1       0.806   2.766  -3.508  0.00  0.00    +0.105 A 
ATOM      5  C   UNL     1       0.606   4.051  -3.037  0.00  0.00    +0.029 A 
ATOM      6  C   UNL     1       1.623   4.981  -3.109  0.00  0.00    +0.015 A 
ENDROOT
BRANCH   1   8
ATOM      7  N   UNL     1       3.754   6.870  -3.291  0.00  0.00    -0.313 N 
ATOM      8  C   UNL     1       3.943   5.618  -3.754  0.00  0.00    +0.244 C 
ATOM      9  O   UNL     1       5.012   5.306  -4.241  0.00  0.00    -0.270 OA
ATOM     10  H   UNL     1       2.787   7.153  -2.850  0.00  0.00    +0.149 HD
BRANCH   7  11
ATOM     11  C   UNL     1       4.836   7.854  -3.375  0.00  0.00    +0.094 C 
BRANCH  11  12
ATOM     12  C   UNL     1       4.328   9.214  -2.894  0.00  0.00    -0.013 C 
BRANCH  12  13
ATOM     13  N   UNL     1       5.372  10.227  -3.097  0.00  0.00    +0.386 N 
ATOM     14  C   UNL     1       5.748  10.324  -4.531  0.00  0.00    -0.078 C 
ATOM     15  C   UNL     1       6.410  11.721  -4.630  0.00  0.00    -0.020 C 
ATOM     16  C   UNL     1       5.552  12.579  -3.672  0.00  0.00    -0.020 C 
ATOM     17  C   UNL     1       4.888  11.571  -2.716  0.00  0.00    -0.078 C 
ATOM     18  H   UNL     1       6.221   9.912  -2.472  0.00  0.00    -0.081 HD
ENDBRANCH  12  13
BRANCH  12  21
ATOM     19  C   UNL     1       2.694   8.936   0.535  0.00  0.00    +0.008 A 
ATOM     20  C   UNL     1       2.770   8.991  -0.844  0.00  0.00    +0.009 A 
ATOM     21  C   UNL     1       3.985   9.133  -1.429  0.00  0.00    -0.022 A 
ATOM     22  S   UNL     1       5.071   9.206  -0.014  0.00  0.00    -0.103 S 
ATOM     23  C   UNL     1       3.834   9.036   1.262  0.00  0.00    +0.045 A 
ENDBRANCH  12  21
ENDBRANCH  11  12
ENDBRANCH   7  11
ENDBRANCH   1   8
BRANCH   4  24
ATOM     24  S   UNL     1      -0.496   1.583  -3.407  0.00  0.00    +0.059 S 
ATOM     25  O   UNL     1      -0.244   0.614  -4.415  0.00  0.00    -0.153 OA
ATOM     26  O   UNL     1      -1.710   2.319  -3.344  0.00  0.00    -0.153 OA
BRANCH  24  27
ATOM     27  N   UNL     1      -0.338   0.804  -1.953  0.00  0.00    -0.185 NA
ATOM     28  H   UNL     1       0.058  -0.222  -1.933  0.00  0.00    +0.148 HD
BRANCH  27  29
ATOM     29  C   UNL     1      -0.515   1.546  -0.702  0.00  0.00    +0.099 C 
ATOM     30  C   UNL     1      -1.953   1.365  -0.190  0.00  0.00    +0.044 C 
ATOM     31  C   UNL     1      -2.061   1.867   1.270  0.00  0.00    +0.167 C 
ATOM     32  S   UNL     1      -0.355   1.610   1.913  0.00  0.00    -0.029 S 
ATOM     33  O   UNL     1      -0.377   0.566   2.877  0.00  0.00    -0.174 OA
ATOM     34  O   UNL     1       0.204   2.870   2.257  0.00  0.00    -0.174 OA
ATOM     35  C   UNL     1       0.457   0.993   0.379  0.00  0.00    +0.186 C 
ENDBRANCH  27  29
ENDBRANCH  24  27
ENDBRANCH   4  24
TORSDOF 8
