REMARK  Name = ZINC10812692
REMARK  7 active torsions:
REMARK  status: ('A' for Active; 'I' for Inactive)
REMARK    1  A    between atoms: C_1  and  O_2
REMARK    2  A    between atoms: O_2  and  C_3
REMARK    3  A    between atoms: C_6  and  C_8
REMARK    4  A    between atoms: C_12  and  N_13
REMARK    5  A    between atoms: C_14  and  C_16
REMARK    6  A    between atoms: N_22  and  S_23
REMARK    7  A    between atoms: S_23  and  C_26
REMARK                            x       y       z     vdW  Elec       q    Type
REMARK                         _______ _______ _______ _____ _____    ______ ____
ROOT
ATOM      1  N   UNL     1       0.215   4.888  -0.575  0.00  0.00    -0.278 N 
ATOM      2  C   UNL     1       0.358   3.754  -1.288  0.00  0.00    +0.236 C 
ATOM      3  O   UNL     1       1.463   3.290  -1.476  0.00  0.00    -0.274 OA
ATOM      4  H   UNL     1      -0.669   5.259  -0.425  0.00  0.00    +0.155 HD
ENDROOT
BRANCH   2   5
ATOM      5  C   UNL     1      -0.856   3.061  -1.853  0.00  0.00    +0.166 C 
ATOM      6  C   UNL     1      -0.730   2.965  -3.377  0.00  0.00    +0.030 C 
ATOM      7  C   UNL     1      -1.894   2.141  -3.930  0.00  0.00    +0.003 C 
ATOM      8  C   UNL     1      -1.839   0.725  -3.351  0.00  0.00    +0.017 C 
ATOM      9  C   UNL     1      -1.974   0.794  -1.831  0.00  0.00    +0.110 C 
ATOM     10  N   UNL     1      -0.950   1.703  -1.300  0.00  0.00    -0.164 NA
BRANCH  10  11
ATOM     11  S   UNL     1       0.084   1.205  -0.106  0.00  0.00    +0.068 S 
ATOM     12  O   UNL     1       0.528   2.378   0.562  0.00  0.00    -0.152 OA
ATOM     13  O   UNL     1      -0.565   0.140   0.575  0.00  0.00    -0.152 OA
BRANCH  11  14
ATOM     14  C   UNL     1       1.497   0.510  -0.896  0.00  0.00    +0.144 A 
ATOM     15  C   UNL     1       2.703   1.078  -1.141  0.00  0.00    +0.038 A 
ATOM     16  C   UNL     1       3.678   0.334  -1.779  0.00  0.00    +0.030 A 
ATOM     17  C   UNL     1       3.393  -0.939  -2.152  0.00  0.00    +0.080 A 
ATOM     18  S   UNL     1       1.709  -1.121  -1.591  0.00  0.00    -0.057 S 
ATOM     19 CL   UNL     1       4.405  -2.092  -2.965  0.00  0.00    -0.076 Cl
ENDBRANCH  11  14
ENDBRANCH  10  11
ENDBRANCH   2   5
BRANCH   1  24
ATOM     20  C   UNL     1       1.388   6.696   0.694  0.00  0.00    +0.066 A 
ATOM     21  C   UNL     1       2.698   7.135   1.113  0.00  0.00    +0.022 A 
ATOM     22  C   UNL     1       3.747   6.384   0.735  0.00  0.00    +0.048 A 
ATOM     23  S   UNL     1       2.994   5.061  -0.189  0.00  0.00    -0.081 S 
ATOM     24  C   UNL     1       1.331   5.525  -0.055  0.00  0.00    +0.084 A 
BRANCH  20  28
ATOM     25  C   UNL     1      -0.843   9.262   2.094  0.00  0.00    +0.407 C 
ATOM     26  O   UNL     1      -1.930   8.863   1.728  0.00  0.00    -0.226 OA
ATOM     27  N   UNL     1       0.271   8.574   1.772  0.00  0.00    -0.217 N 
ATOM     28  C   UNL     1       0.178   7.443   1.044  0.00  0.00    +0.255 C 
ATOM     29  O   UNL     1      -0.912   7.044   0.678  0.00  0.00    -0.270 OA
ATOM     30  H   UNL     1       1.139   8.892   2.064  0.00  0.00    +0.161 HD
BRANCH  25  32
ATOM     31  C   UNL     1      -1.990  11.080   3.130  0.00  0.00    +0.282 C 
ATOM     32  O   UNL     1      -0.749  10.391   2.821  0.00  0.00    -0.453 OA
ENDBRANCH  25  32
ENDBRANCH  20  28
ENDBRANCH   1  24
TORSDOF 6
