REMARK  Name = ZINC38965325
REMARK  6 active torsions:
REMARK  status: ('A' for Active; 'I' for Inactive)
REMARK    1  A    between atoms: C_1  and  N_2
REMARK    2  A    between atoms: N_6  and  N_7
REMARK    3  A    between atoms: C_8  and  C_9
REMARK    4  A    between atoms: N_18  and  C_27
REMARK    5  A    between atoms: N_23  and  C_26
REMARK    6  A    between atoms: C_27  and  C_28
REMARK                            x       y       z     vdW  Elec       q    Type
REMARK                         _______ _______ _______ _____ _____    ______ ____
ROOT
ATOM      1  C   UNL     1      -0.249   1.385   0.304  0.00  0.00    +0.141 C 
ATOM      2  N   UNL     1      -0.305  -0.066   0.493  0.00  0.00    -0.244 N 
ATOM      3  C   UNL     1      -1.451  -0.784   0.317  0.00  0.00    +0.138 C 
ATOM      4  N   UNL     1      -2.435  -0.684  -0.514  0.00  0.00    -0.200 NA
ATOM      5  C   UNL     1      -3.225  -1.764  -0.496  0.00  0.00    +0.240 C 
ATOM      6  N   UNL     1      -4.283  -1.933  -1.293  0.00  0.00    -0.113 NA
ATOM      7  N   UNL     1      -2.813  -2.678   0.444  0.00  0.00    -0.276 N 
ATOM      8  C   UNL     1      -1.733  -2.014   1.177  0.00  0.00    +0.227 C 
ATOM      9  C   UNL     1      -0.447  -2.803   1.173  0.00  0.00    +0.251 C 
ATOM     10  O   UNL     1      -0.454  -4.012   1.268  0.00  0.00    -0.273 OA
ATOM     11  N   UNL     1       0.713  -2.120   1.061  0.00  0.00    -0.227 N 
ATOM     12  C   UNL     1       0.783  -0.797   0.851  0.00  0.00    +0.316 C 
ATOM     13  O   UNL     1       1.851  -0.234   0.990  0.00  0.00    -0.252 OA
ATOM     14  C   UNL     1       1.968  -2.868   1.169  0.00  0.00    +0.143 C 
ENDROOT
BRANCH   6  15
ATOM     15  N   UNL     1      -4.925  -3.052  -1.284  0.00  0.00    -0.154 NA
ATOM     16  C   UNL     1      -5.961  -3.226  -2.089  0.00  0.00    +0.141 C 
BRANCH  16  17
ATOM     17  C   UNL     1      -6.607  -4.454  -2.132  0.00  0.00    +0.000 C 
ATOM     18  C   UNL     1      -7.770  -4.776  -2.846  0.00  0.00    +0.004 A 
ATOM     19  C   UNL     1      -8.607  -4.022  -3.692  0.00  0.00    +0.010 A 
ATOM     20  C   UNL     1      -9.692  -4.608  -4.263  0.00  0.00    +0.001 A 
ATOM     21  C   UNL     1     -10.004  -5.948  -4.033  0.00  0.00    +0.002 A 
ATOM     22  C   UNL     1      -9.242  -6.732  -3.229  0.00  0.00    +0.026 A 
ATOM     23  C   UNL     1      -8.094  -6.189  -2.600  0.00  0.00    +0.043 A 
ATOM     24  N   UNL     1      -7.205  -6.732  -1.788  0.00  0.00    -0.380 N 
ATOM     25  C   UNL     1      -6.201  -5.727  -1.423  0.00  0.00    +0.150 C 
ATOM     26  H   UNL     1      -7.212  -7.653  -1.484  0.00  0.00    +0.160 HD
ENDBRANCH  16  17
ENDBRANCH   6  15
BRANCH   7  27
ATOM     27  C   UNL     1      -3.341  -4.026   0.665  0.00  0.00    +0.144 C 
BRANCH  27  28
ATOM     28  C   UNL     1      -4.372  -3.988   1.762  0.00  0.00    -0.030 A 
ATOM     29  C   UNL     1      -3.976  -4.048   3.085  0.00  0.00    +0.006 A 
ATOM     30  C   UNL     1      -4.922  -4.013   4.092  0.00  0.00    +0.020 A 
ATOM     31  C   UNL     1      -6.266  -3.918   3.776  0.00  0.00    +0.041 A 
ATOM     32  C   UNL     1      -6.662  -3.858   2.452  0.00  0.00    +0.020 A 
ATOM     33  C   UNL     1      -5.714  -3.888   1.446  0.00  0.00    +0.006 A 
ATOM     34 CL   UNL     1      -7.455  -3.875   5.040  0.00  0.00    -0.084 Cl
ENDBRANCH  27  28
ENDBRANCH   7  27
TORSDOF 4
