REMARK  Name = ZINC39671553
REMARK  6 active torsions:
REMARK  status: ('A' for Active; 'I' for Inactive)
REMARK    1  A    between atoms: C_1  and  C_2
REMARK    2  A    between atoms: C_4  and  C_13
REMARK    3  A    between atoms: C_6  and  C_9
REMARK    4  A    between atoms: C_17  and  C_26
REMARK    5  A    between atoms: N_28  and  C_29
REMARK    6  A    between atoms: C_29  and  C_30
REMARK                            x       y       z     vdW  Elec       q    Type
REMARK                         _______ _______ _______ _____ _____    ______ ____
ROOT
ATOM      1  C   UNL     1      -0.859  -2.759  -1.110  0.00  0.00    +0.226 C 
ATOM      2  O   UNL     1       0.143  -3.142  -1.677  0.00  0.00    -0.275 OA
ATOM      3  N   UNL     1      -2.072  -3.015  -1.639  0.00  0.00    -0.300 N 
ATOM      4  C   UNL     1      -3.397  -2.627  -1.101  0.00  0.00    +0.121 C 
ATOM      5  C   UNL     1      -4.221  -2.226  -2.346  0.00  0.00    +0.100 C 
ATOM      6  C   UNL     1      -3.551  -2.967  -3.515  0.00  0.00    -0.004 C 
ATOM      7  C   UNL     1      -2.382  -3.744  -2.893  0.00  0.00    +0.115 C 
ATOM      8  C   UNL     1      -4.539  -3.930  -4.166  0.00  0.00    -0.010 C 
ATOM      9  C   UNL     1      -3.868  -4.612  -5.361  0.00  0.00    -0.082 C 
ATOM     10  N   UNL     1      -3.436  -3.595  -6.328  0.00  0.00    +0.379 N 
ATOM     11  C   UNL     1      -2.417  -2.730  -5.723  0.00  0.00    -0.082 C 
ATOM     12  C   UNL     1      -3.027  -1.968  -4.542  0.00  0.00    -0.010 C 
ATOM     13  H   UNL     1      -3.049  -4.050  -7.142  0.00  0.00    -0.086 HD
ATOM     14  H   UNL     1      -4.230  -3.037  -6.603  0.00  0.00    -0.086 HD
ENDROOT
BRANCH   1  18
ATOM     15  C   UNL     1       2.758  -1.082   1.162  0.00  0.00    +0.085 C 
ATOM     16  C   UNL     1       1.397  -1.680   0.916  0.00  0.00    +0.092 C 
ATOM     17  C   UNL     1       0.476  -1.095   0.181  0.00  0.00    +0.030 C 
ATOM     18  C   UNL     1      -0.747  -1.996   0.185  0.00  0.00    +0.150 C 
ATOM     19  C   UNL     1      -0.431  -2.949   1.364  0.00  0.00    +0.292 C 
ATOM     20  O   UNL     1       1.008  -2.871   1.425  0.00  0.00    -0.484 OA
BRANCH  19  21
ATOM     21  C   UNL     1      -0.887  -4.376   1.053  0.00  0.00    +0.427 C 
ATOM     22  F   UNL     1      -0.133  -4.885  -0.009  0.00  0.00    -0.167 F 
ATOM     23  F   UNL     1      -0.704  -5.180   2.183  0.00  0.00    -0.167 F 
ATOM     24  F   UNL     1      -2.241  -4.366   0.702  0.00  0.00    -0.167 F 
ENDBRANCH  19  21
ENDBRANCH   1  18
BRANCH   5  25
ATOM     25  C   UNL     1      -5.653  -2.670  -2.192  0.00  0.00    +0.219 C 
ATOM     26  O   UNL     1      -5.914  -3.665  -1.550  0.00  0.00    -0.275 OA
ATOM     27  N   UNL     1      -6.644  -1.960  -2.768  0.00  0.00    -0.309 N 
ATOM     28  H   UNL     1      -6.435  -1.165  -3.282  0.00  0.00    +0.149 HD
BRANCH  27  29
ATOM     29  C   UNL     1      -8.036  -2.392  -2.619  0.00  0.00    +0.157 C 
BRANCH  29  30
ATOM     30  C   UNL     1      -8.940  -1.435  -3.353  0.00  0.00    +0.034 A 
ATOM     31  H   UNL     1      -9.249   0.070  -1.946  0.00  0.00    +0.166 HD
ATOM     32  C   UNL     1      -9.387  -1.606  -4.607  0.00  0.00    +0.032 A 
ATOM     33  C   UNL     1     -10.228  -0.449  -4.923  0.00  0.00    -0.000 A 
ATOM     34  C   UNL     1     -10.959  -0.059  -6.047  0.00  0.00    +0.010 A 
ATOM     35  C   UNL     1     -11.662   1.113  -6.025  0.00  0.00    +0.001 A 
ATOM     36  C   UNL     1     -11.655   1.919  -4.895  0.00  0.00    +0.002 A 
ATOM     37  C   UNL     1     -10.940   1.553  -3.776  0.00  0.00    +0.026 A 
ATOM     38  C   UNL     1     -10.218   0.364  -3.775  0.00  0.00    +0.047 A 
ATOM     39  N   UNL     1      -9.431  -0.266  -2.838  0.00  0.00    -0.357 N 
ENDBRANCH  29  30
ENDBRANCH  27  29
ENDBRANCH   5  25
TORSDOF 5
