REMARK  Name = ZINC09311003
REMARK  10 active torsions:
REMARK  status: ('A' for Active; 'I' for Inactive)
REMARK    1  A    between atoms: C_1  and  C_2
REMARK    2  A    between atoms: C_4  and  C_20
REMARK    3  A    between atoms: C_5  and  C_19
REMARK    4  A    between atoms: N_6  and  C_7
REMARK    5  A    between atoms: C_10  and  C_13
REMARK    6  A    between atoms: N_21  and  N_22
REMARK    7  A    between atoms: C_23  and  C_25
REMARK    8  A    between atoms: C_25  and  C_26
REMARK    9  A    between atoms: C_25  and  C_32
REMARK   10  A    between atoms: C_25  and  O_38
REMARK                            x       y       z     vdW  Elec       q    Type
REMARK                         _______ _______ _______ _____ _____    ______ ____
ROOT
ATOM      1  C   UNL     1       2.987  -2.095   3.482  0.00  0.00    +0.140 C 
ATOM      2  N   UNL     1       2.726  -2.092   4.753  0.00  0.00    -0.188 NA
ENDROOT
BRANCH   1   6
ATOM      3  C   UNL     1       7.968  -0.990   3.321  0.00  0.00    +0.064 C 
ATOM      4  C   UNL     1       6.523  -1.205   2.952  0.00  0.00    +0.022 A 
ATOM      5  C   UNL     1       5.556  -1.626   3.788  0.00  0.00    +0.032 A 
ATOM      6  C   UNL     1       4.321  -1.688   3.002  0.00  0.00    +0.016 A 
ATOM      7  C   UNL     1       4.652  -1.299   1.736  0.00  0.00    +0.030 A 
ATOM      8  N   UNL     1       5.980  -1.004   1.715  0.00  0.00    -0.317 N 
ATOM      9  C   UNL     1       3.709  -1.208   0.564  0.00  0.00    +0.064 C 
BRANCH   8  10
ATOM     10  C   UNL     1       6.688  -0.564   0.589  0.00  0.00    +0.047 A 
ATOM     11  C   UNL     1       6.387   0.666   0.018  0.00  0.00    +0.027 A 
ATOM     12  C   UNL     1       7.085   1.103  -1.088  0.00  0.00    +0.010 A 
ATOM     13  C   UNL     1       8.087   0.305  -1.639  0.00  0.00    -0.018 A 
ATOM     14  C   UNL     1       8.383  -0.931  -1.066  0.00  0.00    +0.010 A 
ATOM     15  C   UNL     1       7.686  -1.362   0.042  0.00  0.00    +0.027 A 
BRANCH  13  16
ATOM     16  C   UNL     1       8.836   0.770  -2.831  0.00  0.00    -0.018 A 
ATOM     17  C   UNL     1       9.842  -0.024  -3.379  0.00  0.00    +0.008 A 
ATOM     18  C   UNL     1      10.533   0.412  -4.492  0.00  0.00    +0.001 A 
ATOM     19  C   UNL     1      10.235   1.639  -5.056  0.00  0.00    +0.000 A 
ATOM     20  C   UNL     1       9.242   2.434  -4.514  0.00  0.00    +0.001 A 
ATOM     21  C   UNL     1       8.541   2.006  -3.404  0.00  0.00    +0.008 A 
ENDBRANCH  13  16
ENDBRANCH   8  10
ENDBRANCH   1   6
BRANCH   2  22
ATOM     22  N   UNL     1       3.652  -1.556   5.657  0.00  0.00    -0.204 N 
ATOM     23  C   UNL     1       3.436  -1.659   6.984  0.00  0.00    +0.273 C 
ATOM     24  O   UNL     1       2.398  -2.134   7.394  0.00  0.00    -0.270 OA
ATOM     25  H   UNL     1       4.449  -1.112   5.329  0.00  0.00    +0.177 HD
BRANCH  23  26
ATOM     26  C   UNL     1       4.483  -1.183   7.957  0.00  0.00    +0.194 C 
BRANCH  26  27
ATOM     27  C   UNL     1       5.485  -2.283   8.195  0.00  0.00    -0.003 A 
ATOM     28  C   UNL     1       5.069  -3.600   8.233  0.00  0.00    +0.007 A 
ATOM     29  C   UNL     1       5.988  -4.610   8.446  0.00  0.00    +0.000 A 
ATOM     30  C   UNL     1       7.323  -4.301   8.632  0.00  0.00    +0.000 A 
ATOM     31  C   UNL     1       7.738  -2.983   8.601  0.00  0.00    +0.000 A 
ATOM     32  C   UNL     1       6.819  -1.974   8.382  0.00  0.00    +0.007 A 
ENDBRANCH  26  27
BRANCH  26  33
ATOM     33  C   UNL     1       3.825  -0.811   9.261  0.00  0.00    -0.003 A 
ATOM     34  C   UNL     1       3.594  -1.781  10.219  0.00  0.00    +0.007 A 
ATOM     35  C   UNL     1       2.995  -1.439  11.417  0.00  0.00    +0.000 A 
ATOM     36  C   UNL     1       2.618  -0.131  11.653  0.00  0.00    +0.000 A 
ATOM     37  C   UNL     1       2.844   0.838  10.693  0.00  0.00    +0.000 A 
ATOM     38  C   UNL     1       3.447   0.497   9.497  0.00  0.00    +0.007 A 
ENDBRANCH  26  33
BRANCH  26  39
ATOM     39  O   UNL     1       5.150  -0.040   7.418  0.00  0.00    -0.371 OA
ATOM     40  H   UNL     1       4.565   0.709   7.239  0.00  0.00    +0.212 HD
ENDBRANCH  26  39
ENDBRANCH  23  26
ENDBRANCH   2  22
TORSDOF 8
