REMARK  Name = ZINC23224520
REMARK  8 active torsions:
REMARK  status: ('A' for Active; 'I' for Inactive)
REMARK    1  A    between atoms: C_1  and  C_2
REMARK    2  A    between atoms: C_2  and  C_3
REMARK    3  A    between atoms: C_3  and  N_4
REMARK    4  A    between atoms: C_5  and  C_7
REMARK    5  A    between atoms: C_12  and  N_13
REMARK    6  A    between atoms: C_14  and  C_16
REMARK    7  A    between atoms: N_19  and  S_22
REMARK    8  A    between atoms: S_22  and  C_25
REMARK                            x       y       z     vdW  Elec       q    Type
REMARK                         _______ _______ _______ _____ _____    ______ ____
ROOT
ATOM      1  C   UNL     1       2.573   0.573   0.261  0.00  0.00    +0.078 C 
ATOM      2  C   UNL     1       2.523  -0.260   1.544  0.00  0.00    +0.030 C 
ATOM      3  C   UNL     1       3.802  -1.094   1.657  0.00  0.00    +0.110 C 
ATOM      4  N   UNL     1       4.962  -0.197   1.566  0.00  0.00    -0.177 NA
ATOM      5  C   UNL     1       5.063   0.713   0.416  0.00  0.00    +0.110 C 
ATOM      6  C   UNL     1       3.769   1.527   0.317  0.00  0.00    +0.030 C 
ENDROOT
BRANCH   1   8
ATOM      7  N   UNL     1       0.113   0.736   0.060  0.00  0.00    -0.285 N 
ATOM      8  C   UNL     1       1.301   1.370   0.129  0.00  0.00    +0.220 C 
ATOM      9  O   UNL     1       1.346   2.581   0.084  0.00  0.00    -0.275 OA
ATOM     10  H   UNL     1       0.077  -0.363   0.031  0.00  0.00    +0.155 HD
BRANCH   7  16
ATOM     11  C   UNL     1      -2.221   0.985   0.659  0.00  0.00    +0.058 A 
ATOM     12  C   UNL     1      -3.398   1.736   0.623  0.00  0.00    +0.015 A 
ATOM     13  C   UNL     1      -3.423   2.944  -0.040  0.00  0.00    +0.001 A 
ATOM     14  C   UNL     1      -2.284   3.421  -0.667  0.00  0.00    +0.002 A 
ATOM     15  C   UNL     1      -1.112   2.692  -0.636  0.00  0.00    +0.024 A 
ATOM     16  C   UNL     1      -1.068   1.473   0.027  0.00  0.00    +0.046 A 
BRANCH  11  18
ATOM     17  N   UNL     1      -3.324  -0.828   1.875  0.00  0.00    -0.311 N 
ATOM     18  C   UNL     1      -2.190  -0.311   1.362  0.00  0.00    +0.246 C 
ATOM     19  O   UNL     1      -1.140  -0.914   1.479  0.00  0.00    -0.270 OA
ATOM     20  H   UNL     1      -4.274  -0.283   1.769  0.00  0.00    +0.149 HD
BRANCH  17  21
ATOM     21  C   UNL     1      -3.293  -2.115   2.573  0.00  0.00    +0.104 C 
BRANCH  21  23
ATOM     22  C   UNL     1      -4.669  -3.814   3.782  0.00  0.00    +0.005 C 
ATOM     23  C   UNL     1      -4.702  -2.470   3.053  0.00  0.00    +0.015 C 
ENDBRANCH  21  23
ENDBRANCH  17  21
ENDBRANCH  11  18
ENDBRANCH   7  16
ENDBRANCH   1   8
BRANCH   4  24
ATOM     24  S   UNL     1       6.133  -0.210   2.736  0.00  0.00    +0.061 S 
ATOM     25  O   UNL     1       6.076  -1.488   3.354  0.00  0.00    -0.153 OA
ATOM     26  O   UNL     1       7.317   0.291   2.131  0.00  0.00    -0.153 OA
BRANCH  24  27
ATOM     27  C   UNL     1       5.659   0.963   3.962  0.00  0.00    +0.106 A 
ATOM     28  C   UNL     1       6.072   2.279   3.861  0.00  0.00    +0.029 A 
ATOM     29  C   UNL     1       5.694   3.192   4.822  0.00  0.00    +0.006 A 
ATOM     30  C   UNL     1       4.909   2.799   5.899  0.00  0.00    -0.044 A 
ATOM     31  C   UNL     1       4.499   1.488   6.001  0.00  0.00    -0.042 A 
ATOM     32  C   UNL     1       4.877   0.571   5.029  0.00  0.00    +0.032 A 
ATOM     33  C   UNL     1       3.639   0.994   7.135  0.00  0.00    +0.035 C 
ATOM     34  C   UNL     1       3.675   1.976   8.304  0.00  0.00    +0.005 C 
ATOM     35  C   UNL     1       3.362   3.378   7.768  0.00  0.00    +0.005 C 
ATOM     36  C   UNL     1       4.544   3.845   6.920  0.00  0.00    +0.035 C 
ENDBRANCH  24  27
ENDBRANCH   4  24
TORSDOF 7
