REMARK  Name = ZINC67239444
REMARK  9 active torsions:
REMARK  status: ('A' for Active; 'I' for Inactive)
REMARK    1  A    between atoms: C_1  and  C_2
REMARK    2  A    between atoms: C_5  and  N_8
REMARK    3  A    between atoms: C_14  and  C_17
REMARK    4  A    between atoms: C_19  and  S_20
REMARK    5  A    between atoms: S_20  and  C_21
REMARK    6  A    between atoms: C_21  and  C_22
REMARK    7  A    between atoms: N_24  and  C_25
REMARK    8  A    between atoms: C_25  and  C_26
REMARK    9  A    between atoms: C_29  and  C_31
REMARK                            x       y       z     vdW  Elec       q    Type
REMARK                         _______ _______ _______ _____ _____    ______ ____
ROOT
ATOM      1  N   UNL     1       0.057  -4.171  -0.021  0.00  0.00    -0.254 N 
ATOM      2  C   UNL     1      -0.037  -4.838  -1.192  0.00  0.00    +0.283 A 
ATOM      3  O   UNL     1      -0.137  -4.233  -2.247  0.00  0.00    -0.265 OA
ATOM      4  C   UNL     1      -0.016  -6.244  -1.169  0.00  0.00    +0.131 A 
ATOM      5  C   UNL     1       0.101  -6.895   0.065  0.00  0.00    +0.097 A 
ATOM      6  C   UNL     1       0.096  -8.281  -0.208  0.00  0.00    +0.051 A 
ATOM      7  C   UNL     1      -0.019  -8.440  -1.542  0.00  0.00    +0.016 A 
ATOM      8  N   UNL     1      -0.088  -7.220  -2.141  0.00  0.00    -0.353 N 
ATOM      9  H   UNL     1      -0.174  -7.062  -3.095  0.00  0.00    +0.166 HD
ATOM     10  C   UNL     1      -0.065  -9.765  -2.260  0.00  0.00    +0.063 C 
ATOM     11  N   UNL     1       0.191  -6.168   1.195  0.00  0.00    -0.221 NA
ATOM     12  C   UNL     1       0.175  -4.856   1.157  0.00  0.00    +0.177 A 
ENDROOT
BRANCH   1  17
ATOM     13  C   UNL     1      -0.016   1.503   0.013  0.00  0.00    +0.044 C 
ATOM     14  C   UNL     1       0.004  -0.004   0.003  0.00  0.00    -0.050 A 
ATOM     15  C   UNL     1      -1.181  -0.710   0.107  0.00  0.00    +0.005 A 
ATOM     16  C   UNL     1      -1.167  -2.091   0.100  0.00  0.00    +0.026 A 
ATOM     17  C   UNL     1       0.039  -2.771  -0.013  0.00  0.00    +0.052 A 
ATOM     18  C   UNL     1       1.227  -2.059  -0.118  0.00  0.00    +0.026 A 
ATOM     19  C   UNL     1       1.205  -0.678  -0.115  0.00  0.00    +0.005 A 
ENDBRANCH   1  17
BRANCH  12  20
ATOM     20  S   UNL     1       0.304  -3.953   2.664  0.00  0.00    -0.078 S 
BRANCH  20  21
ATOM     21  C   UNL     1       0.439  -5.239   3.936  0.00  0.00    +0.173 C 
BRANCH  21  22
ATOM     22  C   UNL     1       0.556  -4.593   5.293  0.00  0.00    +0.224 C 
ATOM     23  O   UNL     1       0.549  -3.384   5.392  0.00  0.00    -0.275 OA
ATOM     24  N   UNL     1       0.668  -5.359   6.396  0.00  0.00    -0.308 N 
ATOM     25  H   UNL     1       0.674  -6.325   6.317  0.00  0.00    +0.149 HD
BRANCH  24  26
ATOM     26  C   UNL     1       0.783  -4.731   7.715  0.00  0.00    +0.178 C 
BRANCH  26  27
ATOM     27  C   UNL     1       0.895  -5.799   8.772  0.00  0.00    +0.122 A 
ATOM     28  C   UNL     1       2.040  -6.339   9.227  0.00  0.00    +0.046 A 
ATOM     29  C   UNL     1       1.682  -7.294  10.205  0.00  0.00    +0.045 A 
ATOM     30  C   UNL     1       0.340  -7.282  10.290  0.00  0.00    +0.102 A 
ATOM     31  O   UNL     1      -0.132  -6.370   9.424  0.00  0.00    -0.463 OA
ATOM     32  C   UNL     1      -0.494  -8.140  11.206  0.00  0.00    +0.086 C 
ENDBRANCH  26  27
ENDBRANCH  24  26
ENDBRANCH  21  22
ENDBRANCH  20  21
ENDBRANCH  12  20
TORSDOF 6
