REMARK  Name = ZINC13915318
REMARK  10 active torsions:
REMARK  status: ('A' for Active; 'I' for Inactive)
REMARK    1  A    between atoms: C_1  and  C_2
REMARK    2  A    between atoms: C_2  and  O_3
REMARK    3  A    between atoms: O_3  and  C_4
REMARK    4  A    between atoms: C_6  and  C_16
REMARK    5  A    between atoms: C_9  and  O_10
REMARK    6  A    between atoms: O_10  and  C_11
REMARK    7  A    between atoms: C_11  and  C_12
REMARK    8  A    between atoms: C_18  and  C_25
REMARK    9  A    between atoms: C_19  and  C_24
REMARK   10  A    between atoms: C_25  and  C_27
REMARK                            x       y       z     vdW  Elec       q    Type
REMARK                         _______ _______ _______ _____ _____    ______ ____
ROOT
ATOM      1  C   UNL     1      -0.993   2.015   0.351  0.00  0.00    +0.163 A 
ATOM      2  C   UNL     1       0.158   1.255   0.216  0.00  0.00    +0.056 A 
ATOM      3  C   UNL     1       1.393   1.874   0.170  0.00  0.00    -0.004 A 
ATOM      4  C   UNL     1       1.485   3.251   0.263  0.00  0.00    +0.041 A 
ATOM      5  C   UNL     1       0.339   4.015   0.404  0.00  0.00    +0.077 A 
ATOM      6  C   UNL     1      -0.902   3.399   0.451  0.00  0.00    +0.178 A 
ATOM      7 BR   UNL     1       0.468   5.897   0.532  0.00  0.00    -0.045 Br
ATOM      8 BR   UNL     1       3.178   4.091   0.199  0.00  0.00    -0.049 Br
ENDROOT
BRANCH   3   9
ATOM      9  C   UNL     1       2.643   1.046   0.018  0.00  0.00    +0.139 C 
ATOM     10  C   UNL     1       2.949   0.929  -1.462  0.00  0.00    +0.036 C 
ATOM     11  C   UNL     1       3.021  -0.317  -1.994  0.00  0.00    +0.015 C 
ATOM     12  N   UNL     1       2.825  -1.421  -1.222  0.00  0.00    -0.300 N 
ATOM     13  C   UNL     1       2.552  -1.375   0.087  0.00  0.00    +0.135 C 
ATOM     14  S   UNL     1       2.327  -2.844   0.938  0.00  0.00    -0.019 S 
ATOM     15  N   UNL     1       2.449  -0.211   0.759  0.00  0.00    -0.315 N 
ATOM     16  C   UNL     1       3.322  -0.480  -3.461  0.00  0.00    +0.061 C 
ATOM     17  H   UNL     1       2.886  -2.292  -1.646  0.00  0.00    +0.154 HD
ATOM     18  H   UNL     1       2.251  -0.202   1.709  0.00  0.00    +0.149 HD
BRANCH  10  19
ATOM     19  C   UNL     1       3.151   2.070  -2.255  0.00  0.00    +0.160 C 
ATOM     20  O   UNL     1       2.201   2.736  -2.616  0.00  0.00    -0.293 OA
ATOM     21  C   UNL     1       4.547   2.470  -2.658  0.00  0.00    +0.091 C 
ENDBRANCH  10  19
ENDBRANCH   3   9
BRANCH   1  22
ATOM     22  O   UNL     1      -2.209   1.407   0.391  0.00  0.00    -0.489 OA
BRANCH  22  24
ATOM     23  C   UNL     1      -3.672  -0.516   0.351  0.00  0.00    +0.048 C 
ATOM     24  C   UNL     1      -2.227  -0.018   0.288  0.00  0.00    +0.226 C 
ENDBRANCH  22  24
ENDBRANCH   1  22
BRANCH   6  25
ATOM     25  O   UNL     1      -2.029   4.148   0.589  0.00  0.00    -0.473 OA
BRANCH  25  26
ATOM     26  C   UNL     1      -2.660   4.598  -0.612  0.00  0.00    +0.347 C 
BRANCH  26  27
ATOM     27  C   UNL     1      -3.855   5.387  -0.272  0.00  0.00    +0.104 C 
ATOM     28  N   UNL     1      -4.778   5.997  -0.009  0.00  0.00    -0.193 NA
ENDBRANCH  26  27
ENDBRANCH  25  26
ENDBRANCH   6  25
TORSDOF 7
