REMARK  Name = ZINC12604717
REMARK  8 active torsions:
REMARK  status: ('A' for Active; 'I' for Inactive)
REMARK    1  A    between atoms: C_1  and  C_2
REMARK    2  A    between atoms: C_5  and  S_11
REMARK    3  A    between atoms: C_7  and  N_8
REMARK    4  A    between atoms: S_11  and  N_14
REMARK    5  A    between atoms: N_14  and  C_15
REMARK    6  A    between atoms: C_18  and  C_21
REMARK    7  A    between atoms: C_27  and  C_29
REMARK    8  A    between atoms: C_29  and  C_30
REMARK                            x       y       z     vdW  Elec       q    Type
REMARK                         _______ _______ _______ _____ _____    ______ ____
ROOT
ATOM      1  C   UNL     1       1.845   6.045  -1.287  0.00  0.00    +0.048 A 
ATOM      2  C   UNL     1       0.553   5.649  -1.620  0.00  0.00    +0.025 A 
ATOM      3  C   UNL     1      -0.104   6.251  -2.668  0.00  0.00    +0.015 A 
ATOM      4  C   UNL     1       0.532   7.253  -3.406  0.00  0.00    +0.037 A 
ATOM      5  C   UNL     1       1.832   7.644  -3.073  0.00  0.00    +0.015 A 
ATOM      6  C   UNL     1       2.482   7.042  -2.020  0.00  0.00    +0.025 A 
ENDROOT
BRANCH   4   7
ATOM      7  C   UNL     1      -0.167   7.896  -4.535  0.00  0.00    +0.247 C 
ATOM      8  O   UNL     1       0.453   8.591  -5.318  0.00  0.00    -0.270 OA
ATOM      9  N   UNL     1      -1.492   7.714  -4.699  0.00  0.00    -0.294 N 
ATOM     10  C   UNL     1      -2.382   6.995  -3.769  0.00  0.00    +0.108 C 
ATOM     11  C   UNL     1      -3.792   7.576  -4.042  0.00  0.00    +0.021 C 
ATOM     12  C   UNL     1      -3.753   7.781  -5.579  0.00  0.00    +0.024 C 
ATOM     13  C   UNL     1      -2.291   8.205  -5.832  0.00  0.00    +0.081 C 
BRANCH  13  14
ATOM     14  C   UNL     1      -1.788   7.578  -7.134  0.00  0.00    +0.057 C 
BRANCH  14  15
ATOM     15  C   UNL     1      -0.404   8.091  -7.437  0.00  0.00    -0.046 A 
ATOM     16  C   UNL     1      -0.225   9.401  -7.839  0.00  0.00    +0.004 A 
ATOM     17  C   UNL     1       1.046   9.873  -8.112  0.00  0.00    +0.000 A 
ATOM     18  C   UNL     1       2.136   9.032  -7.993  0.00  0.00    +0.000 A 
ATOM     19  C   UNL     1       1.957   7.720  -7.595  0.00  0.00    +0.000 A 
ATOM     20  C   UNL     1       0.687   7.250  -7.317  0.00  0.00    +0.004 A 
ENDBRANCH  14  15
ENDBRANCH  13  14
ENDBRANCH   4   7
BRANCH   1  21
ATOM     21  N   UNL     1       2.504   5.438  -0.223  0.00  0.00    -0.216 N 
ATOM     22  H   UNL     1       2.824   4.526  -0.307  0.00  0.00    +0.174 HD
BRANCH  21  23
ATOM     23  S   UNL     1       2.743   6.273   1.188  0.00  0.00    +0.072 S 
ATOM     24  O   UNL     1       3.340   7.511   0.830  0.00  0.00    -0.150 OA
ATOM     25  O   UNL     1       3.352   5.367   2.097  0.00  0.00    -0.150 OA
BRANCH  23  30
ATOM     26  C   UNL     1      -2.709   7.567   3.426  0.00  0.00    +0.046 C 
ATOM     27  C   UNL     1      -1.346   7.245   2.870  0.00  0.00    -0.020 A 
ATOM     28  C   UNL     1      -0.760   6.022   3.139  0.00  0.00    +0.007 A 
ATOM     29  C   UNL     1       0.487   5.724   2.624  0.00  0.00    +0.029 A 
ATOM     30  C   UNL     1       1.152   6.652   1.844  0.00  0.00    +0.111 A 
ATOM     31  C   UNL     1       0.569   7.876   1.578  0.00  0.00    +0.061 A 
ATOM     32  C   UNL     1      -0.679   8.174   2.093  0.00  0.00    +0.131 A 
BRANCH  32  33
ATOM     33  N   UNL     1      -1.304   9.485   1.808  0.00  0.00    +0.057 N 
ATOM     34  O   UNL     1      -0.777  10.253   1.024  0.00  0.00    -0.126 OA
ATOM     35  O   UNL     1      -2.345   9.796   2.359  0.00  0.00    -0.126 OA
ENDBRANCH  32  33
ENDBRANCH  23  30
ENDBRANCH  21  23
ENDBRANCH   1  21
TORSDOF 7
