REMARK  Name = ZINC33085510
REMARK  9 active torsions:
REMARK  status: ('A' for Active; 'I' for Inactive)
REMARK    1  A    between atoms: C_1  and  C_2
REMARK    2  A    between atoms: C_5  and  N_9
REMARK    3  A    between atoms: C_6  and  C_8
REMARK    4  A    between atoms: C_10  and  C_12
REMARK    5  A    between atoms: C_13  and  C_35
REMARK    6  A    between atoms: C_17  and  S_27
REMARK    7  A    between atoms: C_20  and  C_22
REMARK    8  A    between atoms: S_27  and  C_28
REMARK    9  A    between atoms: C_28  and  C_29
REMARK                            x       y       z     vdW  Elec       q    Type
REMARK                         _______ _______ _______ _____ _____    ______ ____
ROOT
ATOM      1  C   UNL     1      -2.669   3.398   7.019  0.00  0.00    +0.061 C 
ATOM      2  C   UNL     1      -1.948   3.626   8.126  0.00  0.00    +0.018 C 
ATOM      3  N   UNL     1      -2.531   3.971   9.321  0.00  0.00    -0.287 N 
ATOM      4  C   UNL     1      -3.907   3.822   9.426  0.00  0.00    +0.219 A 
ATOM      5  N   UNL     1      -4.678   3.858  10.479  0.00  0.00    -0.187 NA
ATOM      6  C   UNL     1      -5.951   3.657  10.110  0.00  0.00    +0.211 A 
ATOM      7  N   UNL     1      -5.998   3.493   8.805  0.00  0.00    -0.141 NA
ATOM      8  N   UNL     1      -4.688   3.599   8.340  0.00  0.00    -0.219 N 
ATOM      9  C   UNL     1      -4.169   3.514   6.976  0.00  0.00    +0.184 C 
ATOM     10  C   UNL     1      -0.448   3.501   8.057  0.00  0.00    +0.061 C 
ATOM     11  H   UNL     1      -1.911   4.348  10.147  0.00  0.00    +0.155 HD
ENDROOT
BRANCH   9  12
ATOM     12  C   UNL     1      -4.556   4.751   6.208  0.00  0.00    +0.019 A 
ATOM     13  C   UNL     1      -5.295   4.856   5.076  0.00  0.00    +0.013 A 
ATOM     14  C   UNL     1      -5.529   6.110   4.543  0.00  0.00    +0.008 A 
ATOM     15  C   UNL     1      -5.004   7.196   5.162  0.00  0.00    +0.045 A 
ATOM     16  S   UNL     1      -4.154   6.457   6.547  0.00  0.00    -0.099 S 
ENDBRANCH   9  12
BRANCH   1  18
ATOM     17  N   UNL     1      -2.668   2.905   4.677  0.00  0.00    -0.281 N 
ATOM     18  C   UNL     1      -1.987   3.037   5.833  0.00  0.00    +0.248 C 
ATOM     19  O   UNL     1      -0.784   2.845   5.856  0.00  0.00    -0.270 OA
ATOM     20  H   UNL     1      -3.740   3.147   4.640  0.00  0.00    +0.155 HD
BRANCH  17  25
ATOM     21  C   UNL     1      -0.004   1.105   0.004  0.00  0.00    +0.044 C 
ATOM     22  C   UNL     1      -0.712   1.583   1.245  0.00  0.00    -0.050 A 
ATOM     23  C   UNL     1      -0.042   2.377   2.158  0.00  0.00    +0.005 A 
ATOM     24  C   UNL     1      -0.688   2.817   3.297  0.00  0.00    +0.024 A 
ATOM     25  C   UNL     1      -2.011   2.461   3.525  0.00  0.00    +0.037 A 
ATOM     26  C   UNL     1      -2.680   1.663   2.606  0.00  0.00    -0.029 A 
ATOM     27  C   UNL     1      -2.030   1.231   1.467  0.00  0.00    +0.008 A 
ATOM     28  C   UNL     1      -4.116   1.275   2.849  0.00  0.00    +0.045 C 
ENDBRANCH  17  25
ENDBRANCH   1  18
BRANCH   6  29
ATOM     29  S   UNL     1      -7.338   3.619  11.196  0.00  0.00    -0.080 S 
BRANCH  29  30
ATOM     30  C   UNL     1      -6.619   3.906  12.836  0.00  0.00    +0.112 C 
BRANCH  30  31
ATOM     31  C   UNL     1      -7.713   3.898  13.873  0.00  0.00    -0.037 A 
ATOM     32  C   UNL     1      -8.355   5.075  14.209  0.00  0.00    +0.004 A 
ATOM     33  C   UNL     1      -9.361   5.066  15.156  0.00  0.00    +0.000 A 
ATOM     34  C   UNL     1      -9.719   3.883  15.775  0.00  0.00    +0.000 A 
ATOM     35  C   UNL     1      -9.073   2.707  15.442  0.00  0.00    +0.000 A 
ATOM     36  C   UNL     1      -8.070   2.714  14.491  0.00  0.00    +0.004 A 
ENDBRANCH  30  31
ENDBRANCH  29  30
ENDBRANCH   6  29
TORSDOF 6
