REMARK  Name = ZINC06798797
REMARK  5 active torsions:
REMARK  status: ('A' for Active; 'I' for Inactive)
REMARK    1  A    between atoms: C_7  and  S_21
REMARK    2  A    between atoms: C_8  and  C_11
REMARK    3  A    between atoms: N_13  and  C_14
REMARK    4  A    between atoms: C_14  and  C_15
REMARK    5  A    between atoms: S_21  and  C_22
REMARK                            x       y       z     vdW  Elec       q    Type
REMARK                         _______ _______ _______ _____ _____    ______ ____
ROOT
ATOM      1  C   UNL     1      -1.688  10.197  -2.634  0.00  0.00    +0.001 A 
ATOM      2  C   UNL     1      -0.995  10.139  -1.432  0.00  0.00    +0.002 A 
ATOM      3  C   UNL     1      -0.653   8.927  -0.875  0.00  0.00    +0.026 A 
ATOM      4  C   UNL     1      -1.006   7.744  -1.521  0.00  0.00    +0.048 A 
ATOM      5  C   UNL     1      -1.709   7.808  -2.738  0.00  0.00    +0.014 A 
ATOM      6  C   UNL     1      -2.044   9.050  -3.284  0.00  0.00    +0.011 A 
ATOM      7  C   UNL     1      -1.933   6.425  -3.167  0.00  0.00    +0.050 A 
ATOM      8  C   UNL     1      -1.363   5.616  -2.203  0.00  0.00    +0.117 A 
ATOM      9  N   UNL     1      -0.812   6.418  -1.211  0.00  0.00    -0.350 N 
ATOM     10  H   UNL     1      -0.356   6.091  -0.420  0.00  0.00    +0.166 HD
ENDROOT
BRANCH   8  11
ATOM     11  C   UNL     1      -1.349   4.199  -2.219  0.00  0.00    +0.262 C 
ATOM     12  O   UNL     1      -1.870   3.595  -3.140  0.00  0.00    -0.269 OA
ATOM     13  N   UNL     1      -0.759   3.519  -1.216  0.00  0.00    -0.308 N 
ATOM     14  H   UNL     1      -0.344   4.000  -0.483  0.00  0.00    +0.149 HD
BRANCH  13  15
ATOM     15  C   UNL     1      -0.745   2.054  -1.233  0.00  0.00    +0.136 C 
BRANCH  15  16
ATOM     16  C   UNL     1      -0.019   1.537   0.011  0.00  0.00    +0.135 C 
ATOM     17  C   UNL     1       0.002  -0.004   0.002  0.00  0.00    +0.035 C 
ATOM     18  C   UNL     1       1.508  -0.363   0.039  0.00  0.00    +0.031 C 
ATOM     19  C   UNL     1       2.138   0.935   0.603  0.00  0.00    +0.160 C 
ATOM     20  O   UNL     1       1.348   1.983  -0.000  0.00  0.00    -0.375 OA
ENDBRANCH  15  16
ENDBRANCH  13  15
ENDBRANCH   8  11
BRANCH   7  21
ATOM     21  S   UNL     1      -2.766   5.896  -4.627  0.00  0.00    -0.087 S 
BRANCH  21  22
ATOM     22  C   UNL     1      -4.413   5.779  -4.013  0.00  0.00    +0.013 A 
ATOM     23  C   UNL     1      -4.684   6.079  -2.684  0.00  0.00    +0.016 A 
ATOM     24  C   UNL     1      -5.977   5.990  -2.207  0.00  0.00    +0.021 A 
ATOM     25  C   UNL     1      -7.001   5.593  -3.050  0.00  0.00    +0.041 A 
ATOM     26  C   UNL     1      -6.733   5.288  -4.373  0.00  0.00    +0.021 A 
ATOM     27  C   UNL     1      -5.443   5.380  -4.856  0.00  0.00    +0.016 A 
ATOM     28 CL   UNL     1      -8.624   5.478  -2.445  0.00  0.00    -0.084 Cl
ENDBRANCH  21  22
ENDBRANCH   7  21
TORSDOF 5
