REMARK  Name = ZINC23340043
REMARK  8 active torsions:
REMARK  status: ('A' for Active; 'I' for Inactive)
REMARK    1  A    between atoms: C_1  and  C_2
REMARK    2  A    between atoms: C_2  and  C_3
REMARK    3  A    between atoms: C_2  and  C_4
REMARK    4  A    between atoms: C_2  and  C_5
REMARK    5  A    between atoms: C_15  and  C_17
REMARK    6  A    between atoms: C_17  and  C_19
REMARK    7  A    between atoms: C_17  and  N_30
REMARK    8  A    between atoms: C_19  and  C_20
REMARK                            x       y       z     vdW  Elec       q    Type
REMARK                         _______ _______ _______ _____ _____    ______ ____
ROOT
ATOM      1  C   UNL     1      -0.016   1.307   0.002  0.00  0.00    +0.046 A 
ATOM      2  C   UNL     1       1.302   1.756  -0.005  0.00  0.00    +0.014 A 
ATOM      3  C   UNL     1       2.118   0.671  -0.006  0.00  0.00    +0.069 A 
ATOM      4  N   UNL     1       1.340  -0.426  -0.004  0.00  0.00    -0.178 NA
ATOM      5  H   UNL     1      -0.943  -0.567   0.018  0.00  0.00    +0.189 HD
ATOM      6  N   UNL     1       0.002  -0.004   0.007  0.00  0.00    -0.280 N 
ATOM      7  C   UNL     1       3.624   0.735  -0.009  0.00  0.00    +0.076 C 
ATOM      8  C   UNL     1       4.060   2.136  -0.453  0.00  0.00    +0.114 C 
ATOM      9  N   UNL     1       3.248   3.141   0.249  0.00  0.00    -0.298 N 
ATOM     10  C   UNL     1       1.799   3.181  -0.011  0.00  0.00    +0.146 C 
ATOM     11  C   UNL     1       3.816   4.004   1.115  0.00  0.00    +0.202 C 
ATOM     12  O   UNL     1       3.132   4.827   1.686  0.00  0.00    -0.277 OA
ENDROOT
BRANCH   1  14
ATOM     13  C   UNL     1      -2.495   1.291   0.009  0.00  0.00    +0.017 C 
ATOM     14  C   UNL     1      -1.247   2.175   0.008  0.00  0.00    +0.004 C 
ATOM     15  C   UNL     1      -1.245   3.055   1.260  0.00  0.00    +0.017 C 
ATOM     16  C   UNL     1      -1.251   3.063  -1.238  0.00  0.00    +0.017 C 
ENDBRANCH   1  14
BRANCH  11  17
ATOM     17  C   UNL     1       5.299   3.946   1.374  0.00  0.00    +0.017 C 
BRANCH  17  18
ATOM     18  N   UNL     1       5.601   4.612   2.648  0.00  0.00    +0.386 N 
ATOM     19  H   UNL     1       6.683   4.570   2.836  0.00  0.00    -0.089 HD
ATOM     20  H   UNL     1       5.066   4.103   3.463  0.00  0.00    -0.089 HD
ATOM     21  H   UNL     1       5.278   5.663   2.598  0.00  0.00    -0.089 HD
ENDBRANCH  17  18
BRANCH  17  22
ATOM     22  C   UNL     1       6.042   4.655   0.239  0.00  0.00    +0.030 C 
BRANCH  22  23
ATOM     23  C   UNL     1       7.528   4.492   0.433  0.00  0.00    -0.023 A 
ATOM     24  C   UNL     1       8.354   5.359   1.038  0.00  0.00    +0.087 A 
ATOM     25  N   UNL     1       9.633   4.872   1.026  0.00  0.00    -0.360 N 
ATOM     26  H   UNL     1      10.448   5.454   1.481  0.00  0.00    +0.165 HD
ATOM     27  C   UNL     1       9.661   3.648   0.396  0.00  0.00    +0.047 A 
ATOM     28  C   UNL     1       8.343   3.353   0.002  0.00  0.00    +0.003 A 
ATOM     29  C   UNL     1       8.067   2.163  -0.673  0.00  0.00    +0.010 A 
ATOM     30  C   UNL     1       9.079   1.284  -0.939  0.00  0.00    +0.001 A 
ATOM     31  C   UNL     1      10.380   1.567  -0.548  0.00  0.00    +0.002 A 
ATOM     32  C   UNL     1      10.675   2.738   0.115  0.00  0.00    +0.026 A 
ENDBRANCH  22  23
ENDBRANCH  17  22
ENDBRANCH  11  17
TORSDOF 5
