REMARK  Name = ZINC14770783
REMARK  10 active torsions:
REMARK  status: ('A' for Active; 'I' for Inactive)
REMARK    1  A    between atoms: C_1  and  C_2
REMARK    2  A    between atoms: C_2  and  O_3
REMARK    3  A    between atoms: O_3  and  C_4
REMARK    4  A    between atoms: C_7  and  C_11
REMARK    5  A    between atoms: N_13  and  C_14
REMARK    6  A    between atoms: C_14  and  N_16
REMARK    7  A    between atoms: C_22  and  C_24
REMARK    8  A    between atoms: C_24  and  C_25
REMARK    9  A    between atoms: C_25  and  O_27
REMARK   10  A    between atoms: O_27  and  C_28
REMARK                            x       y       z     vdW  Elec       q    Type
REMARK                         _______ _______ _______ _____ _____    ______ ____
ROOT
ATOM      1  N   UNL     1      -0.294  -4.221   4.682  0.00  0.00    -0.299 N 
ATOM      2  C   UNL     1      -1.417  -5.160   4.519  0.00  0.00    +0.126 C 
ATOM      3  C   UNL     1      -0.949  -6.547   4.965  0.00  0.00    +0.123 C 
ATOM      4  N   UNL     1       0.351  -6.863   4.389  0.00  0.00    -0.312 N 
ATOM      5  C   UNL     1       1.223  -5.957   3.945  0.00  0.00    +0.234 C 
ATOM      6  O   UNL     1       2.308  -6.339   3.560  0.00  0.00    -0.274 OA
ATOM      7  C   UNL     1       0.924  -4.484   3.901  0.00  0.00    +0.171 C 
ATOM      8  H   UNL     1       0.600  -7.798   4.324  0.00  0.00    +0.149 HD
ENDROOT
BRANCH   1   9
ATOM      9  C   UNL     1      -0.379  -3.165   5.515  0.00  0.00    +0.140 C 
ATOM     10  S   UNL     1      -1.792  -2.924   6.450  0.00  0.00    -0.018 S 
BRANCH   9  13
ATOM     11  C   UNL     1       0.524  -1.186   6.361  0.00  0.00    +0.250 C 
ATOM     12  O   UNL     1      -0.515  -0.964   6.952  0.00  0.00    -0.270 OA
ATOM     13  N   UNL     1       0.649  -2.298   5.611  0.00  0.00    -0.264 N 
ATOM     14  H   UNL     1       1.478  -2.475   5.139  0.00  0.00    +0.157 HD
BRANCH  11  18
ATOM     15  C   UNL     1       3.762   1.546   6.664  0.00  0.00    +0.134 A 
ATOM     16  C   UNL     1       2.574   1.800   7.340  0.00  0.00    +0.047 A 
ATOM     17  C   UNL     1       1.522   0.917   7.244  0.00  0.00    +0.017 A 
ATOM     18  C   UNL     1       1.649  -0.237   6.466  0.00  0.00    +0.038 A 
ATOM     19  C   UNL     1       2.847  -0.493   5.792  0.00  0.00    +0.032 A 
ATOM     20  C   UNL     1       3.893   0.398   5.889  0.00  0.00    +0.060 A 
ATOM     21 BR   UNL     1       5.511   0.058   4.972  0.00  0.00    -0.046 Br
BRANCH  15  22
ATOM     22  O   UNL     1       4.797   2.418   6.762  0.00  0.00    -0.491 OA
BRANCH  22  24
ATOM     23  C   UNL     1       5.861   4.435   7.563  0.00  0.00    +0.048 C 
ATOM     24  C   UNL     1       4.595   3.576   7.575  0.00  0.00    +0.226 C 
ENDBRANCH  22  24
ENDBRANCH  15  22
ENDBRANCH  11  18
ENDBRANCH   9  13
ENDBRANCH   1   9
BRANCH   7  25
ATOM     25  C   UNL     1       0.705  -4.049   2.450  0.00  0.00    +0.152 C 
BRANCH  25  26
ATOM     26  C   UNL     1       0.550  -2.551   2.392  0.00  0.00    +0.310 C 
ATOM     27  O   UNL     1       0.518  -1.907   3.414  0.00  0.00    -0.251 OA
BRANCH  26  28
ATOM     28  O   UNL     1       0.449  -1.932   1.205  0.00  0.00    -0.461 OA
BRANCH  28  29
ATOM     29  C   UNL     1       0.302  -0.488   1.226  0.00  0.00    +0.176 C 
ATOM     30  C   UNL     1      -0.508  -0.040   0.008  0.00  0.00    +0.044 C 
ATOM     31  C   UNL     1      -0.662   1.482   0.029  0.00  0.00    +0.004 C 
ATOM     32  C   UNL     1       0.721   2.135  -0.011  0.00  0.00    +0.000 C 
ATOM     33  C   UNL     1       1.531   1.688   1.207  0.00  0.00    +0.004 C 
ATOM     34  C   UNL     1       1.685   0.166   1.186  0.00  0.00    +0.044 C 
ENDBRANCH  28  29
ENDBRANCH  26  28
ENDBRANCH  25  26
ENDBRANCH   7  25
TORSDOF 9
