REMARK  Name = ZINC27533524
REMARK  5 active torsions:
REMARK  status: ('A' for Active; 'I' for Inactive)
REMARK    1  A    between atoms: C_3  and  C_10
REMARK    2  A    between atoms: C_5  and  N_7
REMARK    3  A    between atoms: N_14  and  C_18
REMARK    4  A    between atoms: C_18  and  C_19
REMARK    5  A    between atoms: C_19  and  S_20
REMARK                            x       y       z     vdW  Elec       q    Type
REMARK                         _______ _______ _______ _____ _____    ______ ____
ROOT
ATOM      1  C   UNL     1       6.142   4.762  -2.119  0.00  0.00    +0.028 C 
ATOM      2  C   UNL     1       5.212   4.779  -1.133  0.00  0.00    +0.077 C 
ATOM      3  C   UNL     1       3.736   4.768  -1.229  0.00  0.00    +0.258 C 
ATOM      4  O   UNL     1       3.165   4.741  -2.303  0.00  0.00    -0.269 OA
ATOM      5  N   UNL     1       3.069   4.791  -0.087  0.00  0.00    -0.254 N 
ATOM      6  C   UNL     1       3.706   4.828   1.101  0.00  0.00    +0.121 C 
ATOM      7  S   UNL     1       3.026   4.868   2.671  0.00  0.00    -0.027 S 
ATOM      8  S   UNL     1       5.431   4.821   0.640  0.00  0.00    -0.061 S 
ENDROOT
BRANCH   1  11
ATOM      9  C   UNL     1       4.337   3.429  -5.123  0.00  0.00    +0.003 A 
ATOM     10  C   UNL     1       4.721   3.623  -3.813  0.00  0.00    +0.008 A 
ATOM     11  C   UNL     1       5.731   4.543  -3.514  0.00  0.00    -0.022 A 
ATOM     12  C   UNL     1       6.353   5.250  -4.549  0.00  0.00    +0.040 A 
ATOM     13  C   UNL     1       5.962   5.040  -5.854  0.00  0.00    +0.127 A 
ATOM     14  C   UNL     1       4.957   4.131  -6.142  0.00  0.00    +0.033 A 
BRANCH  13  15
ATOM     15  N   UNL     1       6.618   5.786  -6.951  0.00  0.00    +0.056 N 
ATOM     16  O   UNL     1       7.502   6.585  -6.700  0.00  0.00    -0.126 OA
ATOM     17  O   UNL     1       6.274   5.601  -8.105  0.00  0.00    -0.126 OA
ENDBRANCH  13  15
ENDBRANCH   1  11
BRANCH   5  18
ATOM     18  C   UNL     1       1.605   4.782  -0.114  0.00  0.00    +0.140 C 
BRANCH  18  19
ATOM     19  C   UNL     1       1.103   3.337  -0.090  0.00  0.00    +0.220 C 
BRANCH  19  20
ATOM     20  S   UNL     1      -0.711   3.326  -0.122  0.00  0.00    +0.112 S 
ATOM     21  O   UNL     1      -1.181   3.800  -1.377  0.00  0.00    -0.145 OA
ATOM     22  O   UNL     1      -1.226   3.857   1.091  0.00  0.00    -0.145 OA
ATOM     23  O   UNL     1      -1.094   1.853  -0.096  0.00  0.00    -0.048 OA
ENDBRANCH  19  20
ENDBRANCH  18  19
ENDBRANCH   5  18
TORSDOF 5
