REMARK  Name = ZINC44932553
REMARK  11 active torsions:
REMARK  status: ('A' for Active; 'I' for Inactive)
REMARK    1  A    between atoms: C_1  and  C_2
REMARK    2  A    between atoms: N_6  and  C_7
REMARK    3  A    between atoms: C_12  and  C_13
REMARK    4  A    between atoms: C_13  and  N_14
REMARK    5  A    between atoms: C_15  and  C_17
REMARK    6  A    between atoms: N_20  and  S_32
REMARK    7  A    between atoms: C_23  and  C_28
REMARK    8  A    between atoms: C_28  and  C_29
REMARK    9  A    between atoms: C_28  and  C_30
REMARK   10  A    between atoms: C_28  and  C_31
REMARK   11  A    between atoms: S_32  and  C_35
REMARK                            x       y       z     vdW  Elec       q    Type
REMARK                         _______ _______ _______ _____ _____    ______ ____
ROOT
ATOM      1  N   UNL     1      -3.094  -0.619   1.998  0.00  0.00    -0.308 N 
ATOM      2  C   UNL     1      -4.226  -0.600   1.266  0.00  0.00    +0.256 C 
ATOM      3  O   UNL     1      -4.553   0.411   0.682  0.00  0.00    -0.272 OA
ATOM      4  H   UNL     1      -2.832  -1.428   2.465  0.00  0.00    +0.149 HD
ENDROOT
BRANCH   2   5
ATOM      5  C   UNL     1      -5.084  -1.835   1.174  0.00  0.00    +0.277 C 
ATOM      6  C   UNL     1      -5.666  -2.162   2.557  0.00  0.00    +0.185 C 
ATOM      7  N   UNL     1      -6.534  -3.343   2.407  0.00  0.00    -0.200 N 
ATOM      8  C   UNL     1      -7.372  -3.397   1.282  0.00  0.00    +0.093 A 
ATOM      9  C   UNL     1      -8.404  -4.322   1.229  0.00  0.00    +0.032 A 
ATOM     10  C   UNL     1      -9.225  -4.375   0.118  0.00  0.00    -0.040 A 
ATOM     11  C   UNL     1      -9.018  -3.506  -0.938  0.00  0.00    +0.008 A 
ATOM     12  C   UNL     1      -7.992  -2.581  -0.889  0.00  0.00    +0.048 A 
ATOM     13  C   UNL     1      -7.164  -2.520   0.221  0.00  0.00    +0.144 A 
ATOM     14  O   UNL     1      -6.160  -1.604   0.262  0.00  0.00    -0.476 OA
BRANCH  10  15
ATOM     15  C   UNL     1     -10.347  -5.379   0.058  0.00  0.00    -0.013 C 
ATOM     16  C   UNL     1     -11.312  -5.136   1.220  0.00  0.00    +0.015 C 
ATOM     17  C   UNL     1     -11.096  -5.228  -1.268  0.00  0.00    +0.015 C 
ATOM     18  C   UNL     1      -9.772  -6.793   0.160  0.00  0.00    +0.015 C 
ENDBRANCH  10  15
BRANCH   7  19
ATOM     19  S   UNL     1      -6.521  -4.563   3.526  0.00  0.00    +0.043 S 
ATOM     20  O   UNL     1      -6.939  -5.717   2.809  0.00  0.00    -0.155 OA
ATOM     21  O   UNL     1      -5.227  -4.504   4.111  0.00  0.00    -0.155 OA
ATOM     22  C   UNL     1      -7.780  -4.093   4.744  0.00  0.00    +0.218 C 
ENDBRANCH   7  19
ENDBRANCH   2   5
BRANCH   1  23
ATOM     23  C   UNL     1      -2.259   0.581   2.088  0.00  0.00    +0.141 C 
BRANCH  23  29
ATOM     24  C   UNL     1       0.030  -0.381   2.438  0.00  0.00    +0.052 A 
ATOM     25  C   UNL     1       1.133  -0.636   3.242  0.00  0.00    +0.026 A 
ATOM     26  C   UNL     1       1.137  -0.220   4.559  0.00  0.00    +0.002 A 
ATOM     27  C   UNL     1       0.044   0.452   5.076  0.00  0.00    +0.000 A 
ATOM     28  C   UNL     1      -1.055   0.707   4.278  0.00  0.00    +0.007 A 
ATOM     29  C   UNL     1      -1.063   0.297   2.959  0.00  0.00    -0.006 A 
BRANCH  24  35
ATOM     30  C   UNL     1      -0.018   1.503   0.010  0.00  0.00    +0.084 C 
ATOM     31  C   UNL     1       0.002  -0.004   0.002  0.00  0.00    +0.088 A 
ATOM     32  N   UNL     1       0.008  -0.760  -1.062  0.00  0.00    -0.350 N 
ATOM     33  C   UNL     1       0.027  -2.049  -0.691  0.00  0.00    +0.102 A 
ATOM     34  C   UNL     1       0.033  -2.099   0.655  0.00  0.00    +0.110 A 
ATOM     35  N   UNL     1       0.023  -0.803   1.100  0.00  0.00    -0.305 N 
ATOM     36  H   UNL     1      -0.000  -0.440  -1.978  0.00  0.00    +0.166 HD
ENDBRANCH  24  35
ENDBRANCH  23  29
ENDBRANCH   1  23
TORSDOF 6
