REMARK  Name = ZINC53630154
REMARK  10 active torsions:
REMARK  status: ('A' for Active; 'I' for Inactive)
REMARK    1  A    between atoms: C_1  and  C_2
REMARK    2  A    between atoms: C_13  and  C_15
REMARK    3  A    between atoms: C_15  and  C_16
REMARK    4  A    between atoms: N_18  and  C_19
REMARK    5  A    between atoms: C_19  and  C_20
REMARK    6  A    between atoms: C_20  and  C_21
REMARK    7  A    between atoms: C_28  and  C_29
REMARK    8  A    between atoms: C_29  and  C_30
REMARK    9  A    between atoms: C_29  and  C_31
REMARK   10  A    between atoms: C_29  and  C_32
REMARK                            x       y       z     vdW  Elec       q    Type
REMARK                         _______ _______ _______ _____ _____    ______ ____
ROOT
ATOM      1  C   UNL     1      -0.019   1.526   0.010  0.00  0.00    +0.013 C 
ATOM      2  C   UNL     1       0.002  -0.004   0.002  0.00  0.00    +0.034 C 
ATOM      3  C   UNL     1       0.705  -0.489  -1.241  0.00  0.00    -0.001 A 
ATOM      4  C   UNL     1       0.471   0.177  -2.418  0.00  0.00    +0.019 A 
ATOM      5  C   UNL     1       1.091  -0.238  -3.593  0.00  0.00    +0.024 A 
ATOM      6  C   UNL     1       1.960  -1.343  -3.579  0.00  0.00    +0.139 A 
ATOM      7  C   UNL     1       2.190  -2.005  -2.382  0.00  0.00    +0.093 A 
ATOM      8  C   UNL     1       1.567  -1.578  -1.218  0.00  0.00    +0.139 A 
ATOM      9  O   UNL     1       1.838  -2.250  -0.065  0.00  0.00    -0.425 OA
ATOM     10  C   UNL     1       1.082  -1.968   1.014  0.00  0.00    +0.316 C 
ATOM     11  O   UNL     1       0.697  -2.835   1.762  0.00  0.00    -0.250 OA
ATOM     12  C   UNL     1       0.740  -0.510   1.245  0.00  0.00    +0.114 C 
ATOM     13  O   UNL     1       2.407  -1.517  -4.839  0.00  0.00    -0.463 OA
ATOM     14  C   UNL     1       1.884  -0.594  -5.665  0.00  0.00    +0.200 A 
ATOM     15  C   UNL     1       1.070   0.226  -4.986  0.00  0.00    +0.003 A 
ENDROOT
BRANCH  15  16
ATOM     16  C   UNL     1       0.290   1.389  -5.540  0.00  0.00    -0.009 C 
ATOM     17  C   UNL     1       0.561   1.516  -7.041  0.00  0.00    +0.015 C 
ATOM     18  C   UNL     1      -1.205   1.157  -5.310  0.00  0.00    +0.015 C 
ATOM     19  C   UNL     1       0.721   2.676  -4.833  0.00  0.00    +0.015 C 
ENDBRANCH  15  16
BRANCH  12  20
ATOM     20  C   UNL     1       2.021   0.299   1.454  0.00  0.00    +0.111 C 
BRANCH  20  21
ATOM     21  C   UNL     1       2.677  -0.121   2.744  0.00  0.00    +0.214 C 
ATOM     22  O   UNL     1       2.168  -0.983   3.430  0.00  0.00    -0.276 OA
ATOM     23  N   UNL     1       3.828   0.461   3.136  0.00  0.00    -0.315 N 
ATOM     24  H   UNL     1       4.234   1.150   2.588  0.00  0.00    +0.149 HD
BRANCH  23  25
ATOM     25  C   UNL     1       4.465   0.052   4.390  0.00  0.00    +0.110 C 
BRANCH  25  26
ATOM     26  C   UNL     1       5.746   0.861   4.599  0.00  0.00    +0.073 C 
BRANCH  26  27
ATOM     27  C   UNL     1       6.402   0.441   5.889  0.00  0.00    +0.035 A 
ATOM     28  N   UNL     1       7.397  -0.488   6.034  0.00  0.00    -0.350 N 
ATOM     29  C   UNL     1       7.690  -0.557   7.351  0.00  0.00    +0.171 A 
ATOM     30  N   UNL     1       6.923   0.280   7.994  0.00  0.00    -0.352 N 
ATOM     31  C   UNL     1       6.125   0.911   7.120  0.00  0.00    +0.105 A 
ATOM     32  H   UNL     1       7.813  -1.001   5.324  0.00  0.00    +0.166 HD
ATOM     33  H   UNL     1       6.931   0.426   8.953  0.00  0.00    +0.166 HD
ENDBRANCH  26  27
ENDBRANCH  25  26
ENDBRANCH  23  25
ENDBRANCH  20  21
ENDBRANCH  12  20
TORSDOF 6
