REMARK  Name = ZINC44681792
REMARK  16 active torsions:
REMARK  status: ('A' for Active; 'I' for Inactive)
REMARK    1  A    between atoms: C_1  and  C_2
REMARK    2  A    between atoms: C_4  and  O_41
REMARK    3  A    between atoms: C_6  and  C_30
REMARK    4  A    between atoms: C_8  and  C_29
REMARK    5  A    between atoms: C_12  and  C_28
REMARK    6  A    between atoms: C_21  and  O_27
REMARK    7  A    between atoms: C_24  and  C_25
REMARK    8  A    between atoms: C_24  and  C_26
REMARK    9  A    between atoms: C_30  and  C_31
REMARK   10  A    between atoms: C_30  and  C_32
REMARK   11  A    between atoms: C_30  and  O_40
REMARK   12  A    between atoms: C_32  and  C_34
REMARK   13  A    between atoms: C_35  and  C_36
REMARK   14  A    between atoms: C_36  and  C_37
REMARK   15  A    between atoms: C_36  and  C_38
REMARK   16  A    between atoms: C_36  and  O_39
REMARK                            x       y       z     vdW  Elec       q    Type
REMARK                         _______ _______ _______ _____ _____    ______ ____
ROOT
ATOM      1  C   UNL     1       0.400   3.372   1.544  0.00  0.00    +0.012 C 
ATOM      2  C   UNL     1       1.512   2.430   1.055  0.00  0.00    -0.019 C 
ATOM      3  C   UNL     1       0.836   1.143   0.537  0.00  0.00    +0.039 C 
ATOM      4  C   UNL     1       0.368   0.462   1.851  0.00  0.00    +0.122 C 
ATOM      5  C   UNL     1       1.328   0.955   2.960  0.00  0.00    +0.063 C 
ATOM      6  C   UNL     1       2.315   1.895   2.255  0.00  0.00    -0.011 C 
ATOM      7  C   UNL     1       2.880   3.035   3.060  0.00  0.00    +0.082 C 
ATOM      8  C   UNL     1       3.308   4.168   2.142  0.00  0.00    +0.141 C 
ATOM      9  O   UNL     1       3.543   5.264   2.638  0.00  0.00    -0.297 OA
ATOM     10  C   UNL     1       3.453   3.997   0.659  0.00  0.00    +0.040 C 
ATOM     11  C   UNL     1       2.371   3.142   0.035  0.00  0.00    +0.013 C 
ATOM     12  C   UNL     1       1.475   3.988  -0.877  0.00  0.00    +0.032 C 
ATOM     13  C   UNL     1       2.321   4.697  -1.908  0.00  0.00    -0.026 C 
ATOM     14  C   UNL     1       3.386   5.332  -1.483  0.00  0.00    -0.052 C 
ATOM     15  C   UNL     1       3.654   5.350  -0.012  0.00  0.00    +0.055 C 
ATOM     16  C   UNL     1       4.991   5.910   0.353  0.00  0.00    +0.031 C 
ATOM     17  C   UNL     1       5.949   6.147  -0.533  0.00  0.00    +0.157 C 
ATOM     18  C   UNL     1       5.707   5.983  -1.969  0.00  0.00    +0.206 C 
ATOM     19  O   UNL     1       6.625   5.829  -2.748  0.00  0.00    -0.288 OA
ATOM     20  C   UNL     1       4.274   6.061  -2.463  0.00  0.00    +0.052 C 
ATOM     21  C   UNL     1       3.855   7.537  -2.552  0.00  0.00    +0.024 C 
ATOM     22  C   UNL     1       4.202   5.433  -3.861  0.00  0.00    +0.024 C 
ATOM     23  C   UNL     1       4.804   3.307   0.405  0.00  0.00    +0.020 C 
ATOM     24  C   UNL     1       3.458   0.971   1.792  0.00  0.00    +0.012 C 
ENDROOT
BRANCH  17  25
ATOM     25  O   UNL     1       7.189   6.499  -0.098  0.00  0.00    -0.504 OA
ATOM     26  H   UNL     1       7.827   6.652  -0.809  0.00  0.00    +0.292 HD
ENDBRANCH  17  25
BRANCH   5  27
ATOM     27  C   UNL     1       0.580   1.574   4.129  0.00  0.00    +0.130 C 
ATOM     28  C   UNL     1       1.575   1.948   5.230  0.00  0.00    +0.050 C 
BRANCH  27  29
ATOM     29  C   UNL     1      -0.418   0.583   4.669  0.00  0.00    +0.187 C 
ATOM     30  O   UNL     1      -0.194  -0.607   4.590  0.00  0.00    -0.290 OA
BRANCH  29  31
ATOM     31  C   UNL     1      -1.656   1.055   5.288  0.00  0.00    +0.048 C 
ATOM     32  C   UNL     1      -2.540   0.176   5.766  0.00  0.00    +0.010 C 
BRANCH  32  33
ATOM     33  C   UNL     1      -3.816   0.663   6.404  0.00  0.00    +0.079 C 
ATOM     34  C   UNL     1      -5.015   0.112   5.631  0.00  0.00    +0.045 C 
ATOM     35  C   UNL     1      -3.878   0.178   7.854  0.00  0.00    +0.045 C 
BRANCH  33  36
ATOM     36  O   UNL     1      -3.847   2.091   6.378  0.00  0.00    -0.385 OA
ATOM     37  H   UNL     1      -3.811   2.469   5.489  0.00  0.00    +0.211 HD
ENDBRANCH  33  36
ENDBRANCH  32  33
ENDBRANCH  29  31
ENDBRANCH  27  29
BRANCH  27  38
ATOM     38  O   UNL     1      -0.105   2.748   3.688  0.00  0.00    -0.381 OA
ATOM     39  H   UNL     1      -1.028   2.596   3.444  0.00  0.00    +0.211 HD
ENDBRANCH  27  38
ENDBRANCH   5  27
BRANCH   4  40
ATOM     40  O   UNL     1       0.456  -0.961   1.726  0.00  0.00    -0.391 OA
ATOM     41  H   UNL     1      -0.101  -1.331   1.028  0.00  0.00    +0.210 HD
ENDBRANCH   4  40
TORSDOF 8
