REMARK  Name = ZINC20532160
REMARK  11 active torsions:
REMARK  status: ('A' for Active; 'I' for Inactive)
REMARK    1  A    between atoms: C_1  and  C_2
REMARK    2  A    between atoms: C_7  and  N_8
REMARK    3  A    between atoms: N_11  and  C_12
REMARK    4  A    between atoms: C_12  and  C_14
REMARK    5  A    between atoms: C_12  and  C_19
REMARK    6  A    between atoms: C_14  and  C_15
REMARK    7  A    between atoms: C_15  and  C_16
REMARK    8  A    between atoms: C_16  and  C_17
REMARK    9  A    between atoms: C_16  and  C_18
REMARK   10  A    between atoms: C_23  and  N_24
REMARK   11  A    between atoms: N_30  and  C_33
REMARK                            x       y       z     vdW  Elec       q    Type
REMARK                         _______ _______ _______ _____ _____    ______ ____
ROOT
ATOM      1  C   UNL     1      -0.641   1.814   1.547  0.00  0.00    +0.108 C 
ENDROOT
BRANCH   1   2
ATOM      2  C   UNL     1       0.131   0.795   2.344  0.00  0.00    +0.007 A 
ATOM      3  C   UNL     1      -0.543  -0.211   3.032  0.00  0.00    -0.034 A 
ATOM      4  C   UNL     1       0.223  -1.096   3.728  0.00  0.00    -0.021 A 
ATOM      5  S   UNL     1       1.880  -0.538   3.444  0.00  0.00    -0.077 S 
ATOM      6  C   UNL     1       1.489   0.858   2.399  0.00  0.00    +0.090 A 
ATOM      7  C   UNL     1      -0.258  -2.254   4.539  0.00  0.00    -0.036 C 
ATOM      8  N   UNL     1      -1.710  -2.096   4.752  0.00  0.00    +0.381 N 
ATOM      9  C   UNL     1      -2.390  -1.799   3.484  0.00  0.00    -0.074 C 
ATOM     10  C   UNL     1      -2.061  -0.376   3.027  0.00  0.00    +0.018 C 
ATOM     11  C   UNL     1      -2.281  -3.289   5.390  0.00  0.00    -0.096 C 
ATOM     12  H   UNL     1      -1.870  -1.246   5.432  0.00  0.00    -0.082 HD
BRANCH   6  13
ATOM     13  N   UNL     1       2.354   1.776   1.794  0.00  0.00    -0.317 N 
ATOM     14  C   UNL     1       1.991   2.742   0.900  0.00  0.00    +0.092 A 
ATOM     15  C   UNL     1       3.098   3.427   0.546  0.00  0.00    +0.019 A 
ATOM     16  C   UNL     1       4.186   2.858   1.238  0.00  0.00    +0.019 A 
ATOM     17  C   UNL     1       3.702   1.851   1.994  0.00  0.00    +0.092 A 
ENDBRANCH   6  13
ENDBRANCH   1   2
BRANCH   1  21
ATOM     18  N   UNL     1      -0.503   5.465   1.960  0.00  0.00    -0.269 N 
ATOM     19  C   UNL     1      -0.948   4.229   1.660  0.00  0.00    +0.304 C 
ATOM     20  O   UNL     1      -2.062   4.080   1.196  0.00  0.00    -0.252 OA
ATOM     21  N   UNL     1      -0.158   3.158   1.874  0.00  0.00    -0.292 N 
ATOM     22  H   UNL     1       0.458   5.593   2.479  0.00  0.00    +0.156 HD
ATOM     23  H   UNL     1       0.850   3.293   2.294  0.00  0.00    +0.151 HD
BRANCH  18  30
ATOM     24  C   UNL     1      -0.074   7.881   3.401  0.00  0.00    +0.045 C 
ATOM     25  C   UNL     1      -1.087   7.786   2.290  0.00  0.00    -0.029 A 
ATOM     26  C   UNL     1      -1.840   8.891   1.943  0.00  0.00    +0.005 A 
ATOM     27  C   UNL     1      -2.769   8.804   0.923  0.00  0.00    +0.000 A 
ATOM     28  C   UNL     1      -2.948   7.611   0.247  0.00  0.00    +0.002 A 
ATOM     29  C   UNL     1      -2.195   6.504   0.585  0.00  0.00    +0.023 A 
ATOM     30  C   UNL     1      -1.264   6.587   1.612  0.00  0.00    +0.038 A 
ENDBRANCH  18  30
ENDBRANCH   1  21
BRANCH   1  31
ATOM     31  C   UNL     1      -0.443   1.550   0.053  0.00  0.00    +0.027 C 
BRANCH  31  32
ATOM     32  C   UNL     1      -1.324   2.505  -0.755  0.00  0.00    +0.005 C 
BRANCH  32  33
ATOM     33  C   UNL     1      -1.126   2.241  -2.249  0.00  0.00    -0.017 C 
ATOM     34  C   UNL     1      -2.097   3.108  -3.053  0.00  0.00    +0.007 C 
ATOM     35  C   UNL     1       0.312   2.587  -2.641  0.00  0.00    +0.007 C 
ENDBRANCH  32  33
ENDBRANCH  31  32
ENDBRANCH   1  31
TORSDOF 7
