REMARK  Name = ZINC24804607
REMARK  12 active torsions:
REMARK  status: ('A' for Active; 'I' for Inactive)
REMARK    1  A    between atoms: C_1  and  C_2
REMARK    2  A    between atoms: C_2  and  C_4
REMARK    3  A    between atoms: C_2  and  N_12
REMARK    4  A    between atoms: C_13  and  C_15
REMARK    5  A    between atoms: C_15  and  O_16
REMARK    6  A    between atoms: O_16  and  C_17
REMARK    7  A    between atoms: C_17  and  C_19
REMARK    8  A    between atoms: C_22  and  S_25
REMARK    9  A    between atoms: S_25  and  N_28
REMARK   10  A    between atoms: N_28  and  C_29
REMARK   11  A    between atoms: C_29  and  C_30
REMARK   12  A    between atoms: C_29  and  C_31
REMARK                            x       y       z     vdW  Elec       q    Type
REMARK                         _______ _______ _______ _____ _____    ______ ____
ROOT
ATOM      1  O   UNL     1      -3.735  -1.368  -2.735  0.00  0.00    -0.452 OA
ENDROOT
BRANCH   1   2
ATOM      2  C   UNL     1      -4.974  -1.833  -2.985  0.00  0.00    +0.340 C 
ATOM      3  O   UNL     1      -5.710  -2.127  -2.064  0.00  0.00    -0.245 OA
BRANCH   2   4
ATOM      4  C   UNL     1      -5.440  -1.984  -4.379  0.00  0.00    +0.059 A 
ATOM      5  C   UNL     1      -4.595  -1.652  -5.440  0.00  0.00    +0.017 A 
ATOM      6  C   UNL     1      -5.036  -1.795  -6.739  0.00  0.00    +0.029 A 
ATOM      7  C   UNL     1      -6.312  -2.267  -6.992  0.00  0.00    +0.105 A 
ATOM      8  C   UNL     1      -7.154  -2.598  -5.945  0.00  0.00    +0.029 A 
ATOM      9  C   UNL     1      -6.724  -2.465  -4.641  0.00  0.00    +0.017 A 
BRANCH   7  10
ATOM     10  S   UNL     1      -6.867  -2.447  -8.654  0.00  0.00    +0.059 S 
ATOM     11  O   UNL     1      -8.286  -2.389  -8.617  0.00  0.00    -0.153 OA
ATOM     12  O   UNL     1      -6.088  -1.556  -9.441  0.00  0.00    -0.153 OA
BRANCH  10  13
ATOM     13  N   UNL     1      -6.468  -3.979  -9.140  0.00  0.00    -0.187 NA
ATOM     14  H   UNL     1      -5.823  -4.110  -9.853  0.00  0.00    +0.148 HD
BRANCH  13  15
ATOM     15  C   UNL     1      -7.090  -5.138  -8.494  0.00  0.00    +0.070 C 
ATOM     16  C   UNL     1      -7.300  -6.247  -9.527  0.00  0.00    +0.025 C 
ATOM     17  C   UNL     1      -6.178  -5.648  -7.376  0.00  0.00    +0.025 C 
ENDBRANCH  13  15
ENDBRANCH  10  13
ENDBRANCH   7  10
ENDBRANCH   2   4
ENDBRANCH   1   2
BRANCH   1  18
ATOM     18  C   UNL     1      -3.351  -1.248  -1.364  0.00  0.00    +0.328 C 
BRANCH  18  20
ATOM     19  N   UNL     1      -1.367  -0.520  -0.079  0.00  0.00    -0.306 N 
ATOM     20  C   UNL     1      -1.943  -0.717  -1.281  0.00  0.00    +0.251 C 
ATOM     21  O   UNL     1      -1.329  -0.466  -2.296  0.00  0.00    -0.272 OA
ATOM     22  H   UNL     1      -1.858  -0.720   0.733  0.00  0.00    +0.149 HD
BRANCH  19  24
ATOM     23  C   UNL     1      -0.028   1.526  -0.017  0.00  0.00    +0.033 C 
ATOM     24  C   UNL     1       0.002  -0.004   0.002  0.00  0.00    +0.102 C 
BRANCH  24  25
ATOM     25  C   UNL     1       0.643  -0.478   1.281  0.00  0.00    -0.009 A 
ATOM     26  C   UNL     1      -0.141  -0.765   2.382  0.00  0.00    +0.008 A 
ATOM     27  C   UNL     1       0.446  -1.200   3.555  0.00  0.00    +0.020 A 
ATOM     28  C   UNL     1       1.820  -1.350   3.627  0.00  0.00    +0.042 A 
ATOM     29  C   UNL     1       2.606  -1.063   2.525  0.00  0.00    +0.040 A 
ATOM     30  C   UNL     1       2.016  -0.632   1.350  0.00  0.00    +0.047 A 
ATOM     31 CL   UNL     1       3.001  -0.278  -0.036  0.00  0.00    -0.083 Cl
ATOM     32 CL   UNL     1       2.558  -1.896   5.101  0.00  0.00    -0.083 Cl
ENDBRANCH  24  25
ENDBRANCH  19  24
ENDBRANCH  18  20
ENDBRANCH   1  18
TORSDOF 9
