REMARK  Name = ZINC38682176
REMARK  12 active torsions:
REMARK  status: ('A' for Active; 'I' for Inactive)
REMARK    1  A    between atoms: C_1  and  O_2
REMARK    2  A    between atoms: O_2  and  C_3
REMARK    3  A    between atoms: C_8  and  O_9
REMARK    4  A    between atoms: O_9  and  C_10
REMARK    5  A    between atoms: C_10  and  C_11
REMARK    6  A    between atoms: C_11  and  O_13
REMARK    7  A    between atoms: O_13  and  C_14
REMARK    8  A    between atoms: C_21  and  N_35
REMARK    9  A    between atoms: C_22  and  C_33
REMARK   10  A    between atoms: C_23  and  C_25
REMARK   11  A    between atoms: C_28  and  S_31
REMARK   12  A    between atoms: S_31  and  C_32
REMARK                            x       y       z     vdW  Elec       q    Type
REMARK                         _______ _______ _______ _____ _____    ______ ____
ROOT
ATOM      1  C   UNL     1      -1.135  -6.804  -2.053  0.00  0.00    +0.135 A 
ATOM      2  C   UNL     1      -1.706  -6.069  -3.083  0.00  0.00    +0.047 A 
ATOM      3  C   UNL     1      -2.347  -6.718  -4.121  0.00  0.00    +0.012 A 
ATOM      4  C   UNL     1      -2.424  -8.099  -4.138  0.00  0.00    +0.008 A 
ATOM      5  C   UNL     1      -1.856  -8.838  -3.112  0.00  0.00    +0.138 A 
ATOM      6  C   UNL     1      -1.206  -8.188  -2.071  0.00  0.00    +0.093 A 
ATOM      7  O   UNL     1      -1.921 -10.192  -3.111  0.00  0.00    -0.441 OA
ATOM      8  C   UNL     1      -2.839 -10.819  -3.865  0.00  0.00    +0.199 C 
ATOM      9  C   UNL     1      -3.449 -10.208  -4.908  0.00  0.00    +0.098 C 
ATOM     10  C   UNL     1      -3.127  -8.787  -5.278  0.00  0.00    +0.098 C 
ENDROOT
BRANCH  10  11
ATOM     11  C   UNL     1      -2.236  -8.777  -6.493  0.00  0.00    -0.035 A 
ATOM     12  C   UNL     1      -0.998  -9.393  -6.446  0.00  0.00    +0.005 A 
ATOM     13  C   UNL     1      -0.179  -9.385  -7.558  0.00  0.00    +0.015 A 
ATOM     14  C   UNL     1      -0.600  -8.758  -8.724  0.00  0.00    +0.008 A 
ATOM     15  C   UNL     1      -1.844  -8.141  -8.768  0.00  0.00    +0.015 A 
ATOM     16  C   UNL     1      -2.660  -8.157  -7.654  0.00  0.00    +0.005 A 
BRANCH  14  17
ATOM     17  S   UNL     1       0.443  -8.745 -10.145  0.00  0.00    -0.129 S 
ATOM     18  C   UNL     1      -0.516  -7.832 -11.385  0.00  0.00    +0.090 C 
ENDBRANCH  14  17
ENDBRANCH  10  11
BRANCH   8  19
ATOM     19  N   UNL     1      -3.168 -12.119  -3.570  0.00  0.00    -0.328 N 
ATOM     20  H   UNL     1      -2.740 -12.571  -2.826  0.00  0.00    +0.145 HD
ATOM     21  H   UNL     1      -3.829 -12.585  -4.106  0.00  0.00    +0.145 HD
ENDBRANCH   8  19
BRANCH   9  22
ATOM     22  C   UNL     1      -4.420 -10.930  -5.675  0.00  0.00    +0.101 C 
ATOM     23  N   UNL     1      -5.190 -11.502  -6.283  0.00  0.00    -0.191 NA
ENDBRANCH   9  22
BRANCH   1  24
ATOM     24  O   UNL     1      -0.504  -6.168  -1.032  0.00  0.00    -0.423 OA
BRANCH  24  25
ATOM     25  C   UNL     1      -1.261  -5.593  -0.084  0.00  0.00    +0.350 C 
ATOM     26  O   UNL     1      -2.464  -5.573  -0.200  0.00  0.00    -0.247 OA
BRANCH  25  27
ATOM     27  C   UNL     1      -0.611  -4.972   1.126  0.00  0.00    +0.349 C 
BRANCH  27  28
ATOM     28  O   UNL     1      -1.618  -4.430   1.983  0.00  0.00    -0.477 OA
BRANCH  28  34
ATOM     29  C   UNL     1      -2.124  -3.279   4.008  0.00  0.00    +0.162 A 
ATOM     30  C   UNL     1      -1.690  -2.672   5.176  0.00  0.00    +0.049 A 
ATOM     31  C   UNL     1      -0.339  -2.610   5.462  0.00  0.00    +0.004 A 
ATOM     32  C   UNL     1       0.582  -3.151   4.584  0.00  0.00    +0.004 A 
ATOM     33  C   UNL     1       0.156  -3.757   3.417  0.00  0.00    +0.049 A 
ATOM     34  C   UNL     1      -1.197  -3.829   3.127  0.00  0.00    +0.163 A 
BRANCH  29  36
ATOM     35  C   UNL     1      -4.346  -2.756   4.675  0.00  0.00    +0.277 C 
ATOM     36  O   UNL     1      -3.453  -3.342   3.726  0.00  0.00    -0.491 OA
ENDBRANCH  29  36
ENDBRANCH  28  34
ENDBRANCH  27  28
ENDBRANCH  25  27
ENDBRANCH  24  25
ENDBRANCH   1  24
TORSDOF 10
