REMARK  Name = ZINC02495885
REMARK  11 active torsions:
REMARK  status: ('A' for Active; 'I' for Inactive)
REMARK    1  A    between atoms: C_1  and  C_2
REMARK    2  A    between atoms: C_2  and  O_3
REMARK    3  A    between atoms: O_3  and  C_4
REMARK    4  A    between atoms: C_4  and  C_6
REMARK    5  A    between atoms: N_19  and  C_31
REMARK    6  A    between atoms: N_21  and  C_22
REMARK    7  A    between atoms: C_22  and  C_24
REMARK    8  A    between atoms: C_29  and  C_30
REMARK    9  A    between atoms: C_31  and  C_32
REMARK   10  A    between atoms: C_32  and  C_33
REMARK   11  A    between atoms: C_32  and  C_34
REMARK                            x       y       z     vdW  Elec       q    Type
REMARK                         _______ _______ _______ _____ _____    ______ ____
ROOT
ATOM      1  C   UNL     1       3.399  -0.671   1.292  0.00  0.00    +0.100 A 
ATOM      2  C   UNL     1       3.272   0.675   1.637  0.00  0.00    +0.035 A 
ATOM      3  C   UNL     1       2.016   1.166   2.000  0.00  0.00    +0.083 A 
ATOM      4  C   UNL     1       0.891   0.306   2.017  0.00  0.00    +0.150 A 
ATOM      5  N   UNL     1      -0.288   0.793   2.370  0.00  0.00    -0.211 NA
ATOM      6  C   UNL     1      -0.460   2.073   2.704  0.00  0.00    +0.143 A 
ATOM      7  C   UNL     1      -1.750   2.509   3.061  0.00  0.00    +0.047 A 
ATOM      8  C   UNL     1      -1.948   3.812   3.410  0.00  0.00    +0.005 A 
ATOM      9  C   UNL     1      -0.866   4.702   3.409  0.00  0.00    +0.018 A 
ATOM     10  C   UNL     1       0.367   4.266   3.062  0.00  0.00    +0.096 A 
ATOM     11  N   UNL     1       0.575   2.966   2.712  0.00  0.00    -0.268 N 
ATOM     12  C   UNL     1       1.823   2.568   2.372  0.00  0.00    +0.268 A 
ATOM     13  O   UNL     1       2.755   3.352   2.375  0.00  0.00    -0.267 OA
ATOM     14  N   UNL     1       1.035  -1.014   1.675  0.00  0.00    -0.311 N 
ATOM     15  C   UNL     1       2.258  -1.511   1.317  0.00  0.00    +0.142 A 
ATOM     16  N   UNL     1       2.378  -2.795   0.988  0.00  0.00    -0.158 NA
ENDROOT
BRANCH   1  17
ATOM     17  C   UNL     1       4.708  -1.214   0.907  0.00  0.00    +0.343 C 
ATOM     18  O   UNL     1       5.155  -2.188   1.482  0.00  0.00    -0.245 OA
BRANCH  17  19
ATOM     19  O   UNL     1       5.414  -0.633  -0.084  0.00  0.00    -0.461 OA
BRANCH  19  21
ATOM     20  C   UNL     1       7.383  -0.385  -1.494  0.00  0.00    +0.048 C 
ATOM     21  C   UNL     1       6.711  -1.207  -0.393  0.00  0.00    +0.229 C 
ENDBRANCH  19  21
ENDBRANCH  17  19
ENDBRANCH   1  17
BRANCH  16  22
ATOM     22  C   UNL     1       3.396  -3.196   0.222  0.00  0.00    +0.269 C 
ATOM     23  O   UNL     1       3.606  -2.651  -0.848  0.00  0.00    -0.268 OA
BRANCH  22  24
ATOM     24  C   UNL     1       4.271  -4.304   0.672  0.00  0.00    +0.042 A 
ATOM     25  C   UNL     1       4.153  -4.806   1.969  0.00  0.00    +0.013 A 
ATOM     26  C   UNL     1       4.970  -5.837   2.382  0.00  0.00    +0.001 A 
ATOM     27  C   UNL     1       5.904  -6.375   1.514  0.00  0.00    +0.000 A 
ATOM     28  C   UNL     1       6.026  -5.881   0.228  0.00  0.00    +0.004 A 
ATOM     29  C   UNL     1       5.210  -4.853  -0.200  0.00  0.00    -0.038 A 
ATOM     30  C   UNL     1       5.339  -4.321  -1.604  0.00  0.00    +0.044 C 
ENDBRANCH  22  24
ENDBRANCH  16  22
BRANCH  14  31
ATOM     31  C   UNL     1      -0.131  -1.901   1.694  0.00  0.00    +0.128 C 
BRANCH  31  32
ATOM     32  C   UNL     1      -0.731  -1.925   3.102  0.00  0.00    +0.003 C 
ATOM     33  C   UNL     1      -2.037  -2.721   3.086  0.00  0.00    +0.009 C 
ATOM     34  C   UNL     1       0.258  -2.584   4.066  0.00  0.00    +0.009 C 
ENDBRANCH  31  32
ENDBRANCH  14  31
TORSDOF 7
