REMARK  Name = ZINC23362064
REMARK  7 active torsions:
REMARK  status: ('A' for Active; 'I' for Inactive)
REMARK    1  A    between atoms: C_3  and  N_19
REMARK    2  A    between atoms: C_6  and  C_7
REMARK    3  A    between atoms: N_9  and  C_10
REMARK    4  A    between atoms: C_22  and  N_25
REMARK    5  A    between atoms: N_25  and  C_26
REMARK    6  A    between atoms: C_26  and  C_27
REMARK    7  A    between atoms: C_27  and  N_32
REMARK                            x       y       z     vdW  Elec       q    Type
REMARK                         _______ _______ _______ _____ _____    ______ ____
ROOT
ATOM      1  N   UNL     1       3.613   2.132   0.046  0.00  0.00    -0.330 N 
ATOM      2  C   UNL     1       3.608   3.599  -0.050  0.00  0.00    +0.103 C 
ATOM      3  C   UNL     1       4.491   4.018  -1.230  0.00  0.00    +0.003 C 
ATOM      4  C   UNL     1       5.883   3.403  -1.064  0.00  0.00    -0.069 C 
ATOM      5  C   UNL     1       5.771   1.877  -1.063  0.00  0.00    +0.003 C 
ATOM      6  C   UNL     1       4.903   1.434   0.124  0.00  0.00    +0.103 C 
ENDROOT
BRANCH   1   9
ATOM      7  C   UNL     1       1.260  -0.679   0.064  0.00  0.00    +0.015 A 
ATOM      8  C   UNL     1       2.440   0.028   0.041  0.00  0.00    +0.024 A 
ATOM      9  C   UNL     1       2.419   1.420   0.069  0.00  0.00    +0.030 A 
ATOM     10  C   UNL     1       1.205   2.100   0.120  0.00  0.00    +0.024 A 
ATOM     11  C   UNL     1       0.022   1.398   0.144  0.00  0.00    +0.015 A 
ATOM     12  C   UNL     1       0.040   0.001   0.115  0.00  0.00    +0.037 A 
BRANCH  12  13
ATOM     13  C   UNL     1      -1.227  -0.755   0.140  0.00  0.00    +0.245 C 
ATOM     14  O   UNL     1      -1.211  -1.970   0.115  0.00  0.00    -0.270 OA
ATOM     15  N   UNL     1      -2.403  -0.098   0.189  0.00  0.00    -0.300 N 
ATOM     16  H   UNL     1      -2.416   0.872   0.209  0.00  0.00    +0.150 HD
BRANCH  15  17
ATOM     17  C   UNL     1      -3.661  -0.848   0.213  0.00  0.00    +0.159 C 
ATOM     18  C   UNL     1      -4.755   0.002   0.865  0.00  0.00    +0.032 C 
ATOM     19  C   UNL     1      -5.844  -0.879   1.449  0.00  0.00    +0.004 C 
ATOM     20  C   UNL     1      -6.643  -1.639   0.406  0.00  0.00    +0.019 C 
ATOM     21  C   UNL     1      -5.772  -2.681  -0.297  0.00  0.00    +0.104 C 
ATOM     22  N   UNL     1      -5.081  -2.035  -1.424  0.00  0.00    -0.314 N 
ATOM     23  C   UNL     1      -4.083  -1.179  -1.203  0.00  0.00    +0.233 C 
ATOM     24  O   UNL     1      -3.516  -0.658  -2.140  0.00  0.00    -0.274 OA
ATOM     25  H   UNL     1      -5.351  -2.236  -2.334  0.00  0.00    +0.149 HD
ENDBRANCH  15  17
ENDBRANCH  12  13
ENDBRANCH   1   9
BRANCH   4  26
ATOM     26  N   UNL     1       6.742   3.831  -2.177  0.00  0.00    +0.382 N 
ATOM     27  H   UNL     1       6.384   3.454  -3.042  0.00  0.00    -0.085 HD
ATOM     28  H   UNL     1       6.750   4.838  -2.227  0.00  0.00    -0.085 HD
BRANCH  26  29
ATOM     29  C   UNL     1       8.109   3.340  -1.956  0.00  0.00    -0.060 C 
BRANCH  29  30
ATOM     30  C   UNL     1       9.003   3.785  -3.115  0.00  0.00    +0.007 C 
ATOM     31  C   UNL     1      10.430   3.231  -2.924  0.00  0.00    +0.020 C 
ATOM     32  C   UNL     1      10.449   1.930  -3.765  0.00  0.00    +0.002 C 
ATOM     33  C   UNL     1       9.607   2.314  -5.007  0.00  0.00    +0.002 C 
ATOM     34  C   UNL     1       8.479   3.202  -4.439  0.00  0.00    +0.020 C 
BRANCH  30  35
ATOM     35  N   UNL     1       9.037   5.252  -3.189  0.00  0.00    -0.294 NA
ATOM     36  C   UNL     1       9.581   5.829  -1.952  0.00  0.00    +0.113 C 
ATOM     37  C   UNL     1       9.543   7.357  -2.048  0.00  0.00    +0.175 C 
ATOM     38  O   UNL     1      10.271   7.774  -3.206  0.00  0.00    -0.377 OA
ATOM     39  C   UNL     1       9.769   7.231  -4.429  0.00  0.00    +0.175 C 
ATOM     40  C   UNL     1       9.809   5.702  -4.357  0.00  0.00    +0.113 C 
ENDBRANCH  30  35
ENDBRANCH  29  30
ENDBRANCH  26  29
ENDBRANCH   4  26
TORSDOF 7
