REMARK  Name = ZINC06679127
REMARK  5 active torsions:
REMARK  status: ('A' for Active; 'I' for Inactive)
REMARK    1  A    between atoms: C_1  and  C_2
REMARK    2  A    between atoms: C_6  and  N_8
REMARK    3  A    between atoms: C_11  and  C_13
REMARK    4  A    between atoms: C_14  and  C_23
REMARK    5  A    between atoms: C_17  and  C_22
REMARK                            x       y       z     vdW  Elec       q    Type
REMARK                         _______ _______ _______ _____ _____    ______ ____
ROOT
ATOM      1  N   UNL     1       0.051  -2.798   2.395  0.00  0.00    -0.218 N 
ATOM      2  C   UNL     1      -0.645  -3.957   2.660  0.00  0.00    +0.133 A 
ATOM      3  C   UNL     1      -0.353  -4.310   3.931  0.00  0.00    +0.033 A 
ATOM      4  C   UNL     1       0.538  -3.349   4.452  0.00  0.00    +0.067 A 
ATOM      5  N   UNL     1       0.779  -2.457   3.534  0.00  0.00    -0.170 NA
ATOM      6  C   UNL     1       1.121  -3.356   5.842  0.00  0.00    +0.068 C 
ATOM      7  C   UNL     1      -0.822  -5.478   4.741  0.00  0.00    +0.112 C 
ATOM      8  S   UNL     1      -1.081  -6.961   3.764  0.00  0.00    -0.135 S 
ATOM      9  C   UNL     1      -2.483  -6.613   2.694  0.00  0.00    +0.130 C 
ATOM     10  C   UNL     1      -2.179  -5.609   1.653  0.00  0.00    +0.231 C 
ATOM     11  O   UNL     1      -2.684  -5.826   0.572  0.00  0.00    -0.274 OA
ATOM     12  N   UNL     1      -1.456  -4.531   1.712  0.00  0.00    -0.269 N 
ATOM     13  C   UNL     1      -2.917  -7.912   2.012  0.00  0.00    +0.029 C 
ATOM     14  H   UNL     1      -1.500  -4.009   0.895  0.00  0.00    +0.156 HD
ENDROOT
BRANCH   7  15
ATOM     15  C   UNL     1       0.205  -5.774   5.803  0.00  0.00    -0.026 A 
ATOM     16  C   UNL     1       1.499  -6.097   5.440  0.00  0.00    +0.009 A 
ATOM     17  C   UNL     1       2.445  -6.369   6.410  0.00  0.00    +0.050 A 
ATOM     18  C   UNL     1       2.098  -6.320   7.750  0.00  0.00    +0.166 A 
ATOM     19  C   UNL     1       0.794  -5.995   8.116  0.00  0.00    +0.167 A 
ATOM     20  C   UNL     1      -0.147  -5.717   7.138  0.00  0.00    +0.054 A 
ATOM     21  O   UNL     1       0.706  -6.013   9.478  0.00  0.00    -0.453 OA
ATOM     22  C   UNL     1       1.859  -6.749   9.928  0.00  0.00    +0.466 C 
ATOM     23  O   UNL     1       2.827  -6.541   8.883  0.00  0.00    -0.453 OA
ENDBRANCH   7  15
BRANCH   1  29
ATOM     24  C   UNL     1      -2.479  -0.931  -1.387  0.00  0.00    +0.044 C 
ATOM     25  C   UNL     1      -1.176  -1.170  -0.667  0.00  0.00    -0.048 A 
ATOM     26  C   UNL     1       0.006  -0.688  -1.200  0.00  0.00    +0.003 A 
ATOM     27  C   UNL     1       1.203  -0.906  -0.543  0.00  0.00    +0.002 A 
ATOM     28  C   UNL     1       1.221  -1.605   0.649  0.00  0.00    +0.028 A 
ATOM     29  C   UNL     1       0.036  -2.089   1.186  0.00  0.00    +0.068 A 
ATOM     30  C   UNL     1      -1.165  -1.864   0.526  0.00  0.00    +0.031 A 
ENDBRANCH   1  29
TORSDOF 2
