REMARK  Name = ZINC43408429
REMARK  3 active torsions:
REMARK  status: ('A' for Active; 'I' for Inactive)
REMARK    1  A    between atoms: C_6  and  C_7
REMARK    2  A    between atoms: C_7  and  N_9
REMARK    3  A    between atoms: C_14  and  C_16
REMARK                            x       y       z     vdW  Elec       q    Type
REMARK                         _______ _______ _______ _____ _____    ______ ____
ROOT
ATOM      1  C   UNL     1      -0.038   1.355  -0.015  0.00  0.00    +0.019 A 
ATOM      2  C   UNL     1       1.147   2.072   0.014  0.00  0.00    -0.025 A 
ATOM      3  C   UNL     1       2.355   1.399   0.023  0.00  0.00    +0.047 A 
ATOM      4  N   UNL     1       2.390   0.075   0.003  0.00  0.00    -0.236 NA
ATOM      5  C   UNL     1       1.291  -0.657  -0.025  0.00  0.00    +0.132 A 
ATOM      6  C   UNL     1       0.026  -0.042  -0.035  0.00  0.00    +0.043 A 
ATOM      7  N   UNL     1       1.384  -2.037  -0.045  0.00  0.00    -0.303 N 
ATOM      8  C   UNL     1       1.555  -2.904   1.135  0.00  0.00    +0.107 C 
ATOM      9  C   UNL     1       0.992  -4.280   0.702  0.00  0.00    +0.021 C 
ATOM     10  C   UNL     1       1.445  -4.349  -0.781  0.00  0.00    +0.033 C 
ATOM     11  C   UNL     1       1.323  -2.883  -1.246  0.00  0.00    +0.160 C 
ATOM     12  C   UNL     1       3.493   2.399   0.056  0.00  0.00    +0.056 C 
ATOM     13  C   UNL     1       2.865   3.741  -0.375  0.00  0.00    +0.011 C 
ATOM     14  C   UNL     1       1.389   3.566   0.040  0.00  0.00    +0.037 C 
ENDROOT
BRANCH  11  15
ATOM     15  C   UNL     1       2.463  -2.544  -2.170  0.00  0.00    +0.231 C 
ATOM     16  O   UNL     1       3.257  -1.680  -1.863  0.00  0.00    -0.274 OA
ATOM     17  N   UNL     1       2.602  -3.202  -3.339  0.00  0.00    -0.328 N 
ATOM     18  H   UNL     1       1.968  -3.893  -3.585  0.00  0.00    +0.145 HD
ATOM     19  H   UNL     1       3.337  -2.983  -3.934  0.00  0.00    +0.145 HD
ENDBRANCH  11  15
BRANCH   6  20
ATOM     20  C   UNL     1      -1.204  -0.851  -0.066  0.00  0.00    +0.080 C 
ATOM     21  S   UNL     1      -1.109  -2.556   0.048  0.00  0.00    -0.035 S 
BRANCH  20  22
ATOM     22  N   UNL     1      -2.404  -0.248  -0.184  0.00  0.00    -0.352 N 
ATOM     23  H   UNL     1      -2.457   0.718  -0.249  0.00  0.00    +0.143 HD
ATOM     24  H   UNL     1      -3.214  -0.781  -0.205  0.00  0.00    +0.143 HD
ENDBRANCH  20  22
ENDBRANCH   6  20
TORSDOF 3
