REMARK  Name = ZINC39684048
REMARK  6 active torsions:
REMARK  status: ('A' for Active; 'I' for Inactive)
REMARK    1  A    between atoms: C_1  and  C_2
REMARK    2  A    between atoms: C_7  and  C_11
REMARK    3  A    between atoms: C_11  and  C_12
REMARK    4  A    between atoms: C_12  and  N_13
REMARK    5  A    between atoms: C_14  and  C_16
REMARK    6  A    between atoms: C_27  and  C_29
REMARK                            x       y       z     vdW  Elec       q    Type
REMARK                         _______ _______ _______ _____ _____    ______ ____
ROOT
ATOM      1  C   UNL     1      -9.142   2.159  -6.490  0.00  0.00    +0.100 C 
ATOM      2  C   UNL     1      -8.328   3.156  -7.345  0.00  0.00    +0.121 C 
ATOM      3  N   UNL     1      -7.939   2.386  -8.550  0.00  0.00    -0.296 N 
ATOM      4  C   UNL     1      -9.134   1.569  -8.867  0.00  0.00    +0.115 C 
ATOM      5  C   UNL     1      -9.672   1.121  -7.493  0.00  0.00    -0.004 C 
ATOM      6  C   UNL     1      -9.142  -0.267  -7.147  0.00  0.00    -0.010 C 
ATOM      7  C   UNL     1      -9.729  -1.290  -8.124  0.00  0.00    -0.082 C 
ATOM      8  N   UNL     1     -11.194  -1.268  -8.037  0.00  0.00    +0.379 N 
ATOM      9  C   UNL     1     -11.701   0.042  -8.460  0.00  0.00    -0.082 C 
ATOM     10  C   UNL     1     -11.198   1.122  -7.498  0.00  0.00    -0.010 C 
ATOM     11  C   UNL     1      -6.764   2.421  -9.209  0.00  0.00    +0.247 C 
ATOM     12  O   UNL     1      -5.829   3.051  -8.752  0.00  0.00    -0.270 OA
ATOM     13  H   UNL     1     -11.576  -1.985  -8.637  0.00  0.00    -0.086 HD
ATOM     14  H   UNL     1     -11.476  -1.445  -7.085  0.00  0.00    -0.086 HD
ENDROOT
BRANCH  11  15
ATOM     15  C   UNL     1      -6.611   1.694 -10.486  0.00  0.00    +0.038 A 
ATOM     16  C   UNL     1      -7.738   1.345 -11.233  0.00  0.00    +0.014 A 
ATOM     17  C   UNL     1      -7.590   0.666 -12.424  0.00  0.00    +0.022 A 
ATOM     18  C   UNL     1      -6.327   0.331 -12.881  0.00  0.00    +0.059 A 
ATOM     19  C   UNL     1      -5.204   0.675 -12.145  0.00  0.00    +0.060 A 
ATOM     20  C   UNL     1      -5.339   1.359 -10.954  0.00  0.00    +0.034 A 
ATOM     21 CL   UNL     1      -3.623   0.251 -12.726  0.00  0.00    -0.082 Cl
ATOM     22 CL   UNL     1      -6.149  -0.524 -14.381  0.00  0.00    -0.082 Cl
ENDBRANCH  11  15
BRANCH   1  24
ATOM     23  N   UNL     1      -8.789   0.978  -4.345  0.00  0.00    -0.315 N 
ATOM     24  C   UNL     1      -8.254   1.496  -5.469  0.00  0.00    +0.218 C 
ATOM     25  O   UNL     1      -7.058   1.427  -5.659  0.00  0.00    -0.275 OA
ATOM     26  H   UNL     1      -9.745   1.033  -4.194  0.00  0.00    +0.149 HD
BRANCH  23  27
ATOM     27  C   UNL     1      -7.926   0.334  -3.353  0.00  0.00    +0.109 C 
BRANCH  27  28
ATOM     28  C   UNL     1      -8.777  -0.163  -2.183  0.00  0.00    +0.056 C 
BRANCH  28  35
ATOM     29  C   UNL     1      -4.932  -1.924   2.447  0.00  0.00    +0.046 C 
ATOM     30  C   UNL     1      -5.669  -0.847   1.694  0.00  0.00    -0.027 A 
ATOM     31  C   UNL     1      -5.554   0.470   2.082  0.00  0.00    +0.005 A 
ATOM     32  C   UNL     1      -6.228   1.471   1.396  0.00  0.00    +0.001 A 
ATOM     33  C   UNL     1      -7.019   1.167   0.324  0.00  0.00    +0.010 A 
ATOM     34  C   UNL     1      -7.149  -0.161  -0.087  0.00  0.00    +0.003 A 
ATOM     35  C   UNL     1      -7.889  -0.827  -1.161  0.00  0.00    -0.021 A 
ATOM     36  C   UNL     1      -7.627  -2.140  -1.064  0.00  0.00    +0.087 A 
ATOM     37  N   UNL     1      -6.779  -2.369  -0.015  0.00  0.00    -0.360 N 
ATOM     38  C   UNL     1      -6.463  -1.179   0.601  0.00  0.00    +0.050 A 
ATOM     39  H   UNL     1      -6.448  -3.241   0.254  0.00  0.00    +0.165 HD
ENDBRANCH  28  35
ENDBRANCH  27  28
ENDBRANCH  23  27
ENDBRANCH   1  24
TORSDOF 5
