REMARK  Name = ZINC20518406
REMARK  11 active torsions:
REMARK  status: ('A' for Active; 'I' for Inactive)
REMARK    1  A    between atoms: C_1  and  N_2
REMARK    2  A    between atoms: N_7  and  C_10
REMARK    3  A    between atoms: N_11  and  C_34
REMARK    4  A    between atoms: C_12  and  C_14
REMARK    5  A    between atoms: C_14  and  N_15
REMARK    6  A    between atoms: N_18  and  C_21
REMARK    7  A    between atoms: C_21  and  C_22
REMARK    8  A    between atoms: C_21  and  C_28
REMARK    9  A    between atoms: C_34  and  C_35
REMARK   10  A    between atoms: C_35  and  C_36
REMARK   11  A    between atoms: C_36  and  O_37
REMARK                            x       y       z     vdW  Elec       q    Type
REMARK                         _______ _______ _______ _____ _____    ______ ____
ROOT
ATOM      1  N   UNL     1      -4.950  -1.807   1.728  0.00  0.00    +0.386 N 
ATOM      2  C   UNL     1      -4.692  -0.436   2.189  0.00  0.00    -0.063 C 
ATOM      3  C   UNL     1      -5.255  -0.259   3.601  0.00  0.00    +0.067 C 
ATOM      4  N   UNL     1      -6.701  -0.524   3.585  0.00  0.00    -0.295 NA
ATOM      5  C   UNL     1      -6.976  -1.884   3.101  0.00  0.00    +0.067 C 
ATOM      6  C   UNL     1      -6.399  -2.049   1.694  0.00  0.00    -0.063 C 
ATOM      7  H   UNL     1      -4.515  -2.462   2.360  0.00  0.00    -0.081 HD
ENDROOT
BRANCH   1   8
ATOM      8  C   UNL     1      -4.393  -1.982   0.380  0.00  0.00    -0.003 C 
BRANCH   8  20
ATOM      9  C   UNL     1       0.082   1.259   0.090  0.00  0.00    +0.155 C 
ATOM     10  N   UNL     1       0.215  -0.180   0.327  0.00  0.00    -0.280 N 
ATOM     11  C   UNL     1      -0.915  -0.978   0.397  0.00  0.00    +0.168 A 
ATOM     12  C   UNL     1      -0.762  -2.341   0.621  0.00  0.00    +0.152 A 
ATOM     13  C   UNL     1       0.537  -2.871   0.771  0.00  0.00    +0.282 A 
ATOM     14  O   UNL     1       0.698  -4.062   0.969  0.00  0.00    -0.265 OA
ATOM     15  N   UNL     1       1.600  -2.043   0.693  0.00  0.00    -0.262 N 
ATOM     16  C   UNL     1       1.438  -0.727   0.470  0.00  0.00    +0.333 A 
ATOM     17  O   UNL     1       2.419  -0.012   0.400  0.00  0.00    -0.246 OA
ATOM     18  C   UNL     1       2.951  -2.587   0.848  0.00  0.00    +0.157 C 
ATOM     19  N   UNL     1      -2.035  -2.874   0.642  0.00  0.00    -0.323 N 
ATOM     20  C   UNL     1      -2.892  -1.855   0.436  0.00  0.00    +0.096 A 
ATOM     21  N   UNL     1      -2.225  -0.739   0.292  0.00  0.00    -0.216 NA
BRANCH  19  22
ATOM     22  C   UNL     1      -2.387  -4.281   0.848  0.00  0.00    +0.126 C 
BRANCH  22  23
ATOM     23  C   UNL     1      -2.581  -4.545   2.342  0.00  0.00    +0.049 C 
BRANCH  23  24
ATOM     24  C   UNL     1      -2.949  -6.015   2.557  0.00  0.00    +0.157 C 
BRANCH  24  25
ATOM     25  O   UNL     1      -3.131  -6.261   3.953  0.00  0.00    -0.395 OA
ATOM     26  H   UNL     1      -3.366  -7.175   4.163  0.00  0.00    +0.209 HD
ENDBRANCH  24  25
ENDBRANCH  23  24
ENDBRANCH  22  23
ENDBRANCH  19  22
ENDBRANCH   8  20
ENDBRANCH   1   8
BRANCH   4  27
ATOM     27  C   UNL     1      -7.290  -0.308   4.913  0.00  0.00    +0.117 C 
BRANCH  27  28
ATOM     28  C   UNL     1      -7.007   1.101   5.365  0.00  0.00    -0.026 A 
ATOM     29  C   UNL     1      -7.160   2.154   4.483  0.00  0.00    +0.005 A 
ATOM     30  C   UNL     1      -6.900   3.447   4.898  0.00  0.00    +0.000 A 
ATOM     31  C   UNL     1      -6.487   3.687   6.195  0.00  0.00    +0.000 A 
ATOM     32  C   UNL     1      -6.335   2.634   7.078  0.00  0.00    +0.000 A 
ATOM     33  C   UNL     1      -6.599   1.341   6.664  0.00  0.00    +0.005 A 
ENDBRANCH  27  28
BRANCH  27  34
ATOM     34  C   UNL     1      -8.780  -0.523   4.842  0.00  0.00    -0.026 A 
ATOM     35  C   UNL     1      -9.507   0.013   3.795  0.00  0.00    +0.005 A 
ATOM     36  C   UNL     1     -10.873  -0.184   3.730  0.00  0.00    +0.000 A 
ATOM     37  C   UNL     1     -11.514  -0.917   4.712  0.00  0.00    +0.000 A 
ATOM     38  C   UNL     1     -10.787  -1.454   5.759  0.00  0.00    +0.000 A 
ATOM     39  C   UNL     1      -9.420  -1.260   5.821  0.00  0.00    +0.005 A 
ENDBRANCH  27  34
ENDBRANCH   4  27
TORSDOF 9
