REMARK  Name = ZINC38792918
REMARK  4 active torsions:
REMARK  status: ('A' for Active; 'I' for Inactive)
REMARK    1  A    between atoms: C_7  and  C_10
REMARK    2  A    between atoms: C_10  and  O_12
REMARK    3  A    between atoms: O_12  and  C_13
REMARK    4  A    between atoms: C_16  and  C_20
REMARK                            x       y       z     vdW  Elec       q    Type
REMARK                         _______ _______ _______ _____ _____    ______ ____
ROOT
ATOM      1  O   UNL     1       1.095  -4.434  -0.032  0.00  0.00    -0.427 OA
ENDROOT
BRANCH   1   2
ATOM      2  C   UNL     1       0.194  -5.452  -0.029  0.00  0.00    +0.242 C 
ATOM      3  C   UNL     1       0.618  -6.720  -0.039  0.00  0.00    +0.154 C 
ATOM      4  N   UNL     1       1.950  -7.122  -0.048  0.00  0.00    -0.296 N 
ATOM      5  C   UNL     1       1.967  -8.590  -0.058  0.00  0.00    +0.266 C 
ATOM      6  O   UNL     1       0.598  -9.008  -0.054  0.00  0.00    -0.245 OA
ATOM      7  N   UNL     1      -0.202  -7.841  -0.037  0.00  0.00    -0.247 N 
ATOM      8  H   UNL     1      -1.172  -7.825  -0.027  0.00  0.00    +0.196 HD
ATOM      9  H   UNL     1       2.726  -6.539  -0.048  0.00  0.00    +0.150 HD
BRANCH   5  10
ATOM     10  C   UNL     1       2.671  -9.107   1.170  0.00  0.00    +0.008 A 
ATOM     11  C   UNL     1       3.357 -10.306   1.132  0.00  0.00    +0.015 A 
ATOM     12  C   UNL     1       3.979 -10.744   2.254  0.00  0.00    +0.045 A 
ATOM     13  S   UNL     1       3.601  -9.443   3.417  0.00  0.00    -0.105 S 
ATOM     14  C   UNL     1       2.645  -8.401   2.327  0.00  0.00    +0.053 A 
ENDBRANCH   5  10
ENDBRANCH   1   2
BRANCH   1  15
ATOM     15  C   UNL     1       0.623  -3.173  -0.021  0.00  0.00    +0.342 C 
ATOM     16  O   UNL     1      -0.577  -2.972  -0.009  0.00  0.00    -0.245 OA
BRANCH  15  23
ATOM     17  C   UNL     1      -0.016   1.347   0.009  0.00  0.00    +0.001 A 
ATOM     18  C   UNL     1       1.158   2.116   0.002  0.00  0.00    +0.002 A 
ATOM     19  C   UNL     1       2.384   1.549  -0.012  0.00  0.00    +0.026 A 
ATOM     20  C   UNL     1       2.494   0.083  -0.021  0.00  0.00    +0.043 A 
ATOM     21  N   UNL     1       3.528  -0.714  -0.035  0.00  0.00    -0.380 N 
ATOM     22  C   UNL     1       3.065  -2.105  -0.039  0.00  0.00    +0.156 C 
ATOM     23  C   UNL     1       1.554  -2.044  -0.024  0.00  0.00    +0.065 C 
ATOM     24  C   UNL     1       1.236  -0.701  -0.013  0.00  0.00    +0.010 A 
ATOM     25  C   UNL     1       0.002  -0.004   0.002  0.00  0.00    +0.010 A 
ATOM     26  H   UNL     1       4.455  -0.430  -0.043  0.00  0.00    +0.160 HD
ENDBRANCH  15  23
ENDBRANCH   1  15
TORSDOF 4
