REMARK  Name = ZINC04508732
REMARK  8 active torsions:
REMARK  status: ('A' for Active; 'I' for Inactive)
REMARK    1  A    between atoms: C_1  and  C_2
REMARK    2  A    between atoms: C_5  and  C_8
REMARK    3  A    between atoms: N_10  and  C_11
REMARK    4  A    between atoms: C_11  and  C_27
REMARK    5  A    between atoms: C_12  and  C_13
REMARK    6  A    between atoms: C_16  and  C_18
REMARK    7  A    between atoms: C_21  and  N_24
REMARK    8  A    between atoms: N_29  and  C_30
REMARK                            x       y       z     vdW  Elec       q    Type
REMARK                         _______ _______ _______ _____ _____    ______ ____
ROOT
ATOM      1  C   UNL     1       0.203  -6.185   0.891  0.00  0.00    +0.100 C 
ATOM      2  C   UNL     1       0.199  -6.997   2.034  0.00  0.00    +0.074 C 
ENDROOT
BRANCH   2   3
ATOM      3  C   UNL     1       0.218  -6.419   3.295  0.00  0.00    +0.131 A 
ATOM      4  C   UNL     1       0.327  -7.130   4.578  0.00  0.00    +0.050 A 
ATOM      5  C   UNL     1       0.306  -6.177   5.545  0.00  0.00    +0.050 A 
ATOM      6  C   UNL     1       0.189  -4.919   4.902  0.00  0.00    +0.136 A 
ATOM      7  O   UNL     1       0.145  -5.098   3.571  0.00  0.00    -0.455 OA
BRANCH   6   8
ATOM      8  C   UNL     1       0.133  -3.666   5.562  0.00  0.00    +0.017 A 
ATOM      9  C   UNL     1       0.306  -3.591   6.957  0.00  0.00    +0.014 A 
ATOM     10  C   UNL     1       0.250  -2.377   7.582  0.00  0.00    +0.033 A 
ATOM     11  C   UNL     1       0.024  -1.222   6.848  0.00  0.00    +0.126 A 
ATOM     12  C   UNL     1      -0.148  -1.285   5.473  0.00  0.00    +0.033 A 
ATOM     13  C   UNL     1      -0.090  -2.487   4.826  0.00  0.00    +0.014 A 
BRANCH  11  14
ATOM     14  N   UNL     1      -0.035   0.087   7.537  0.00  0.00    +0.056 N 
ATOM     15  O   UNL     1       0.127   0.152   8.842  0.00  0.00    -0.126 OA
ATOM     16  O   UNL     1      -0.249   1.186   6.844  0.00  0.00    -0.126 OA
ENDBRANCH  11  14
ENDBRANCH   6   8
ENDBRANCH   2   3
BRANCH   1  19
ATOM     17  C   UNL     1      -0.898  -4.171   0.452  0.00  0.00    +0.248 C 
ATOM     18  O   UNL     1      -1.802  -4.780  -0.086  0.00  0.00    -0.270 OA
ATOM     19  N   UNL     1       0.126  -4.842   1.016  0.00  0.00    -0.277 N 
ATOM     20  H   UNL     1       0.806  -4.361   1.512  0.00  0.00    +0.155 HD
BRANCH  17  25
ATOM     21  C   UNL     1      -0.990   1.581   0.588  0.00  0.00    +0.044 C 
ATOM     22  C   UNL     1      -0.966   0.074   0.552  0.00  0.00    -0.050 A 
ATOM     23  C   UNL     1      -1.941  -0.614  -0.148  0.00  0.00    +0.004 A 
ATOM     24  C   UNL     1      -1.925  -1.993  -0.185  0.00  0.00    +0.013 A 
ATOM     25  C   UNL     1      -0.921  -2.694   0.486  0.00  0.00    +0.037 A 
ATOM     26  C   UNL     1       0.059  -1.994   1.192  0.00  0.00    +0.013 A 
ATOM     27  C   UNL     1       0.034  -0.615   1.216  0.00  0.00    +0.004 A 
ENDBRANCH  17  25
ENDBRANCH   1  19
BRANCH   1  28
ATOM     28  C   UNL     1       0.293  -6.803  -0.460  0.00  0.00    +0.259 C 
ATOM     29  O   UNL     1       0.268  -8.011  -0.578  0.00  0.00    -0.269 OA
ATOM     30  N   UNL     1       0.404  -6.022  -1.553  0.00  0.00    -0.306 N 
ATOM     31  H   UNL     1       0.498  -5.061  -1.455  0.00  0.00    +0.149 HD
BRANCH  30  32
ATOM     32  C   UNL     1       0.381  -6.623  -2.889  0.00  0.00    +0.096 C 
ATOM     33  C   UNL     1       1.800  -7.064  -3.284  0.00  0.00    +0.046 C 
ATOM     34  C   UNL     1       1.847  -7.399  -4.794  0.00  0.00    +0.168 C 
ATOM     35  S   UNL     1       0.524  -6.325  -5.488  0.00  0.00    -0.029 S 
ATOM     36  O   UNL     1      -0.490  -7.146  -6.050  0.00  0.00    -0.174 OA
ATOM     37  O   UNL     1       1.123  -5.310  -6.282  0.00  0.00    -0.174 OA
ATOM     38  C   UNL     1      -0.107  -5.574  -3.929  0.00  0.00    +0.188 C 
ENDBRANCH  30  32
ENDBRANCH   1  28
TORSDOF 7
