REMARK  Name = ZINC39825410
REMARK  6 active torsions:
REMARK  status: ('A' for Active; 'I' for Inactive)
REMARK    1  A    between atoms: C_5  and  C_7
REMARK    2  A    between atoms: C_7  and  N_8
REMARK    3  A    between atoms: C_9  and  C_25
REMARK    4  A    between atoms: C_28  and  O_31
REMARK    5  A    between atoms: O_31  and  C_32
REMARK    6  A    between atoms: C_32  and  C_33
REMARK                            x       y       z     vdW  Elec       q    Type
REMARK                         _______ _______ _______ _____ _____    ______ ____
ROOT
ATOM      1  N   UNL     1       1.489  -2.679   1.333  0.00  0.00    -0.279 N 
ATOM      2  C   UNL     1       2.813  -2.947   1.916  0.00  0.00    +0.145 C 
ATOM      3  C   UNL     1       2.556  -3.430   3.306  0.00  0.00    +0.072 A 
ATOM      4  C   UNL     1       3.475  -3.859   4.365  0.00  0.00    +0.199 A 
ATOM      5  O   UNL     1       4.683  -3.715   4.300  0.00  0.00    -0.287 OA
ATOM      6  C   UNL     1       2.793  -4.487   5.525  0.00  0.00    +0.066 A 
ATOM      7  C   UNL     1       3.535  -5.125   6.520  0.00  0.00    +0.035 A 
ATOM      8  C   UNL     1       2.885  -5.707   7.586  0.00  0.00    +0.042 A 
ATOM      9  C   UNL     1       1.499  -5.657   7.668  0.00  0.00    +0.023 A 
ATOM     10  C   UNL     1       0.758  -5.030   6.693  0.00  0.00    +0.048 A 
ATOM     11  C   UNL     1       1.392  -4.431   5.604  0.00  0.00    +0.140 A 
ATOM     12  O   UNL     1       0.640  -3.812   4.666  0.00  0.00    -0.450 OA
ATOM     13  C   UNL     1       1.204  -3.433   3.503  0.00  0.00    +0.199 A 
ATOM     14  C   UNL     1       0.557  -2.960   2.266  0.00  0.00    +0.283 C 
ATOM     15  O   UNL     1      -0.642  -2.844   2.110  0.00  0.00    -0.267 OA
ATOM     16 CL   UNL     1       3.799  -6.502   8.830  0.00  0.00    -0.084 Cl
ENDROOT
BRANCH   2  17
ATOM     17  C   UNL     1       3.527  -4.008   1.119  0.00  0.00    -0.022 A 
ATOM     18  C   UNL     1       2.825  -5.095   0.632  0.00  0.00    +0.009 A 
ATOM     19  C   UNL     1       3.477  -6.069  -0.098  0.00  0.00    +0.046 A 
ATOM     20  C   UNL     1       4.838  -5.956  -0.344  0.00  0.00    +0.121 A 
ATOM     21  C   UNL     1       5.540  -4.865   0.145  0.00  0.00    +0.046 A 
ATOM     22  C   UNL     1       4.882  -3.890   0.871  0.00  0.00    +0.009 A 
BRANCH  20  23
ATOM     23  O   UNL     1       5.481  -6.914  -1.062  0.00  0.00    -0.483 OA
BRANCH  23  24
ATOM     24  C   UNL     1       6.883  -6.732  -1.276  0.00  0.00    +0.324 C 
BRANCH  24  25
ATOM     25  C   UNL     1       7.421  -7.883  -2.085  0.00  0.00    +0.248 C 
ATOM     26  O   UNL     1       6.678  -8.772  -2.444  0.00  0.00    -0.272 OA
ATOM     27  N   UNL     1       8.728  -7.926  -2.411  0.00  0.00    -0.327 N 
ATOM     28  H   UNL     1       9.322  -7.215  -2.124  0.00  0.00    +0.145 HD
ATOM     29  H   UNL     1       9.074  -8.667  -2.932  0.00  0.00    +0.145 HD
ENDBRANCH  24  25
ENDBRANCH  23  24
ENDBRANCH  20  23
ENDBRANCH   2  17
BRANCH   1  30
ATOM     30  C   UNL     1       1.229  -2.186  -0.022  0.00  0.00    +0.145 C 
BRANCH  30  35
ATOM     31  C   UNL     1      -0.017   1.378   0.010  0.00  0.00    +0.000 A 
ATOM     32  C   UNL     1       1.171   2.086   0.002  0.00  0.00    +0.001 A 
ATOM     33  C   UNL     1       2.377   1.412  -0.013  0.00  0.00    +0.020 A 
ATOM     34  C   UNL     1       2.397   0.029  -0.021  0.00  0.00    +0.046 A 
ATOM     35  C   UNL     1       1.208  -0.679  -0.013  0.00  0.00    -0.012 A 
ATOM     36  C   UNL     1       0.002  -0.004   0.002  0.00  0.00    +0.006 A 
ATOM     37 CL   UNL     1       3.912  -0.818  -0.041  0.00  0.00    -0.083 Cl
ENDBRANCH  30  35
ENDBRANCH   1  30
TORSDOF 6
