REMARK  Name = ZINC33821641
REMARK  5 active torsions:
REMARK  status: ('A' for Active; 'I' for Inactive)
REMARK    1  A    between atoms: C_1  and  O_2
REMARK    2  A    between atoms: O_2  and  C_3
REMARK    3  A    between atoms: C_6  and  N_9
REMARK    4  A    between atoms: N_31  and  C_34
REMARK    5  A    between atoms: C_34  and  C_35
REMARK                            x       y       z     vdW  Elec       q    Type
REMARK                         _______ _______ _______ _____ _____    ______ ____
ROOT
ATOM      1  N   UNL     1      -4.892  -2.582   0.034  0.00  0.00    -0.210 N 
ATOM      2  C   UNL     1      -6.054  -1.927   0.136  0.00  0.00    +0.232 C 
ATOM      3  O   UNL     1      -6.175  -0.725   0.232  0.00  0.00    -0.274 OA
ATOM      4  C   UNL     1      -7.194  -2.920   0.113  0.00  0.00    +0.107 C 
ATOM      5  C   UNL     1      -7.881  -2.942   1.490  0.00  0.00    +0.071 C 
ATOM      6  C   UNL     1      -9.316  -2.400   1.352  0.00  0.00    +0.021 C 
ATOM      7  C   UNL     1     -10.197  -3.633   1.073  0.00  0.00    +0.017 C 
ATOM      8  C   UNL     1      -9.222  -4.826   1.036  0.00  0.00    +0.086 C 
ATOM      9  N   UNL     1      -8.021  -4.390   1.835  0.00  0.00    -0.281 NA
ATOM     10  C   UNL     1      -6.792  -5.011   1.311  0.00  0.00    +0.138 C 
ATOM     11  C   UNL     1      -6.474  -4.290  -0.021  0.00  0.00    +0.123 C 
ATOM     12  C   UNL     1      -5.010  -3.911  -0.065  0.00  0.00    +0.233 C 
ATOM     13  O   UNL     1      -4.088  -4.691  -0.172  0.00  0.00    -0.274 OA
ATOM     14  C   UNL     1      -5.657  -4.897   2.289  0.00  0.00    +0.004 A 
ATOM     15  C   UNL     1      -5.019  -3.829   2.881  0.00  0.00    +0.008 A 
ATOM     16  C   UNL     1      -3.976  -4.047   3.763  0.00  0.00    +0.000 A 
ATOM     17  C   UNL     1      -3.575  -5.340   4.048  0.00  0.00    +0.002 A 
ATOM     18  C   UNL     1      -4.210  -6.412   3.458  0.00  0.00    +0.024 A 
ATOM     19  C   UNL     1      -5.262  -6.201   2.569  0.00  0.00    +0.042 A 
ATOM     20  N   UNL     1      -6.051  -7.108   1.857  0.00  0.00    -0.265 N 
ATOM     21  C   UNL     1      -6.973  -6.489   1.096  0.00  0.00    +0.246 C 
ATOM     22  O   UNL     1      -7.792  -7.021   0.376  0.00  0.00    -0.273 OA
ENDROOT
BRANCH   1  26
ATOM     23  C   UNL     1      -1.201  -0.637   0.009  0.00  0.00    +0.120 A 
ATOM     24  C   UNL     1      -1.648  -1.291  -1.130  0.00  0.00    +0.047 A 
ATOM     25  C   UNL     1      -2.870  -1.935  -1.122  0.00  0.00    +0.027 A 
ATOM     26  C   UNL     1      -3.650  -1.928   0.026  0.00  0.00    +0.044 A 
ATOM     27  C   UNL     1      -3.202  -1.274   1.165  0.00  0.00    +0.027 A 
ATOM     28  C   UNL     1      -1.978  -0.634   1.158  0.00  0.00    +0.047 A 
BRANCH  23  30
ATOM     29  C   UNL     1       0.749  -0.046  -1.216  0.00  0.00    +0.277 C 
ATOM     30  O   UNL     1       0.002  -0.003   0.001  0.00  0.00    -0.495 OA
ENDBRANCH  23  30
ENDBRANCH   1  26
BRANCH  20  31
ATOM     31  C   UNL     1      -5.893  -8.562   1.931  0.00  0.00    +0.148 C 
BRANCH  31  32
ATOM     32  C   UNL     1      -6.762  -9.107   3.035  0.00  0.00    -0.030 A 
ATOM     33  C   UNL     1      -6.261  -9.215   4.319  0.00  0.00    +0.005 A 
ATOM     34  C   UNL     1      -7.058  -9.714   5.332  0.00  0.00    +0.000 A 
ATOM     35  C   UNL     1      -8.356 -10.106   5.061  0.00  0.00    +0.000 A 
ATOM     36  C   UNL     1      -8.857  -9.997   3.777  0.00  0.00    +0.000 A 
ATOM     37  C   UNL     1      -8.061  -9.494   2.765  0.00  0.00    +0.005 A 
ENDBRANCH  31  32
ENDBRANCH  20  31
TORSDOF 4
