REMARK  Name = ZINC09243124
REMARK  7 active torsions:
REMARK  status: ('A' for Active; 'I' for Inactive)
REMARK    1  A    between atoms: C_1  and  N_2
REMARK    2  A    between atoms: N_7  and  C_10
REMARK    3  A    between atoms: N_11  and  C_20
REMARK    4  A    between atoms: C_20  and  C_21
REMARK    5  A    between atoms: C_21  and  S_22
REMARK    6  A    between atoms: S_22  and  C_23
REMARK    7  A    between atoms: N_27  and  C_28
REMARK                            x       y       z     vdW  Elec       q    Type
REMARK                         _______ _______ _______ _____ _____    ______ ____
ROOT
ATOM      1  C   UNL     1      -2.114   0.104   4.474  0.00  0.00    +0.155 C 
ATOM      2  N   UNL     1      -1.676   1.046   3.441  0.00  0.00    -0.280 N 
ATOM      3  C   UNL     1      -1.921   2.401   3.591  0.00  0.00    +0.170 A 
ATOM      4  C   UNL     1      -1.494   3.274   2.596  0.00  0.00    +0.153 A 
ATOM      5  C   UNL     1      -0.823   2.759   1.473  0.00  0.00    +0.282 A 
ATOM      6  O   UNL     1      -0.435   3.505   0.592  0.00  0.00    -0.265 OA
ATOM      7  N   UNL     1      -0.617   1.429   1.380  0.00  0.00    -0.262 N 
ATOM      8  C   UNL     1      -1.034   0.594   2.347  0.00  0.00    +0.333 A 
ATOM      9  O   UNL     1      -0.827  -0.599   2.232  0.00  0.00    -0.246 OA
ATOM     10  C   UNL     1       0.078   0.887   0.209  0.00  0.00    +0.157 C 
ATOM     11  N   UNL     1      -1.867   4.547   3.006  0.00  0.00    -0.305 N 
ATOM     12  C   UNL     1      -2.493   4.405   4.204  0.00  0.00    +0.201 A 
ATOM     13  N   UNL     1      -2.516   3.130   4.537  0.00  0.00    -0.196 NA
ATOM     14  N   UNL     1      -3.019   5.432   4.953  0.00  0.00    -0.297 N 
ATOM     15  C   UNL     1      -2.338   5.540   6.252  0.00  0.00    +0.136 C 
ATOM     16  C   UNL     1      -2.912   6.729   7.026  0.00  0.00    +0.179 C 
ATOM     17  O   UNL     1      -4.325   6.561   7.168  0.00  0.00    -0.377 OA
ATOM     18  C   UNL     1      -5.021   6.453   5.923  0.00  0.00    +0.179 C 
ATOM     19  C   UNL     1      -4.468   5.261   5.138  0.00  0.00    +0.136 C 
ENDROOT
BRANCH  11  20
ATOM     20  C   UNL     1      -1.633   5.801   2.285  0.00  0.00    +0.136 C 
BRANCH  20  21
ATOM     21  C   UNL     1      -2.792   6.060   1.321  0.00  0.00    +0.099 C 
BRANCH  21  22
ATOM     22  S   UNL     1      -2.503   7.609   0.431  0.00  0.00    -0.082 S 
BRANCH  22  23
ATOM     23  C   UNL     1      -3.947   7.657  -0.577  0.00  0.00    +0.214 A 
ATOM     24  N   UNL     1      -4.913   6.765  -0.603  0.00  0.00    -0.101 NA
ATOM     25  N   UNL     1      -5.816   7.104  -1.450  0.00  0.00    -0.022 NA
ATOM     26  N   UNL     1      -5.503   8.217  -2.019  0.00  0.00    -0.038 NA
ATOM     27  N   UNL     1      -4.275   8.625  -1.470  0.00  0.00    -0.187 N 
BRANCH  27  28
ATOM     28  C   UNL     1      -3.546   9.782  -1.778  0.00  0.00    +0.070 A 
ATOM     29  C   UNL     1      -2.832  10.440  -0.786  0.00  0.00    +0.028 A 
ATOM     30  C   UNL     1      -2.110  11.576  -1.095  0.00  0.00    +0.002 A 
ATOM     31  C   UNL     1      -2.107  12.066  -2.388  0.00  0.00    +0.000 A 
ATOM     32  C   UNL     1      -2.822  11.416  -3.377  0.00  0.00    +0.002 A 
ATOM     33  C   UNL     1      -3.541  10.276  -3.076  0.00  0.00    +0.028 A 
ENDBRANCH  27  28
ENDBRANCH  22  23
ENDBRANCH  21  22
ENDBRANCH  20  21
ENDBRANCH  11  20
TORSDOF 5
