REMARK  Name = ZINC36207179
REMARK  17 active torsions:
REMARK  status: ('A' for Active; 'I' for Inactive)
REMARK    1  A    between atoms: C_1  and  C_2
REMARK    2  A    between atoms: C_2  and  O_3
REMARK    3  A    between atoms: O_3  and  C_4
REMARK    4  A    between atoms: C_4  and  C_6
REMARK    5  A    between atoms: C_7  and  C_36
REMARK    6  A    between atoms: C_13  and  C_17
REMARK    7  A    between atoms: C_17  and  N_18
REMARK    8  A    between atoms: N_18  and  C_19
REMARK    9  A    between atoms: N_18  and  C_23
REMARK   10  A    between atoms: C_19  and  C_20
REMARK   11  A    between atoms: C_20  and  O_21
REMARK   12  A    between atoms: O_21  and  C_22
REMARK   13  A    between atoms: C_23  and  C_24
REMARK   14  A    between atoms: C_24  and  C_26
REMARK   15  A    between atoms: C_24  and  O_35
REMARK   16  A    between atoms: C_26  and  O_27
REMARK   17  A    between atoms: O_27  and  C_28
REMARK                            x       y       z     vdW  Elec       q    Type
REMARK                         _______ _______ _______ _____ _____    ______ ____
ROOT
ATOM      1  N   UNL     1       4.589  -2.942  -8.194  0.00  0.00    +0.388 N 
ATOM      2  H   UNL     1       3.842  -2.268  -8.263  0.00  0.00    -0.081 HD
ENDROOT
BRANCH   1   3
ATOM      3  C   UNL     1       4.092  -4.158  -7.537  0.00  0.00    -0.003 C 
BRANCH   3  11
ATOM      4  C   UNL     1       1.941  -1.228  -2.361  0.00  0.00    +0.102 A 
ATOM      5  C   UNL     1       1.865  -2.571  -2.591  0.00  0.00    -0.015 A 
ATOM      6  C   UNL     1       2.377  -3.103  -3.776  0.00  0.00    +0.076 A 
ATOM      7  C   UNL     1       2.406  -4.510  -4.235  0.00  0.00    +0.260 A 
ATOM      8  O   UNL     1       1.939  -5.401  -3.548  0.00  0.00    -0.267 OA
ATOM      9  N   UNL     1       2.961  -4.780  -5.433  0.00  0.00    -0.312 N 
ATOM     10  H   UNL     1       2.988  -5.697  -5.748  0.00  0.00    +0.170 HD
ATOM     11  C   UNL     1       3.483  -3.797  -6.206  0.00  0.00    +0.094 A 
ATOM     12  N   UNL     1       3.475  -2.546  -5.832  0.00  0.00    -0.229 NA
ATOM     13  C   UNL     1       2.953  -2.171  -4.671  0.00  0.00    +0.116 A 
ATOM     14  S   UNL     1       2.748  -0.620  -3.833  0.00  0.00    -0.062 S 
ATOM     15  C   UNL     1       1.231  -3.478  -1.569  0.00  0.00    +0.046 C 
BRANCH   4  16
ATOM     16  C   UNL     1       1.472  -0.472  -1.198  0.00  0.00    +0.346 C 
ATOM     17  O   UNL     1       0.937  -1.051  -0.271  0.00  0.00    -0.244 OA
BRANCH  16  18
ATOM     18  O   UNL     1       1.633   0.867  -1.153  0.00  0.00    -0.461 OA
BRANCH  18  20
ATOM     19  C   UNL     1       1.420   3.040  -0.118  0.00  0.00    +0.048 C 
ATOM     20  C   UNL     1       1.151   1.540   0.012  0.00  0.00    +0.229 C 
ENDBRANCH  18  20
ENDBRANCH  16  18
ENDBRANCH   4  16
ENDBRANCH   3  11
ENDBRANCH   1   3
BRANCH   1  21
ATOM     21  C   UNL     1       5.690  -2.374  -7.404  0.00  0.00    -0.050 C 
BRANCH  21  22
ATOM     22  C   UNL     1       6.104  -1.027  -8.001  0.00  0.00    +0.141 C 
BRANCH  22  23
ATOM     23  O   UNL     1       5.013  -0.109  -7.906  0.00  0.00    -0.385 OA
ATOM     24  C   UNL     1       5.296   1.187  -8.438  0.00  0.00    +0.193 C 
ENDBRANCH  22  23
ENDBRANCH  21  22
ENDBRANCH   1  21
BRANCH   1  25
ATOM     25  C   UNL     1       5.074  -3.276  -9.540  0.00  0.00    -0.043 C 
BRANCH  25  26
ATOM     26  C   UNL     1       3.898  -3.733 -10.406  0.00  0.00    +0.135 C 
BRANCH  26  27
ATOM     27  O   UNL     1       2.936  -2.681 -10.498  0.00  0.00    -0.390 OA
ATOM     28  H   UNL     1       3.257  -1.893 -10.958  0.00  0.00    +0.210 HD
ENDBRANCH  26  27
BRANCH  26  29
ATOM     29  C   UNL     1       4.404  -4.086 -11.806  0.00  0.00    +0.258 C 
BRANCH  29  30
ATOM     30  O   UNL     1       3.329  -4.623 -12.579  0.00  0.00    -0.489 OA
BRANCH  30  31
ATOM     31  C   UNL     1       3.611  -4.990 -13.857  0.00  0.00    +0.121 A 
ATOM     32  C   UNL     1       4.897  -4.841 -14.355  0.00  0.00    +0.047 A 
ATOM     33  C   UNL     1       5.182  -5.215 -15.654  0.00  0.00    +0.023 A 
ATOM     34  C   UNL     1       4.185  -5.737 -16.459  0.00  0.00    +0.041 A 
ATOM     35  C   UNL     1       2.901  -5.885 -15.965  0.00  0.00    +0.023 A 
ATOM     36  C   UNL     1       2.614  -5.519 -14.664  0.00  0.00    +0.047 A 
ATOM     37 CL   UNL     1       4.545  -6.205 -18.091  0.00  0.00    -0.084 Cl
ENDBRANCH  30  31
ENDBRANCH  29  30
ENDBRANCH  26  29
ENDBRANCH  25  26
ENDBRANCH   1  25
TORSDOF 14
