REMARK  Name = ZINC32916929
REMARK  7 active torsions:
REMARK  status: ('A' for Active; 'I' for Inactive)
REMARK    1  A    between atoms: C_4  and  C_7
REMARK    2  A    between atoms: C_9  and  C_12
REMARK    3  A    between atoms: N_14  and  N_15
REMARK    4  A    between atoms: C_16  and  C_18
REMARK    5  A    between atoms: C_23  and  S_24
REMARK    6  A    between atoms: S_24  and  C_25
REMARK    7  A    between atoms: C_25  and  C_26
REMARK                            x       y       z     vdW  Elec       q    Type
REMARK                         _______ _______ _______ _____ _____    ______ ____
ROOT
ATOM      1  N   UNL     1      -1.238  -2.111   0.003  0.00  0.00    -0.230 N 
ATOM      2  C   UNL     1      -1.261  -0.763   0.011  0.00  0.00    +0.261 C 
ATOM      3  O   UNL     1      -2.325  -0.173   0.024  0.00  0.00    -0.269 OA
ATOM      4  H   UNL     1      -0.276  -2.644  -0.009  0.00  0.00    +0.173 HD
ENDROOT
BRANCH   2   5
ATOM      5  C   UNL     1       0.002  -0.004   0.002  0.00  0.00    +0.052 A 
ATOM      6  C   UNL     1       1.227  -0.677  -0.013  0.00  0.00    +0.014 A 
ATOM      7  C   UNL     1       2.404   0.038  -0.021  0.00  0.00    +0.001 A 
ATOM      8  C   UNL     1       2.382   1.424  -0.013  0.00  0.00    +0.001 A 
ATOM      9  C   UNL     1       1.182   2.104   0.002  0.00  0.00    +0.015 A 
ATOM     10  C   UNL     1      -0.017   1.400   0.010  0.00  0.00    +0.020 A 
BRANCH  10  11
ATOM     11  S   UNL     1      -1.552   2.265   0.022  0.00  0.00    -0.115 S 
BRANCH  11  12
ATOM     12  C   UNL     1      -1.070   4.014   0.029  0.00  0.00    +0.170 C 
BRANCH  12  13
ATOM     13  C   UNL     1      -2.306   4.876   0.040  0.00  0.00    +0.230 C 
ATOM     14  O   UNL     1      -3.404   4.361   0.042  0.00  0.00    -0.274 OA
ATOM     15  N   UNL     1      -2.192   6.218   0.046  0.00  0.00    -0.270 N 
ATOM     16  C   UNL     1      -3.317   7.158   0.051  0.00  0.00    +0.118 C 
ATOM     17  C   UNL     1      -2.675   8.555   0.060  0.00  0.00    +0.056 C 
ATOM     18  C   UNL     1      -1.187   8.291   0.052  0.00  0.00    -0.024 A 
ATOM     19  C   UNL     1      -0.982   6.920   0.044  0.00  0.00    +0.039 A 
ATOM     20  C   UNL     1       0.325   6.430   0.035  0.00  0.00    +0.024 A 
ATOM     21  C   UNL     1       1.394   7.301   0.035  0.00  0.00    +0.002 A 
ATOM     22  C   UNL     1       1.179   8.666   0.043  0.00  0.00    +0.000 A 
ATOM     23  C   UNL     1      -0.112   9.159   0.051  0.00  0.00    +0.005 A 
ENDBRANCH  12  13
ENDBRANCH  11  12
ENDBRANCH  10  11
ENDBRANCH   2   5
BRANCH   1  26
ATOM     24  C   UNL     1      -2.416  -4.179   0.004  0.00  0.00    +0.282 C 
ATOM     25  O   UNL     1      -1.353  -4.769  -0.010  0.00  0.00    -0.267 OA
ATOM     26  N   UNL     1      -2.439  -2.832   0.011  0.00  0.00    -0.229 N 
ATOM     27  H   UNL     1      -3.401  -2.299   0.024  0.00  0.00    +0.173 HD
BRANCH  24  30
ATOM     28  C   UNL     1      -5.186  -6.545   0.019  0.00  0.00    +0.168 A 
ATOM     29  C   UNL     1      -3.832  -6.355   0.000  0.00  0.00    +0.086 A 
ATOM     30  C   UNL     1      -3.687  -4.943   0.012  0.00  0.00    +0.170 A 
ATOM     31  N   UNL     1      -4.901  -4.449   0.026  0.00  0.00    -0.073 NA
ATOM     32  O   UNL     1      -5.740  -5.319   0.030  0.00  0.00    -0.354 OA
BRANCH  28  36
ATOM     33  C   UNL     1      -7.236 -10.265   0.019  0.00  0.00    +0.000 A 
ATOM     34  C   UNL     1      -7.954  -9.083   0.033  0.00  0.00    +0.001 A 
ATOM     35  C   UNL     1      -7.295  -7.871   0.033  0.00  0.00    +0.011 A 
ATOM     36  C   UNL     1      -5.899  -7.840   0.019  0.00  0.00    +0.020 A 
ATOM     37  C   UNL     1      -5.181  -9.036  -0.000  0.00  0.00    +0.011 A 
ATOM     38  C   UNL     1      -5.852 -10.241   0.005  0.00  0.00    +0.001 A 
ENDBRANCH  28  36
ENDBRANCH  24  30
ENDBRANCH   1  26
TORSDOF 7
