REMARK  Name = ZINC36738625
REMARK  4 active torsions:
REMARK  status: ('A' for Active; 'I' for Inactive)
REMARK    1  A    between atoms: C_1  and  C_2
REMARK    2  A    between atoms: C_5  and  C_7
REMARK    3  A    between atoms: N_9  and  C_10
REMARK    4  A    between atoms: C_15  and  N_16
REMARK                            x       y       z     vdW  Elec       q    Type
REMARK                         _______ _______ _______ _____ _____    ______ ____
ROOT
ATOM      1  C   UNL     1       2.658  -3.884   1.548  0.00  0.00    +0.056 A 
ATOM      2  C   UNL     1       2.668  -4.338   0.237  0.00  0.00    +0.052 A 
ATOM      3  C   UNL     1       3.253  -5.557  -0.066  0.00  0.00    +0.078 A 
ATOM      4  C   UNL     1       3.830  -6.327   0.943  0.00  0.00    +0.144 A 
ATOM      5  C   UNL     1       3.821  -5.874   2.250  0.00  0.00    +0.072 A 
ATOM      6  C   UNL     1       3.240  -4.651   2.556  0.00  0.00    +0.050 A 
ATOM      7  O   UNL     1       4.398  -7.523   0.629  0.00  0.00    -0.481 OA
ATOM      8  C   UNL     1       3.802  -8.256  -0.445  0.00  0.00    +0.325 C 
ATOM      9  C   UNL     1       3.554  -7.334  -1.611  0.00  0.00    +0.255 C 
ATOM     10  O   UNL     1       3.606  -7.760  -2.746  0.00  0.00    -0.272 OA
ATOM     11  N   UNL     1       3.273  -6.032  -1.388  0.00  0.00    -0.280 N 
ATOM     12  H   UNL     1       3.088  -5.434  -2.129  0.00  0.00    +0.155 HD
ENDROOT
BRANCH   1  15
ATOM     13  C   UNL     1       1.963  -1.696   0.912  0.00  0.00    +0.221 C 
ATOM     14  O   UNL     1       2.469  -1.864  -0.177  0.00  0.00    -0.275 OA
ATOM     15  N   UNL     1       2.066  -2.650   1.858  0.00  0.00    -0.284 N 
ATOM     16  H   UNL     1       1.732  -2.484   2.753  0.00  0.00    +0.155 HD
BRANCH  13  20
ATOM     17  C   UNL     1       1.169   2.099   0.503  0.00  0.00    +0.008 C 
ATOM     18  C   UNL     1       1.136   0.625   0.093  0.00  0.00    -0.002 C 
ATOM     19  C   UNL     1      -0.104  -0.186   0.473  0.00  0.00    +0.017 C 
ATOM     20  C   UNL     1       1.218  -0.419   1.208  0.00  0.00    +0.078 C 
ENDBRANCH  13  20
ENDBRANCH   1  15
BRANCH   6  21
ATOM     21  N   UNL     1       3.234  -4.190   3.878  0.00  0.00    -0.356 N 
ATOM     22  H   UNL     1       2.825  -3.337   4.092  0.00  0.00    +0.142 HD
ATOM     23  H   UNL     1       3.639  -4.723   4.580  0.00  0.00    +0.142 HD
ENDBRANCH   6  21
TORSDOF 3
