REMARK  Name = ZINC15730594
REMARK  6 active torsions:
REMARK  status: ('A' for Active; 'I' for Inactive)
REMARK    1  A    between atoms: C_1  and  C_2
REMARK    2  A    between atoms: C_10  and  S_15
REMARK    3  A    between atoms: S_15  and  N_18
REMARK    4  A    between atoms: N_18  and  C_19
REMARK    5  A    between atoms: C_22  and  C_25
REMARK    6  A    between atoms: C_25  and  N_57
REMARK                            x       y       z     vdW  Elec       q    Type
REMARK                         _______ _______ _______ _____ _____    ______ ____
ROOT
ATOM      1  S   UNL     1       0.869   4.446   7.154  0.00  0.00    +0.072 S 
ATOM      2  O   UNL     1       1.516   5.451   7.923  0.00  0.00    -0.150 OA
ATOM      3  O   UNL     1      -0.298   3.773   7.607  0.00  0.00    -0.150 OA
ENDROOT
BRANCH   1  12
ATOM      4  C   UNL     1      -2.960   8.182   2.487  0.00  0.00    +0.020 C 
ATOM      5  C   UNL     1      -1.526   8.565   2.114  0.00  0.00    +0.057 C 
ATOM      6  C   UNL     1      -0.814   9.177   3.333  0.00  0.00    +0.110 C 
ATOM      7  C   UNL     1       0.673   9.140   3.145  0.00  0.00    +0.218 C 
ATOM      8  O   UNL     1       1.227  10.073   2.601  0.00  0.00    -0.275 OA
ATOM      9  N   UNL     1       1.401   8.098   3.564  0.00  0.00    -0.284 N 
ATOM     10  C   UNL     1       0.770   6.919   3.989  0.00  0.00    +0.049 A 
ATOM     11  C   UNL     1       1.095   6.342   5.205  0.00  0.00    +0.053 A 
ATOM     12  C   UNL     1       0.457   5.182   5.607  0.00  0.00    +0.110 A 
ATOM     13  C   UNL     1      -0.501   4.596   4.800  0.00  0.00    +0.030 A 
ATOM     14  C   UNL     1      -0.830   5.166   3.583  0.00  0.00    +0.018 A 
ATOM     15  C   UNL     1      -0.195   6.327   3.176  0.00  0.00    +0.029 A 
ATOM     16  S   UNL     1      -0.592   7.075   1.629  0.00  0.00    -0.120 S 
ATOM     17  H   UNL     1       2.369   8.158   3.575  0.00  0.00    +0.155 HD
ENDBRANCH   1  12
BRANCH   1  18
ATOM     18  N   UNL     1       2.003   3.277   6.854  0.00  0.00    -0.216 N 
ATOM     19  H   UNL     1       1.800   2.346   7.037  0.00  0.00    +0.174 HD
BRANCH  18  20
ATOM     20  C   UNL     1       3.251   3.631   6.336  0.00  0.00    +0.048 A 
ATOM     21  C   UNL     1       3.555   3.365   5.007  0.00  0.00    +0.025 A 
ATOM     22  C   UNL     1       4.788   3.720   4.498  0.00  0.00    +0.003 A 
ATOM     23  C   UNL     1       5.724   4.332   5.312  0.00  0.00    -0.064 A 
ATOM     24  C   UNL     1       5.427   4.594   6.636  0.00  0.00    +0.003 A 
ATOM     25  C   UNL     1       4.194   4.246   7.151  0.00  0.00    +0.025 A 
BRANCH  23  26
ATOM     26  C   UNL     1       7.071   4.713   4.754  0.00  0.00    -0.043 C 
BRANCH  26  32
ATOM     27  C   UNL     1       8.271   3.349   6.354  0.00  0.00    -0.078 C 
ATOM     28  C   UNL     1       9.132   2.093   6.505  0.00  0.00    -0.019 C 
ATOM     29  C   UNL     1      10.449   2.289   5.750  0.00  0.00    -0.004 C 
ATOM     30  C   UNL     1      10.146   2.593   4.280  0.00  0.00    -0.019 C 
ATOM     31  C   UNL     1       9.256   3.834   4.193  0.00  0.00    -0.078 C 
ATOM     32  N   UNL     1       7.995   3.572   4.918  0.00  0.00    +0.382 N 
ATOM     33  H   UNL     1       7.556   2.729   4.529  0.00  0.00    -0.081 HD
ENDBRANCH  26  32
ENDBRANCH  23  26
ENDBRANCH  18  20
ENDBRANCH   1  18
TORSDOF 5
