REMARK  Name = ZINC07855277
REMARK  5 active torsions:
REMARK  status: ('A' for Active; 'I' for Inactive)
REMARK    1  A    between atoms: C_4  and  C_7
REMARK    2  A    between atoms: C_7  and  N_8
REMARK    3  A    between atoms: N_16  and  N_17
REMARK    4  A    between atoms: C_18  and  C_20
REMARK    5  A    between atoms: C_20  and  N_21
REMARK                            x       y       z     vdW  Elec       q    Type
REMARK                         _______ _______ _______ _____ _____    ______ ____
ROOT
ATOM      1  N   UNL     1       4.083  -0.904   1.374  0.00  0.00    -0.261 N 
ATOM      2  C   UNL     1       5.093  -0.180   1.997  0.00  0.00    +0.046 A 
ATOM      3  C   UNL     1       5.799   0.951   1.601  0.00  0.00    +0.024 A 
ATOM      4  C   UNL     1       6.774   1.482   2.421  0.00  0.00    +0.002 A 
ATOM      5  C   UNL     1       7.062   0.899   3.643  0.00  0.00    +0.001 A 
ATOM      6  C   UNL     1       6.372  -0.224   4.054  0.00  0.00    +0.012 A 
ATOM      7  C   UNL     1       5.388  -0.766   3.235  0.00  0.00    +0.028 A 
ATOM      8  C   UNL     1       4.486  -1.934   3.370  0.00  0.00    +0.153 C 
ATOM      9  N   UNL     1       4.414  -2.775   4.372  0.00  0.00    -0.174 NA
ATOM     10  C   UNL     1       3.682  -1.939   2.131  0.00  0.00    +0.272 C 
ATOM     11  O   UNL     1       2.812  -2.741   1.846  0.00  0.00    -0.268 OA
ENDROOT
BRANCH   9  12
ATOM     12  N   UNL     1       5.158  -2.543   5.537  0.00  0.00    -0.205 N 
ATOM     13  C   UNL     1       5.181  -3.467   6.518  0.00  0.00    +0.254 C 
ATOM     14  O   UNL     1       4.557  -4.500   6.392  0.00  0.00    -0.272 OA
ATOM     15  H   UNL     1       5.657  -1.717   5.637  0.00  0.00    +0.177 HD
BRANCH  13  16
ATOM     16  C   UNL     1       5.981  -3.217   7.770  0.00  0.00    +0.243 C 
BRANCH  16  17
ATOM     17  N   UNL     1       5.844  -4.362   8.674  0.00  0.00    -0.235 N 
ATOM     18  C   UNL     1       4.885  -4.534   9.644  0.00  0.00    +0.090 A 
ATOM     19  C   UNL     1       3.808  -3.772  10.084  0.00  0.00    +0.029 A 
ATOM     20  C   UNL     1       3.020  -4.233  11.101  0.00  0.00    +0.002 A 
ATOM     21  C   UNL     1       3.285  -5.457  11.701  0.00  0.00    +0.002 A 
ATOM     22  C   UNL     1       4.336  -6.223  11.288  0.00  0.00    +0.032 A 
ATOM     23  C   UNL     1       5.159  -5.774  10.247  0.00  0.00    +0.113 A 
ATOM     24  N   UNL     1       6.242  -6.295   9.638  0.00  0.00    -0.129 NA
ATOM     25  N   UNL     1       6.661  -5.502   8.715  0.00  0.00    -0.064 NA
ENDBRANCH  16  17
ENDBRANCH  13  16
ENDBRANCH   9  12
BRANCH   1  26
ATOM     26  C   UNL     1       3.522  -0.575   0.062  0.00  0.00    +0.149 C 
BRANCH  26  30
ATOM     27  C   UNL     1       0.225   2.098   0.548  0.00  0.00    +0.000 A 
ATOM     28  C   UNL     1       1.503   2.599   0.386  0.00  0.00    +0.000 A 
ATOM     29  C   UNL     1       2.570   1.734   0.229  0.00  0.00    +0.005 A 
ATOM     30  C   UNL     1       2.359   0.368   0.234  0.00  0.00    -0.030 A 
ATOM     31  C   UNL     1       1.081  -0.133   0.397  0.00  0.00    +0.005 A 
ATOM     32  C   UNL     1       0.014   0.732   0.553  0.00  0.00    +0.000 A 
ENDBRANCH  26  30
ENDBRANCH   1  26
TORSDOF 5
