REMARK  Name = ZINC55329737
REMARK  5 active torsions:
REMARK  status: ('A' for Active; 'I' for Inactive)
REMARK    1  A    between atoms: C_2  and  S_10
REMARK    2  A    between atoms: C_5  and  C_6
REMARK    3  A    between atoms: S_10  and  N_13
REMARK    4  A    between atoms: N_13  and  C_14
REMARK    5  A    between atoms: C_20  and  N_22
REMARK                            x       y       z     vdW  Elec       q    Type
REMARK                         _______ _______ _______ _____ _____    ______ ____
ROOT
ATOM      1  S   UNL     1       1.896   3.458   0.002  0.00  0.00    +0.063 S 
ATOM      2  O   UNL     1       2.865   3.554  -1.033  0.00  0.00    -0.153 OA
ATOM      3  O   UNL     1       0.742   4.286   0.043  0.00  0.00    -0.153 OA
ENDROOT
BRANCH   1   5
ATOM      4  C   UNL     1      -0.017   1.375   0.010  0.00  0.00    +0.086 A 
ATOM      5  C   UNL     1       1.321   1.792  -0.001  0.00  0.00    +0.158 A 
ATOM      6  C   UNL     1       2.088   0.677  -0.014  0.00  0.00    +0.197 A 
ATOM      7  O   UNL     1       1.293  -0.400  -0.012  0.00  0.00    -0.439 OA
ATOM      8  C   UNL     1       0.002  -0.004   0.002  0.00  0.00    +0.219 A 
ATOM      9 BR   UNL     1       3.979   0.646  -0.033  0.00  0.00    -0.006 Br
BRANCH   8  10
ATOM     10  C   UNL     1      -1.132  -0.855   0.009  0.00  0.00    +0.421 C 
ATOM     11  O   UNL     1      -2.258  -0.373   0.023  0.00  0.00    -0.237 OA
ATOM     12  O   UNL     1      -0.985  -2.071   0.001  0.00  0.00    -0.237 OA
ENDBRANCH   8  10
ENDBRANCH   1   5
BRANCH   1  13
ATOM     13  N   UNL     1       2.701   3.696   1.429  0.00  0.00    -0.188 NA
ATOM     14  H   UNL     1       2.356   4.324   2.082  0.00  0.00    +0.148 HD
BRANCH  13  15
ATOM     15  C   UNL     1       3.935   2.956   1.706  0.00  0.00    +0.062 C 
ATOM     16  C   UNL     1       3.607   1.704   2.522  0.00  0.00    +0.019 C 
ATOM     17  C   UNL     1       4.896   0.931   2.811  0.00  0.00    +0.001 C 
ATOM     18  C   UNL     1       5.856   1.820   3.604  0.00  0.00    -0.001 C 
ATOM     19  C   UNL     1       6.184   3.072   2.789  0.00  0.00    -0.015 C 
ATOM     20  C   UNL     1       4.895   3.845   2.499  0.00  0.00    -0.056 C 
BRANCH  20  21
ATOM     21  N   UNL     1       5.210   5.047   1.716  0.00  0.00    +0.381 N 
ATOM     22  H   UNL     1       4.360   5.556   1.526  0.00  0.00    -0.090 HD
ATOM     23  H   UNL     1       5.843   5.633   2.240  0.00  0.00    -0.090 HD
ATOM     24  H   UNL     1       5.643   4.777   0.846  0.00  0.00    -0.090 HD
ENDBRANCH  20  21
ENDBRANCH  13  15
ENDBRANCH   1  13
TORSDOF 5
