REMARK  Name = ZINC12489399
REMARK  11 active torsions:
REMARK  status: ('A' for Active; 'I' for Inactive)
REMARK    1  A    between atoms: C_1  and  C_2
REMARK    2  A    between atoms: C_4  and  C_38
REMARK    3  A    between atoms: C_6  and  N_8
REMARK    4  A    between atoms: N_8  and  C_9
REMARK    5  A    between atoms: C_9  and  C_11
REMARK    6  A    between atoms: C_9  and  C_17
REMARK    7  A    between atoms: N_19  and  C_20
REMARK    8  A    between atoms: C_20  and  C_21
REMARK    9  A    between atoms: C_27  and  C_29
REMARK   10  A    between atoms: C_29  and  N_30
REMARK   11  A    between atoms: C_31  and  C_33
REMARK                            x       y       z     vdW  Elec       q    Type
REMARK                         _______ _______ _______ _____ _____    ______ ____
ROOT
ATOM      1  N   UNL     1       1.178   1.845  -0.378  0.00  0.00    -0.254 N 
ATOM      2  C   UNL     1       0.141   1.168  -0.908  0.00  0.00    +0.238 C 
ATOM      3  O   UNL     1       0.089  -0.039  -0.807  0.00  0.00    -0.274 OA
ENDROOT
BRANCH   1   9
ATOM      4  C   UNL     1      -0.356   6.422   0.554  0.00  0.00    +0.044 C 
ATOM      5  C   UNL     1       0.567   5.464  -0.153  0.00  0.00    -0.048 A 
ATOM      6  C   UNL     1       1.534   5.947  -1.016  0.00  0.00    +0.006 A 
ATOM      7  C   UNL     1       2.383   5.071  -1.667  0.00  0.00    -0.048 A 
ATOM      8  C   UNL     1       2.268   3.711  -1.458  0.00  0.00    +0.027 A 
ATOM      9  C   UNL     1       1.298   3.223  -0.592  0.00  0.00    +0.038 A 
ATOM     10  C   UNL     1       0.443   4.105   0.056  0.00  0.00    +0.027 A 
ATOM     11  C   UNL     1       3.436   5.602  -2.606  0.00  0.00    +0.044 C 
ENDBRANCH   1   9
BRANCH   1  12
ATOM     12  C   UNL     1       2.182   1.139   0.423  0.00  0.00    +0.197 C 
BRANCH  12  13
ATOM     13  C   UNL     1       3.298   2.087   0.779  0.00  0.00    -0.018 A 
ATOM     14  C   UNL     1       3.021   3.250   1.474  0.00  0.00    +0.006 A 
ATOM     15  C   UNL     1       4.046   4.116   1.806  0.00  0.00    +0.000 A 
ATOM     16  C   UNL     1       5.345   3.825   1.434  0.00  0.00    +0.000 A 
ATOM     17  C   UNL     1       5.621   2.665   0.735  0.00  0.00    +0.000 A 
ATOM     18  C   UNL     1       4.597   1.795   0.408  0.00  0.00    +0.006 A 
ENDBRANCH  12  13
BRANCH  12  19
ATOM     19  C   UNL     1       1.542   0.618   1.684  0.00  0.00    +0.239 C 
ATOM     20  O   UNL     1       0.364   0.818   1.893  0.00  0.00    -0.273 OA
ATOM     21  N   UNL     1       2.279  -0.069   2.579  0.00  0.00    -0.311 N 
ATOM     22  H   UNL     1       3.221  -0.228   2.411  0.00  0.00    +0.149 HD
BRANCH  21  23
ATOM     23  C   UNL     1       1.657  -0.575   3.805  0.00  0.00    +0.135 C 
BRANCH  23  24
ATOM     24  C   UNL     1       2.705  -1.313   4.641  0.00  0.00    +0.135 C 
ATOM     25  C   UNL     1       2.060  -1.849   5.934  0.00  0.00    +0.035 C 
ATOM     26  C   UNL     1       2.299  -3.378   5.871  0.00  0.00    +0.031 C 
ATOM     27  C   UNL     1       3.484  -3.481   4.878  0.00  0.00    +0.160 C 
ATOM     28  O   UNL     1       3.204  -2.446   3.911  0.00  0.00    -0.375 OA
ENDBRANCH  23  24
ENDBRANCH  21  23
ENDBRANCH  12  19
ENDBRANCH   1  12
BRANCH   2  29
ATOM     29  C   UNL     1      -0.953   1.911  -1.632  0.00  0.00    +0.201 C 
BRANCH  29  30
ATOM     30  N   UNL     1      -1.985   0.964  -2.062  0.00  0.00    -0.302 N 
ATOM     31  C   UNL     1      -3.067   1.405  -2.733  0.00  0.00    +0.251 C 
ATOM     32  O   UNL     1      -3.187   2.591  -2.983  0.00  0.00    -0.270 OA
ATOM     33  H   UNL     1      -1.889   0.020  -1.863  0.00  0.00    +0.150 HD
BRANCH  31  34
ATOM     34  C   UNL     1      -4.099   0.458  -3.163  0.00  0.00    +0.074 A 
ATOM     35  C   UNL     1      -5.275   0.702  -3.856  0.00  0.00    +0.021 A 
ATOM     36  C   UNL     1      -6.072  -0.380  -4.135  0.00  0.00    +0.008 A 
ATOM     37  C   UNL     1      -5.680  -1.616  -3.727  0.00  0.00    +0.046 A 
ATOM     38  S   UNL     1      -4.167  -1.310  -2.938  0.00  0.00    -0.092 S 
ENDBRANCH  31  34
ENDBRANCH  29  30
ENDBRANCH   2  29
TORSDOF 9
