REMARK  Name = ZINC67630533
REMARK  7 active torsions:
REMARK  status: ('A' for Active; 'I' for Inactive)
REMARK    1  A    between atoms: C_1  and  N_2
REMARK    2  A    between atoms: C_3  and  C_17
REMARK    3  A    between atoms: C_6  and  C_12
REMARK    4  A    between atoms: N_19  and  C_20
REMARK    5  A    between atoms: C_20  and  C_21
REMARK    6  A    between atoms: C_21  and  C_22
REMARK    7  A    between atoms: C_22  and  N_23
REMARK                            x       y       z     vdW  Elec       q    Type
REMARK                         _______ _______ _______ _____ _____    ______ ____
ROOT
ATOM      1  C   UNL     1       0.032   1.351   0.720  0.00  0.00    +0.133 C 
ATOM      2  N   UNL     1       0.019  -0.076   0.391  0.00  0.00    -0.158 NA
ATOM      3  C   UNL     1      -1.239  -0.790   0.113  0.00  0.00    +0.168 C 
ATOM      4  C   UNL     1      -1.354  -1.992   1.050  0.00  0.00    +0.055 C 
ATOM      5  C   UNL     1      -0.247  -3.006   0.767  0.00  0.00    +0.116 C 
ATOM      6  N   UNL     1       1.059  -2.399   1.076  0.00  0.00    -0.172 NA
ATOM      7  S   UNL     1       1.430  -0.962   0.307  0.00  0.00    +0.098 S 
ATOM      8  O   UNL     1       1.651  -1.265  -1.064  0.00  0.00    -0.141 OA
ATOM      9  O   UNL     1       2.390  -0.293   1.114  0.00  0.00    -0.141 OA
ATOM     10  H   UNL     1       1.677  -2.816   1.697  0.00  0.00    +0.150 HD
ENDROOT
BRANCH   5  11
ATOM     11  C   UNL     1      -0.451  -4.227   1.627  0.00  0.00    +0.008 A 
ATOM     12  C   UNL     1      -0.994  -5.424   1.295  0.00  0.00    +0.013 A 
ATOM     13  C   UNL     1      -1.081  -6.411   2.258  0.00  0.00    +0.008 A 
ATOM     14  C   UNL     1      -0.620  -6.154   3.506  0.00  0.00    +0.045 A 
ATOM     15  S   UNL     1      -0.034  -4.475   3.345  0.00  0.00    -0.100 S 
ENDBRANCH   5  11
BRANCH   3  16
ATOM     16  C   UNL     1      -2.404   0.139   0.338  0.00  0.00    +0.232 C 
ATOM     17  O   UNL     1      -2.385   0.923   1.263  0.00  0.00    -0.274 OA
ATOM     18  N   UNL     1      -3.468   0.098  -0.488  0.00  0.00    -0.314 N 
ATOM     19  H   UNL     1      -3.484  -0.530  -1.228  0.00  0.00    +0.149 HD
BRANCH  18  20
ATOM     20  C   UNL     1      -4.601   1.000  -0.270  0.00  0.00    +0.106 C 
BRANCH  20  21
ATOM     21  C   UNL     1      -5.666   0.750  -1.339  0.00  0.00    +0.040 C 
BRANCH  21  22
ATOM     22  C   UNL     1      -6.849   1.693  -1.110  0.00  0.00    +0.124 C 
BRANCH  22  23
ATOM     23  N   UNL     1      -7.869   1.454  -2.134  0.00  0.00    -0.338 N 
ATOM     24  C   UNL     1      -7.956   2.070  -3.354  0.00  0.00    +0.104 A 
ATOM     25  C   UNL     1      -9.035   1.556  -3.974  0.00  0.00    +0.101 A 
ATOM     26  N   UNL     1      -9.592   0.650  -3.156  0.00  0.00    -0.352 N 
ATOM     27  C   UNL     1      -8.896   0.580  -2.054  0.00  0.00    +0.173 A 
ATOM     28  H   UNL     1     -10.384   0.127  -3.353  0.00  0.00    +0.166 HD
ENDBRANCH  22  23
ENDBRANCH  21  22
ENDBRANCH  20  21
ENDBRANCH  18  20
ENDBRANCH   3  16
TORSDOF 6
