REMARK  Name = ZINC22052790
REMARK  10 active torsions:
REMARK  status: ('A' for Active; 'I' for Inactive)
REMARK    1  A    between atoms: C_1  and  C_2
REMARK    2  A    between atoms: C_5  and  S_8
REMARK    3  A    between atoms: S_8  and  N_11
REMARK    4  A    between atoms: N_14  and  C_17
REMARK    5  A    between atoms: C_17  and  C_19
REMARK    6  A    between atoms: C_17  and  C_20
REMARK    7  A    between atoms: C_28  and  N_30
REMARK    8  A    between atoms: N_30  and  C_31
REMARK    9  A    between atoms: C_32  and  C_38
REMARK   10  A    between atoms: C_36  and  C_37
REMARK                            x       y       z     vdW  Elec       q    Type
REMARK                         _______ _______ _______ _____ _____    ______ ____
ROOT
ATOM      1  C   UNL     1       0.234   3.436   2.597  0.00  0.00    +0.149 A 
ATOM      2  N   UNL     1       0.013   2.321   1.942  0.00  0.00    -0.230 NA
ATOM      3  C   UNL     1       0.882   1.893   1.014  0.00  0.00    +0.076 A 
ATOM      4  C   UNL     1       0.677   0.708   0.295  0.00  0.00    +0.028 A 
ATOM      5  C   UNL     1       1.590   0.322  -0.641  0.00  0.00    +0.002 A 
ATOM      6  C   UNL     1       2.728   1.083  -0.889  0.00  0.00    +0.001 A 
ATOM      7  C   UNL     1       2.958   2.242  -0.208  0.00  0.00    +0.013 A 
ATOM      8  C   UNL     1       2.039   2.669   0.756  0.00  0.00    +0.040 A 
ATOM      9  C   UNL     1       2.221   3.863   1.495  0.00  0.00    +0.134 A 
ATOM     10  N   UNL     1       1.299   4.193   2.390  0.00  0.00    -0.215 NA
ENDROOT
BRANCH   1  11
ATOM     11  C   UNL     1      -0.771   3.875   3.630  0.00  0.00    +0.122 C 
ATOM     12  C   UNL     1      -2.147   4.016   2.976  0.00  0.00    +0.032 C 
BRANCH  11  16
ATOM     13  N   UNL     1      -1.913   1.083   6.548  0.00  0.00    -0.174 NA
ATOM     14  C   UNL     1      -1.461   2.399   7.024  0.00  0.00    +0.125 C 
ATOM     15  C   UNL     1      -1.567   3.398   5.866  0.00  0.00    +0.102 C 
ATOM     16  N   UNL     1      -0.839   2.874   4.703  0.00  0.00    -0.290 NA
ATOM     17  C   UNL     1      -1.438   1.623   4.219  0.00  0.00    +0.102 C 
ATOM     18  C   UNL     1      -1.326   0.551   5.309  0.00  0.00    +0.125 C 
BRANCH  13  19
ATOM     19  S   UNL     1      -3.052   0.221   7.386  0.00  0.00    +0.061 S 
ATOM     20  O   UNL     1      -2.866  -1.144   7.038  0.00  0.00    -0.153 OA
ATOM     21  O   UNL     1      -2.999   0.679   8.730  0.00  0.00    -0.153 OA
BRANCH  19  26
ATOM     22  C   UNL     1      -8.451   1.831   5.228  0.00  0.00    +0.044 C 
ATOM     23  C   UNL     1      -7.103   1.429   5.767  0.00  0.00    -0.050 A 
ATOM     24  C   UNL     1      -6.420   0.369   5.200  0.00  0.00    +0.005 A 
ATOM     25  C   UNL     1      -5.183  -0.000   5.695  0.00  0.00    +0.029 A 
ATOM     26  C   UNL     1      -4.629   0.692   6.756  0.00  0.00    +0.105 A 
ATOM     27  C   UNL     1      -5.314   1.748   7.325  0.00  0.00    +0.029 A 
ATOM     28  C   UNL     1      -6.549   2.120   6.828  0.00  0.00    +0.005 A 
ENDBRANCH  19  26
ENDBRANCH  13  19
ENDBRANCH  11  16
ENDBRANCH   1  11
BRANCH   9  29
ATOM     29  N   UNL     1       3.328   4.661   1.290  0.00  0.00    -0.298 N 
ATOM     30  H   UNL     1       4.048   4.410   0.497  0.00  0.00    +0.154 HD
BRANCH  29  31
ATOM     31  C   UNL     1       3.534   5.788   2.090  0.00  0.00    +0.038 A 
ATOM     32  C   UNL     1       2.794   6.943   1.871  0.00  0.00    -0.029 A 
ATOM     33  C   UNL     1       2.997   8.053   2.666  0.00  0.00    +0.005 A 
ATOM     34  C   UNL     1       3.944   8.020   3.674  0.00  0.00    +0.001 A 
ATOM     35  C   UNL     1       4.686   6.874   3.892  0.00  0.00    +0.005 A 
ATOM     36  C   UNL     1       4.484   5.758   3.103  0.00  0.00    -0.029 A 
ATOM     37  C   UNL     1       5.293   4.509   3.342  0.00  0.00    +0.045 C 
ATOM     38  C   UNL     1       1.767   6.982   0.769  0.00  0.00    +0.045 C 
ENDBRANCH  29  31
ENDBRANCH   9  29
TORSDOF 6
