REMARK  Name = ZINC09077737
REMARK  12 active torsions:
REMARK  status: ('A' for Active; 'I' for Inactive)
REMARK    1  A    between atoms: C_1  and  C_2
REMARK    2  A    between atoms: C_2  and  O_3
REMARK    3  A    between atoms: O_3  and  C_4
REMARK    4  A    between atoms: C_4  and  C_6
REMARK    5  A    between atoms: C_6  and  N_7
REMARK    6  A    between atoms: C_11  and  C_36
REMARK    7  A    between atoms: N_16  and  C_17
REMARK    8  A    between atoms: C_17  and  C_19
REMARK    9  A    between atoms: C_22  and  S_25
REMARK   10  A    between atoms: S_25  and  N_28
REMARK   11  A    between atoms: N_28  and  C_29
REMARK   12  A    between atoms: N_28  and  C_30
REMARK                            x       y       z     vdW  Elec       q    Type
REMARK                         _______ _______ _______ _____ _____    ______ ____
ROOT
ATOM      1  C   UNL     1      -1.576  -4.851  -4.152  0.00  0.00    +0.269 C 
ATOM      2  O   UNL     1      -1.444  -6.056  -4.021  0.00  0.00    -0.268 OA
ENDROOT
BRANCH   1  12
ATOM      3  N   UNL     1       1.450  -3.817  -2.491  0.00  0.00    -0.310 N 
ATOM      4  C   UNL     1       2.480  -4.499  -1.871  0.00  0.00    +0.058 A 
ATOM      5  C   UNL     1       3.625  -3.991  -1.241  0.00  0.00    +0.027 A 
ATOM      6  C   UNL     1       4.547  -4.839  -0.674  0.00  0.00    +0.005 A 
ATOM      7  C   UNL     1       4.374  -6.213  -0.708  0.00  0.00    -0.049 A 
ATOM      8  C   UNL     1       3.252  -6.740  -1.324  0.00  0.00    +0.020 A 
ATOM      9  C   UNL     1       2.329  -5.893  -1.891  0.00  0.00    +0.039 A 
ATOM     10  S   UNL     1       0.797  -6.121  -2.754  0.00  0.00    -0.052 S 
ATOM     11  C   UNL     1       0.418  -4.508  -3.041  0.00  0.00    +0.167 A 
ATOM     12  N   UNL     1      -0.648  -4.021  -3.666  0.00  0.00    -0.152 NA
ATOM     13  C   UNL     1       5.397  -7.124  -0.081  0.00  0.00    +0.044 C 
BRANCH   3  14
ATOM     14  C   UNL     1       1.468  -2.353  -2.550  0.00  0.00    +0.244 C 
BRANCH  14  15
ATOM     15  C   UNL     1       0.775  -1.794  -1.334  0.00  0.00    +0.327 C 
ATOM     16  O   UNL     1       0.314  -2.540  -0.504  0.00  0.00    -0.249 OA
BRANCH  15  17
ATOM     17  O   UNL     1       0.671  -0.465  -1.174  0.00  0.00    -0.464 OA
BRANCH  17  19
ATOM     18  C   UNL     1      -0.019   1.526   0.010  0.00  0.00    +0.048 C 
ATOM     19  C   UNL     1       0.002  -0.004   0.002  0.00  0.00    +0.229 C 
ENDBRANCH  17  19
ENDBRANCH  15  17
ENDBRANCH  14  15
ENDBRANCH   3  14
ENDBRANCH   1  12
BRANCH   1  20
ATOM     20  C   UNL     1      -2.765  -4.308  -4.848  0.00  0.00    +0.039 A 
ATOM     21  C   UNL     1      -2.916  -2.930  -5.005  0.00  0.00    +0.015 A 
ATOM     22  C   UNL     1      -4.025  -2.429  -5.655  0.00  0.00    +0.029 A 
ATOM     23  C   UNL     1      -4.987  -3.291  -6.150  0.00  0.00    +0.106 A 
ATOM     24  C   UNL     1      -4.844  -4.659  -5.998  0.00  0.00    +0.029 A 
ATOM     25  C   UNL     1      -3.735  -5.172  -5.356  0.00  0.00    +0.015 A 
BRANCH  23  26
ATOM     26  S   UNL     1      -6.401  -2.644  -6.979  0.00  0.00    +0.061 S 
ATOM     27  O   UNL     1      -7.422  -3.627  -6.868  0.00  0.00    -0.153 OA
ATOM     28  O   UNL     1      -6.572  -1.313  -6.512  0.00  0.00    -0.153 OA
BRANCH  26  29
ATOM     29  N   UNL     1      -6.020  -2.537  -8.587  0.00  0.00    -0.177 NA
ATOM     30  C   UNL     1      -6.284  -3.668  -9.480  0.00  0.00    +0.132 C 
BRANCH  29  31
ATOM     31  C   UNL     1      -5.419  -1.310  -9.116  0.00  0.00    +0.080 C 
ATOM     32  C   UNL     1      -6.328  -0.723 -10.198  0.00  0.00    +0.020 C 
ATOM     33  C   UNL     1      -5.700   0.558 -10.751  0.00  0.00    +0.002 C 
ATOM     34  C   UNL     1      -4.331   0.236 -11.354  0.00  0.00    +0.000 C 
ATOM     35  C   UNL     1      -3.422  -0.351 -10.273  0.00  0.00    +0.002 C 
ATOM     36  C   UNL     1      -4.050  -1.632  -9.719  0.00  0.00    +0.020 C 
ENDBRANCH  29  31
ENDBRANCH  26  29
ENDBRANCH  23  26
ENDBRANCH   1  20
TORSDOF 9
