REMARK  Name = ZINC09381915
REMARK  10 active torsions:
REMARK  status: ('A' for Active; 'I' for Inactive)
REMARK    1  A    between atoms: C_1  and  C_2
REMARK    2  A    between atoms: C_5  and  C_36
REMARK    3  A    between atoms: N_8  and  S_10
REMARK    4  A    between atoms: S_10  and  C_13
REMARK    5  A    between atoms: C_16  and  C_19
REMARK    6  A    between atoms: N_21  and  N_22
REMARK    7  A    between atoms: C_26  and  O_34
REMARK    8  A    between atoms: C_29  and  O_32
REMARK    9  A    between atoms: O_32  and  C_33
REMARK   10  A    between atoms: O_34  and  C_35
REMARK                            x       y       z     vdW  Elec       q    Type
REMARK                         _______ _______ _______ _____ _____    ______ ____
ROOT
ATOM      1  C   UNL     1       6.708   5.064  -0.035  0.00  0.00    +0.260 C 
ATOM      2  O   UNL     1       6.419   6.245  -0.026  0.00  0.00    -0.269 OA
ATOM      3  N   UNL     1       5.734   4.132  -0.030  0.00  0.00    -0.231 N 
ATOM      4  H   UNL     1       5.965   3.190  -0.038  0.00  0.00    +0.173 HD
ENDROOT
BRANCH   3   5
ATOM      5  N   UNL     1       4.389   4.524  -0.015  0.00  0.00    -0.242 N 
ATOM      6  C   UNL     1       3.392   3.568  -0.011  0.00  0.00    +0.176 A 
ATOM      7  N   UNL     1       3.504   2.260  -0.021  0.00  0.00    -0.220 NA
ATOM      8  C   UNL     1       2.429   1.440  -0.014  0.00  0.00    +0.125 A 
ATOM      9  C   UNL     1       2.411   0.021  -0.021  0.00  0.00    +0.147 A 
ATOM     10  C   UNL     1       1.222  -0.666  -0.013  0.00  0.00    +0.051 A 
ATOM     11  C   UNL     1       0.002  -0.004   0.002  0.00  0.00    +0.050 A 
ATOM     12  C   UNL     1      -0.017   1.382   0.010  0.00  0.00    +0.136 A 
ATOM     13  C   UNL     1       1.172   2.079   0.002  0.00  0.00    +0.086 A 
ATOM     14  S   UNL     1       1.620   3.798   0.007  0.00  0.00    -0.047 S 
ATOM     15  H   UNL     1       4.159   5.466  -0.008  0.00  0.00    +0.172 HD
BRANCH  12  16
ATOM     16  O   UNL     1      -1.202   2.050   0.019  0.00  0.00    -0.494 OA
ATOM     17  C   UNL     1      -2.392   1.260   0.020  0.00  0.00    +0.277 C 
ENDBRANCH  12  16
BRANCH   9  18
ATOM     18  O   UNL     1       3.585  -0.666  -0.037  0.00  0.00    -0.493 OA
ATOM     19  C   UNL     1       3.502  -2.092  -0.044  0.00  0.00    +0.277 C 
ENDBRANCH   9  18
ENDBRANCH   3   5
BRANCH   1  23
ATOM     20  C   UNL     1      10.786   3.876  -0.080  0.00  0.00    +0.106 A 
ATOM     21  C   UNL     1      10.460   5.221  -0.069  0.00  0.00    +0.029 A 
ATOM     22  C   UNL     1       9.138   5.613  -0.055  0.00  0.00    +0.015 A 
ATOM     23  C   UNL     1       8.127   4.651  -0.051  0.00  0.00    +0.038 A 
ATOM     24  C   UNL     1       8.463   3.296  -0.055  0.00  0.00    +0.015 A 
ATOM     25  C   UNL     1       9.789   2.917  -0.075  0.00  0.00    +0.029 A 
BRANCH  20  26
ATOM     26  S   UNL     1      12.477   3.383  -0.098  0.00  0.00    +0.061 S 
ATOM     27  O   UNL     1      12.514   2.077  -0.656  0.00  0.00    -0.153 OA
ATOM     28  O   UNL     1      13.210   4.468  -0.650  0.00  0.00    -0.153 OA
BRANCH  26  34
ATOM     29  C   UNL     1      11.316   4.998   3.169  0.00  0.00    +0.009 C 
ATOM     30  C   UNL     1      12.755   4.595   3.496  0.00  0.00    +0.002 C 
ATOM     31  C   UNL     1      12.751   3.292   4.298  0.00  0.00    +0.009 C 
ATOM     32  C   UNL     1      12.056   2.195   3.489  0.00  0.00    +0.002 C 
ATOM     33  C   UNL     1      12.828   1.958   2.188  0.00  0.00    +0.112 C 
ATOM     34  N   UNL     1      12.963   3.238   1.478  0.00  0.00    -0.176 NA
ATOM     35  C   UNL     1      13.541   4.384   2.192  0.00  0.00    +0.112 C 
ATOM     36  C   UNL     1      12.023   0.902   4.306  0.00  0.00    +0.009 C 
ENDBRANCH  26  34
ENDBRANCH  20  26
ENDBRANCH   1  23
TORSDOF 6
