REMARK  Name = ZINC59382326
REMARK  9 active torsions:
REMARK  status: ('A' for Active; 'I' for Inactive)
REMARK    1  A    between atoms: C_1  and  C_2
REMARK    2  A    between atoms: C_5  and  N_9
REMARK    3  A    between atoms: C_6  and  C_8
REMARK    4  A    between atoms: C_18  and  C_32
REMARK    5  A    between atoms: N_33  and  N_34
REMARK    6  A    between atoms: C_35  and  C_37
REMARK    7  A    between atoms: C_37  and  C_38
REMARK    8  A    between atoms: C_38  and  C_39
REMARK    9  A    between atoms: C_39  and  O_40
REMARK                            x       y       z     vdW  Elec       q    Type
REMARK                         _______ _______ _______ _____ _____    ______ ____
ROOT
ATOM      1  N   UNL     1       0.057  -4.139   0.058  0.00  0.00    -0.210 N 
ATOM      2  C   UNL     1      -1.059  -4.879   0.034  0.00  0.00    +0.231 C 
ATOM      3  O   UNL     1      -2.191  -4.445   0.048  0.00  0.00    -0.274 OA
ATOM      4  C   UNL     1      -0.682  -6.344  -0.016  0.00  0.00    +0.101 C 
ATOM      5  C   UNL     1       0.857  -6.323  -0.013  0.00  0.00    +0.109 C 
ATOM      6  C   UNL     1       1.192  -4.848   0.029  0.00  0.00    +0.232 C 
ATOM      7  O   UNL     1       2.312  -4.382   0.038  0.00  0.00    -0.274 OA
ATOM      8  C   UNL     1       1.420  -7.013   1.247  0.00  0.00    +0.070 C 
ATOM      9  C   UNL     1       0.777  -6.295   2.424  0.00  0.00    -0.027 A 
ATOM     10  C   UNL     1       1.463  -5.667   3.423  0.00  0.00    +0.005 A 
ATOM     11  C   UNL     1       0.747  -5.049   4.440  0.00  0.00    +0.000 A 
ATOM     12  C   UNL     1      -0.635  -5.072   4.438  0.00  0.00    +0.000 A 
ATOM     13  C   UNL     1      -1.326  -5.713   3.418  0.00  0.00    +0.004 A 
ATOM     14  C   UNL     1      -0.616  -6.317   2.421  0.00  0.00    -0.035 A 
ATOM     15  C   UNL     1      -1.244  -7.043   1.241  0.00  0.00    +0.062 C 
ATOM     16  C   UNL     1      -0.594  -8.418   1.265  0.00  0.00    -0.035 A 
ATOM     17  C   UNL     1       0.812  -8.406   1.251  0.00  0.00    -0.027 A 
ATOM     18  C   UNL     1       1.528  -9.569   1.258  0.00  0.00    +0.005 A 
ATOM     19  C   UNL     1       0.843 -10.777   1.260  0.00  0.00    +0.000 A 
ATOM     20  C   UNL     1      -0.539 -10.798   1.255  0.00  0.00    +0.000 A 
ATOM     21  C   UNL     1      -1.275  -9.601   1.270  0.00  0.00    +0.004 A 
ENDROOT
BRANCH   1  26
ATOM     22  C   UNL     1      -0.025   1.533   0.247  0.00  0.00    +0.044 C 
ATOM     23  C   UNL     1      -0.003   0.027   0.197  0.00  0.00    -0.050 A 
ATOM     24  C   UNL     1       0.001  -0.623  -1.024  0.00  0.00    +0.005 A 
ATOM     25  C   UNL     1       0.021  -2.003  -1.073  0.00  0.00    +0.024 A 
ATOM     26  C   UNL     1       0.037  -2.738   0.105  0.00  0.00    +0.047 A 
ATOM     27  C   UNL     1       0.033  -2.083   1.329  0.00  0.00    -0.028 A 
ATOM     28  C   UNL     1       0.018  -0.703   1.372  0.00  0.00    +0.008 A 
ATOM     29  C   UNL     1       0.050  -2.877   2.610  0.00  0.00    +0.046 C 
ENDBRANCH   1  26
BRANCH   8  30
ATOM     30  C   UNL     1       2.926  -7.025   1.291  0.00  0.00    +0.120 C 
ATOM     31  N   UNL     1       3.599  -6.610   0.284  0.00  0.00    -0.191 NA
BRANCH  31  32
ATOM     32  N   UNL     1       5.000  -6.622   0.324  0.00  0.00    -0.207 N 
ATOM     33  C   UNL     1       5.708  -6.185  -0.736  0.00  0.00    +0.232 C 
ATOM     34  O   UNL     1       5.133  -5.782  -1.726  0.00  0.00    -0.274 OA
ATOM     35  H   UNL     1       5.459  -6.944   1.115  0.00  0.00    +0.177 HD
BRANCH  33  36
ATOM     36  C   UNL     1       7.214  -6.197  -0.693  0.00  0.00    +0.100 C 
BRANCH  36  37
ATOM     37  C   UNL     1       7.767  -5.655  -2.013  0.00  0.00    +0.037 C 
BRANCH  37  38
ATOM     38  C   UNL     1       9.296  -5.667  -1.969  0.00  0.00    +0.156 C 
BRANCH  38  39
ATOM     39  O   UNL     1       9.812  -5.161  -3.201  0.00  0.00    -0.395 OA
ATOM     40  H   UNL     1      10.778  -5.139  -3.244  0.00  0.00    +0.209 HD
ENDBRANCH  38  39
ENDBRANCH  37  38
ENDBRANCH  36  37
ENDBRANCH  33  36
ENDBRANCH  31  32
ENDBRANCH   8  30
TORSDOF 7
