REMARK  Name = ZINC12713592
REMARK  6 active torsions:
REMARK  status: ('A' for Active; 'I' for Inactive)
REMARK    1  A    between atoms: C_1  and  C_2
REMARK    2  A    between atoms: C_8  and  C_10
REMARK    3  A    between atoms: C_8  and  C_26
REMARK    4  A    between atoms: C_8  and  N_63
REMARK    5  A    between atoms: N_30  and  C_31
REMARK    6  A    between atoms: C_31  and  C_32
REMARK                            x       y       z     vdW  Elec       q    Type
REMARK                         _______ _______ _______ _____ _____    ______ ____
ROOT
ATOM      1  C   UNL     1      -0.018   1.503   0.010  0.00  0.00    +0.039 C 
ENDROOT
BRANCH   1   2
ATOM      2  C   UNL     1       0.185   0.011   0.080  0.00  0.00    +0.011 A 
ATOM      3  C   UNL     1       1.431  -0.509  -0.061  0.00  0.00    +0.017 A 
ATOM      4  C   UNL     1       1.596  -1.960   0.017  0.00  0.00    +0.002 A 
ATOM      5  C   UNL     1       2.858  -2.551  -0.115  0.00  0.00    +0.059 A 
ATOM      6  C   UNL     1       2.982  -3.923  -0.042  0.00  0.00    +0.163 A 
ATOM      7  C   UNL     1       1.854  -4.722   0.164  0.00  0.00    +0.164 A 
ATOM      8  C   UNL     1       0.602  -4.146   0.294  0.00  0.00    +0.075 A 
ATOM      9  C   UNL     1       0.460  -2.766   0.223  0.00  0.00    +0.053 A 
ATOM     10  N   UNL     1      -0.780  -2.175   0.353  0.00  0.00    -0.322 N 
ATOM     11  H   UNL     1      -1.562  -2.730   0.495  0.00  0.00    +0.169 HD
ATOM     12  C   UNL     1      -0.920  -0.839   0.286  0.00  0.00    +0.251 A 
ATOM     13  O   UNL     1      -2.031  -0.351   0.405  0.00  0.00    -0.268 OA
ATOM     14  O   UNL     1       1.969  -6.075   0.241  0.00  0.00    -0.485 OA
ATOM     15  C   UNL     1       3.177  -6.650  -0.268  0.00  0.00    +0.270 C 
ATOM     16  C   UNL     1       4.361  -5.835   0.271  0.00  0.00    +0.270 C 
ATOM     17  O   UNL     1       4.216  -4.484  -0.178  0.00  0.00    -0.485 OA
ENDBRANCH   1   2
BRANCH   1  24
ATOM     18  C   UNL     1      -1.644   5.402   2.529  0.00  0.00    +0.005 C 
ATOM     19  C   UNL     1      -1.510   3.878   2.523  0.00  0.00    -0.031 C 
ATOM     20  C   UNL     1      -0.730   3.428   3.761  0.00  0.00    -0.001 C 
ATOM     21  C   UNL     1      -0.549   1.908   3.716  0.00  0.00    -0.018 C 
ATOM     22  C   UNL     1       0.174   1.523   2.423  0.00  0.00    -0.077 C 
ATOM     23  C   UNL     1      -0.759   3.436   1.265  0.00  0.00    -0.074 C 
ATOM     24  N   UNL     1      -0.639   1.963   1.270  0.00  0.00    +0.389 N 
ATOM     25  H   UNL     1      -1.577   1.553   1.348  0.00  0.00    -0.080 HD
ENDBRANCH   1  24
BRANCH   1  26
ATOM     26  C   UNL     1       1.310   2.181  -0.204  0.00  0.00    +0.143 A 
ATOM     27  N   UNL     1       2.253   2.355   0.689  0.00  0.00    -0.115 NA
ATOM     28  N   UNL     1       3.230   2.974   0.121  0.00  0.00    -0.023 NA
ATOM     29  N   UNL     1       2.934   3.200  -1.111  0.00  0.00    -0.044 NA
ATOM     30  N   UNL     1       1.761   2.721  -1.352  0.00  0.00    -0.226 N 
BRANCH  30  31
ATOM     31  C   UNL     1       1.050   2.760  -2.633  0.00  0.00    +0.182 C 
BRANCH  31  32
ATOM     32  C   UNL     1       0.229   4.021  -2.713  0.00  0.00    -0.026 A 
ATOM     33  C   UNL     1      -1.077   4.025  -2.258  0.00  0.00    +0.005 A 
ATOM     34  C   UNL     1      -1.829   5.183  -2.327  0.00  0.00    +0.000 A 
ATOM     35  C   UNL     1      -1.280   6.333  -2.860  0.00  0.00    +0.000 A 
ATOM     36  C   UNL     1       0.024   6.328  -3.319  0.00  0.00    +0.000 A 
ATOM     37  C   UNL     1       0.778   5.172  -3.245  0.00  0.00    +0.005 A 
ENDBRANCH  31  32
ENDBRANCH  30  31
ENDBRANCH   1  26
TORSDOF 5
