REMARK  Name = ZINC05838567
REMARK  6 active torsions:
REMARK  status: ('A' for Active; 'I' for Inactive)
REMARK    1  A    between atoms: C_1  and  C_2
REMARK    2  A    between atoms: C_2  and  C_3
REMARK    3  A    between atoms: C_2  and  C_4
REMARK    4  A    between atoms: C_2  and  C_5
REMARK    5  A    between atoms: C_17  and  C_20
REMARK    6  A    between atoms: C_24  and  O_26
REMARK                            x       y       z     vdW  Elec       q    Type
REMARK                         _______ _______ _______ _____ _____    ______ ____
ROOT
ATOM      1  C   UNL     1       0.718  -0.497  -1.257  0.00  0.00    -0.000 C 
ATOM      2  C   UNL     1       0.746  -2.029  -1.264  0.00  0.00    +0.009 C 
ATOM      3  C   UNL     1       1.235  -2.533  -2.623  0.00  0.00    +0.037 C 
ATOM      4  C   UNL     1       2.549  -1.842  -2.958  0.00  0.00    -0.023 A 
ATOM      5  C   UNL     1       2.922  -0.706  -2.328  0.00  0.00    -0.004 A 
ATOM      6  S   UNL     1       4.490  -0.286  -3.039  0.00  0.00    -0.078 S 
ATOM      7  C   UNL     1       4.649  -1.539  -4.115  0.00  0.00    +0.080 A 
ATOM      8  C   UNL     1       3.497  -2.321  -3.950  0.00  0.00    +0.068 A 
ATOM      9  C   UNL     1       3.366  -3.538  -4.784  0.00  0.00    +0.248 C 
ATOM     10  O   UNL     1       2.490  -4.358  -4.576  0.00  0.00    -0.270 OA
ATOM     11  N   UNL     1       4.258  -3.701  -5.784  0.00  0.00    -0.289 N 
ATOM     12  C   UNL     1       5.223  -2.679  -6.175  0.00  0.00    +0.190 C 
ATOM     13  N   UNL     1       5.630  -1.855  -5.024  0.00  0.00    -0.316 N 
ATOM     14  C   UNL     1       2.161   0.028  -1.267  0.00  0.00    +0.046 C 
ATOM     15  H   UNL     1       4.258  -4.542  -6.268  0.00  0.00    +0.151 HD
ATOM     16  H   UNL     1       6.544  -1.551  -4.912  0.00  0.00    +0.149 HD
ENDROOT
BRANCH  12  17
ATOM     17  C   UNL     1       4.603  -1.790  -7.222  0.00  0.00    -0.006 A 
ATOM     18  C   UNL     1       4.989  -0.466  -7.320  0.00  0.00    +0.007 A 
ATOM     19  C   UNL     1       4.422   0.353  -8.278  0.00  0.00    +0.004 A 
ATOM     20  C   UNL     1       3.467  -0.150  -9.141  0.00  0.00    +0.045 A 
ATOM     21  C   UNL     1       3.078  -1.478  -9.044  0.00  0.00    +0.117 A 
ATOM     22  C   UNL     1       3.653  -2.299  -8.085  0.00  0.00    +0.052 A 
BRANCH  21  23
ATOM     23  O   UNL     1       2.139  -1.976  -9.892  0.00  0.00    -0.507 OA
ATOM     24  H   UNL     1       2.502  -2.347 -10.707  0.00  0.00    +0.292 HD
ENDBRANCH  21  23
ENDBRANCH  12  17
BRANCH   1  26
ATOM     25  C   UNL     1      -0.019   1.526   0.010  0.00  0.00    +0.011 C 
ATOM     26  C   UNL     1       0.002  -0.004   0.002  0.00  0.00    -0.035 C 
ATOM     27  C   UNL     1       0.742  -0.511   1.242  0.00  0.00    +0.011 C 
ATOM     28  C   UNL     1      -1.433  -0.534   0.013  0.00  0.00    +0.011 C 
ENDBRANCH   1  26
TORSDOF 3
