REMARK  Name = ZINC16426201
REMARK  19 active torsions:
REMARK  status: ('A' for Active; 'I' for Inactive)
REMARK    1  A    between atoms: C_1  and  C_2
REMARK    2  A    between atoms: C_2  and  C_3
REMARK    3  A    between atoms: C_3  and  C_5
REMARK    4  A    between atoms: C_3  and  N_23
REMARK    5  A    between atoms: N_15  and  C_16
REMARK    6  A    between atoms: C_20  and  C_22
REMARK    7  A    between atoms: N_23  and  C_24
REMARK    8  A    between atoms: C_24  and  C_25
REMARK    9  A    between atoms: C_25  and  N_81
REMARK   10  A    between atoms: C_26  and  N_81
REMARK   11  A    between atoms: C_27  and  N_81
REMARK   12  A    between atoms: C_28  and  C_30
REMARK   13  A    between atoms: C_30  and  C_31
REMARK   14  A    between atoms: C_31  and  C_33
REMARK   15  A    between atoms: C_31  and  C_34
REMARK   16  A    between atoms: C_34  and  C_35
REMARK   17  A    between atoms: C_35  and  C_36
REMARK   18  A    between atoms: C_35  and  C_37
REMARK   19  A    between atoms: C_35  and  C_38
REMARK                            x       y       z     vdW  Elec       q    Type
REMARK                         _______ _______ _______ _____ _____    ______ ____
ROOT
ATOM      1  C   UNL     1       0.439  -0.415  -0.702  0.00  0.00    +0.142 C 
ENDROOT
BRANCH   1   2
ATOM      2  C   UNL     1      -0.910  -0.879  -0.217  0.00  0.00    +0.138 A 
ATOM      3  N   UNL     1      -1.921  -0.790  -1.027  0.00  0.00    -0.231 NA
ATOM      4  C   UNL     1      -3.164  -1.188  -0.660  0.00  0.00    +0.078 A 
ATOM      5  C   UNL     1      -4.251  -1.093  -1.531  0.00  0.00    +0.028 A 
ATOM      6  C   UNL     1      -5.496  -1.509  -1.117  0.00  0.00    +0.002 A 
ATOM      7  C   UNL     1      -5.686  -2.024   0.159  0.00  0.00    +0.001 A 
ATOM      8  C   UNL     1      -4.629  -2.129   1.037  0.00  0.00    +0.015 A 
ATOM      9  C   UNL     1      -3.361  -1.712   0.637  0.00  0.00    +0.065 A 
ATOM     10  C   UNL     1      -2.197  -1.800   1.531  0.00  0.00    +0.266 A 
ATOM     11  O   UNL     1      -2.298  -2.242   2.660  0.00  0.00    -0.267 OA
ATOM     12  N   UNL     1      -1.006  -1.376   1.046  0.00  0.00    -0.263 N 
BRANCH  12  13
ATOM     13  C   UNL     1       0.136  -1.443   1.855  0.00  0.00    +0.051 A 
ATOM     14  C   UNL     1       0.654  -0.288   2.425  0.00  0.00    +0.026 A 
ATOM     15  C   UNL     1       1.779  -0.357   3.222  0.00  0.00    +0.002 A 
ATOM     16  C   UNL     1       2.391  -1.576   3.452  0.00  0.00    +0.003 A 
ATOM     17  C   UNL     1       1.878  -2.728   2.885  0.00  0.00    -0.048 A 
ATOM     18  C   UNL     1       0.749  -2.666   2.092  0.00  0.00    +0.029 A 
ATOM     19  C   UNL     1       2.547  -4.055   3.139  0.00  0.00    +0.044 C 
ENDBRANCH  12  13
ENDBRANCH   1   2
BRANCH   1  20
ATOM     20  N   UNL     1       0.877  -1.264  -1.813  0.00  0.00    -0.293 N 
ATOM     21  C   UNL     1       2.022  -1.969  -1.712  0.00  0.00    +0.216 C 
ATOM     22  O   UNL     1       2.689  -1.900  -0.701  0.00  0.00    -0.276 OA
BRANCH  20  23
ATOM     23  C   UNL     1       0.071  -1.347  -3.033  0.00  0.00    +0.090 C 
BRANCH  23  24
ATOM     24  C   UNL     1       0.523  -0.267  -4.018  0.00  0.00    -0.060 C 
BRANCH  24  27
ATOM     25  C   UNL     1      -1.688  -0.011  -4.970  0.00  0.00    -0.097 C 
ATOM     26  C   UNL     1       0.270   0.507  -6.298  0.00  0.00    -0.097 C 
ATOM     27  N   UNL     1      -0.284  -0.377  -5.251  0.00  0.00    +0.377 N 
ATOM     28  H   UNL     1      -0.253  -1.348  -5.584  0.00  0.00    -0.083 HD
ENDBRANCH  24  27
ENDBRANCH  23  24
ENDBRANCH  20  23
BRANCH  21  29
ATOM     29  C   UNL     1       2.472  -2.842  -2.854  0.00  0.00    +0.099 C 
BRANCH  29  30
ATOM     30  C   UNL     1       3.790  -3.526  -2.484  0.00  0.00    -0.005 C 
ATOM     31  C   UNL     1       4.886  -2.470  -2.325  0.00  0.00    +0.008 C 
BRANCH  30  32
ATOM     32  C   UNL     1       4.184  -4.507  -3.591  0.00  0.00    +0.010 C 
BRANCH  32  33
ATOM     33  C   UNL     1       5.158  -5.545  -3.029  0.00  0.00    -0.037 C 
ATOM     34  C   UNL     1       4.455  -6.378  -1.957  0.00  0.00    +0.010 C 
ATOM     35  C   UNL     1       5.633  -6.462  -4.158  0.00  0.00    +0.010 C 
ATOM     36  C   UNL     1       6.363  -4.831  -2.412  0.00  0.00    +0.010 C 
ENDBRANCH  32  33
ENDBRANCH  30  32
ENDBRANCH  29  30
ENDBRANCH  21  29
ENDBRANCH   1  20
BRANCH   1  38
ATOM     37  C   UNL     1       1.723   1.530  -1.603  0.00  0.00    +0.006 C 
ATOM     38  C   UNL     1       0.339   1.035  -1.178  0.00  0.00    +0.027 C 
ENDBRANCH   1  38
TORSDOF 11
