REMARK  Name = ZINC16806258
REMARK  10 active torsions:
REMARK  status: ('A' for Active; 'I' for Inactive)
REMARK    1  A    between atoms: C_1  and  N_57
REMARK    2  A    between atoms: C_2  and  N_57
REMARK    3  A    between atoms: C_3  and  C_4
REMARK    4  A    between atoms: C_3  and  N_57
REMARK    5  A    between atoms: C_4  and  C_5
REMARK    6  A    between atoms: C_5  and  N_6
REMARK    7  A    between atoms: C_7  and  C_23
REMARK    8  A    between atoms: C_26  and  O_29
REMARK    9  A    between atoms: O_29  and  C_30
REMARK   10  A    between atoms: C_30  and  C_31
REMARK                            x       y       z     vdW  Elec       q    Type
REMARK                         _______ _______ _______ _____ _____    ______ ____
ROOT
ATOM      1  N   UNL     1      -3.357   7.301   0.072  0.00  0.00    -0.284 N 
ATOM      2  C   UNL     1      -1.890   7.355   0.059  0.00  0.00    +0.144 C 
ATOM      3  C   UNL     1      -1.422   5.923   0.046  0.00  0.00    +0.072 A 
ATOM      4  C   UNL     1      -0.089   5.314   0.030  0.00  0.00    +0.199 A 
ATOM      5  O   UNL     1       0.923   5.992   0.024  0.00  0.00    -0.287 OA
ATOM      6  C   UNL     1      -0.035   3.839   0.022  0.00  0.00    +0.066 A 
ATOM      7  C   UNL     1       1.181   3.157   0.008  0.00  0.00    +0.035 A 
ATOM      8  C   UNL     1       1.186   1.778   0.000  0.00  0.00    +0.042 A 
ATOM      9  C   UNL     1      -0.013   1.076   0.008  0.00  0.00    +0.023 A 
ATOM     10  C   UNL     1      -1.219   1.740   0.017  0.00  0.00    +0.048 A 
ATOM     11  C   UNL     1      -1.249   3.131   0.030  0.00  0.00    +0.140 A 
ATOM     12  O   UNL     1      -2.422   3.790   0.044  0.00  0.00    -0.450 OA
ATOM     13  C   UNL     1      -2.524   5.134   0.052  0.00  0.00    +0.199 A 
ATOM     14  C   UNL     1      -3.724   6.008   0.068  0.00  0.00    +0.283 C 
ATOM     15  O   UNL     1      -4.872   5.612   0.077  0.00  0.00    -0.267 OA
ATOM     16 CL   UNL     1       2.694   0.918  -0.018  0.00  0.00    -0.084 Cl
ENDROOT
BRANCH   2  17
ATOM     17  C   UNL     1      -1.384   8.056   1.293  0.00  0.00    -0.022 A 
ATOM     18  C   UNL     1      -2.016   7.859   2.507  0.00  0.00    +0.009 A 
ATOM     19  C   UNL     1      -1.550   8.496   3.641  0.00  0.00    +0.046 A 
ATOM     20  C   UNL     1      -0.454   9.343   3.559  0.00  0.00    +0.121 A 
ATOM     21  C   UNL     1       0.175   9.543   2.339  0.00  0.00    +0.046 A 
ATOM     22  C   UNL     1      -0.291   8.899   1.209  0.00  0.00    +0.009 A 
BRANCH  20  23
ATOM     23  O   UNL     1       0.002   9.976   4.671  0.00  0.00    -0.483 OA
BRANCH  23  24
ATOM     24  C   UNL     1      -0.695   9.723   5.893  0.00  0.00    +0.324 C 
BRANCH  24  25
ATOM     25  C   UNL     1      -0.052  10.504   7.010  0.00  0.00    +0.248 C 
ATOM     26  O   UNL     1       0.909  11.209   6.782  0.00  0.00    -0.272 OA
ATOM     27  N   UNL     1      -0.544  10.421   8.261  0.00  0.00    -0.327 N 
ATOM     28  H   UNL     1      -1.312   9.857   8.444  0.00  0.00    +0.145 HD
ATOM     29  H   UNL     1      -0.130  10.924   8.980  0.00  0.00    +0.145 HD
ENDBRANCH  24  25
ENDBRANCH  23  24
ENDBRANCH  20  23
ENDBRANCH   2  17
BRANCH   1  30
ATOM     30  C   UNL     1      -4.261   8.453   0.087  0.00  0.00    +0.107 C 
BRANCH  30  31
ATOM     31  C   UNL     1      -4.590   8.863  -1.350  0.00  0.00    +0.000 C 
BRANCH  31  32
ATOM     32  C   UNL     1      -5.534  10.066  -1.335  0.00  0.00    -0.078 C 
BRANCH  32  35
ATOM     33  C   UNL     1      -6.932  11.452  -2.745  0.00  0.00    -0.097 C 
ATOM     34  C   UNL     1      -4.654  10.962  -3.405  0.00  0.00    -0.097 C 
ATOM     35  N   UNL     1      -5.859  10.436  -2.728  0.00  0.00    +0.376 N 
ATOM     36  H   UNL     1      -6.184   9.600  -3.228  0.00  0.00    -0.083 HD
ENDBRANCH  32  35
ENDBRANCH  31  32
ENDBRANCH  30  31
ENDBRANCH   1  30
TORSDOF 8
