REMARK  Name = ZINC37361361
REMARK  6 active torsions:
REMARK  status: ('A' for Active; 'I' for Inactive)
REMARK    1  A    between atoms: C_1  and  N_2
REMARK    2  A    between atoms: C_3  and  N_34
REMARK    3  A    between atoms: C_5  and  C_25
REMARK    4  A    between atoms: N_14  and  C_17
REMARK    5  A    between atoms: C_17  and  C_18
REMARK    6  A    between atoms: C_18  and  N_19
REMARK                            x       y       z     vdW  Elec       q    Type
REMARK                         _______ _______ _______ _____ _____    ______ ____
ROOT
ATOM      1  C   UNL     1      -1.050   1.180  -0.099  0.00  0.00    +0.174 C 
ATOM      2  N   UNL     1      -0.469  -0.164  -0.058  0.00  0.00    -0.251 N 
ATOM      3  C   UNL     1      -0.032  -0.849  -1.129  0.00  0.00    +0.126 A 
ATOM      4  C   UNL     1       0.445  -2.073  -0.677  0.00  0.00    +0.086 A 
ATOM      5  C   UNL     1       1.021  -3.218  -1.273  0.00  0.00    +0.089 A 
ATOM      6  N   UNL     1       1.363  -4.232  -0.487  0.00  0.00    -0.214 NA
ATOM      7  C   UNL     1       1.179  -4.198   0.830  0.00  0.00    +0.220 A 
ATOM      8  N   UNL     1       0.649  -3.174   1.466  0.00  0.00    -0.193 NA
ATOM      9  C   UNL     1       0.259  -2.078   0.785  0.00  0.00    +0.188 A 
ATOM     10  N   UNL     1      -0.281  -0.923   1.103  0.00  0.00    -0.149 NA
ATOM     11  N   UNL     1       1.565  -5.300   1.572  0.00  0.00    -0.303 N 
ATOM     12  C   UNL     1       2.168  -6.475   0.924  0.00  0.00    +0.089 C 
ATOM     13  C   UNL     1       1.424  -7.727   1.398  0.00  0.00    -0.059 C 
ATOM     14  N   UNL     1       1.432  -7.774   2.866  0.00  0.00    +0.383 N 
ATOM     15  C   UNL     1       0.677  -6.636   3.407  0.00  0.00    -0.059 C 
ATOM     16  C   UNL     1       1.389  -5.328   3.032  0.00  0.00    +0.089 C 
ATOM     17  H   UNL     1       2.384  -7.731   3.197  0.00  0.00    -0.082 HD
ENDROOT
BRANCH   5  18
ATOM     18  C   UNL     1       1.238  -3.285  -2.735  0.00  0.00    +0.005 A 
ATOM     19  C   UNL     1       1.799  -2.200  -3.409  0.00  0.00    +0.014 A 
ATOM     20  C   UNL     1       2.000  -2.264  -4.771  0.00  0.00    +0.050 A 
ATOM     21  C   UNL     1       1.648  -3.406  -5.476  0.00  0.00    +0.166 A 
ATOM     22  C   UNL     1       1.088  -4.495  -4.808  0.00  0.00    +0.167 A 
ATOM     23  C   UNL     1       0.888  -4.437  -3.441  0.00  0.00    +0.059 A 
ATOM     24  O   UNL     1       0.834  -5.481  -5.717  0.00  0.00    -0.453 OA
ATOM     25  C   UNL     1       0.863  -4.834  -7.003  0.00  0.00    +0.466 C 
ATOM     26  O   UNL     1       1.744  -3.713  -6.802  0.00  0.00    -0.453 OA
ENDBRANCH   5  18
BRANCH   3  27
ATOM     27  N   UNL     1      -0.053  -0.415  -2.442  0.00  0.00    -0.343 N 
ATOM     28  H   UNL     1      -0.148   0.530  -2.638  0.00  0.00    +0.144 HD
ATOM     29  H   UNL     1       0.026  -1.055  -3.166  0.00  0.00    +0.144 HD
ENDBRANCH   3  27
BRANCH  14  30
ATOM     30  C   UNL     1       0.815  -9.028   3.318  0.00  0.00    -0.063 C 
BRANCH  30  31
ATOM     31  C   UNL     1       0.935  -9.136   4.840  0.00  0.00    +0.066 C 
BRANCH  31  32
ATOM     32  N   UNL     1       0.318 -10.390   5.291  0.00  0.00    -0.300 NA
ATOM     33  C   UNL     1      -1.134 -10.376   5.061  0.00  0.00    +0.112 C 
ATOM     34  C   UNL     1      -1.726 -11.721   5.490  0.00  0.00    +0.175 C 
ATOM     35  O   UNL     1      -1.398 -11.966   6.860  0.00  0.00    -0.377 OA
ATOM     36  C   UNL     1       0.009 -11.987   7.120  0.00  0.00    +0.175 C 
ATOM     37  C   UNL     1       0.618 -10.645   6.708  0.00  0.00    +0.112 C 
ENDBRANCH  31  32
ENDBRANCH  30  31
ENDBRANCH  14  30
TORSDOF 5
