REMARK  Name = ZINC03401858
REMARK  7 active torsions:
REMARK  status: ('A' for Active; 'I' for Inactive)
REMARK    1  A    between atoms: C_1  and  C_2
REMARK    2  A    between atoms: C_5  and  C_8
REMARK    3  A    between atoms: C_11  and  S_14
REMARK    4  A    between atoms: S_14  and  C_15
REMARK    5  A    between atoms: C_15  and  C_16
REMARK    6  A    between atoms: N_18  and  C_19
REMARK    7  A    between atoms: C_20  and  C_28
REMARK                            x       y       z     vdW  Elec       q    Type
REMARK                         _______ _______ _______ _____ _____    ______ ____
ROOT
ATOM      1  C   UNL     1       0.132  -8.062   4.470  0.00  0.00    +0.228 C 
ATOM      2  O   UNL     1       0.146  -9.223   4.121  0.00  0.00    -0.275 OA
ATOM      3  N   UNL     1       0.135  -7.753   5.782  0.00  0.00    -0.279 N 
ATOM      4  H   UNL     1       0.124  -6.824   6.061  0.00  0.00    +0.155 HD
ENDROOT
BRANCH   3   5
ATOM      5  C   UNL     1       0.153  -8.762   6.732  0.00  0.00    +0.084 A 
ATOM      6  C   UNL     1       0.153  -8.633   8.112  0.00  0.00    +0.068 A 
ATOM      7  C   UNL     1       0.175  -9.858   8.893  0.00  0.00    -0.023 A 
ATOM      8  C   UNL     1       0.193 -10.986   8.151  0.00  0.00    -0.004 A 
ATOM      9  S   UNL     1       0.173 -10.421   6.475  0.00  0.00    -0.077 S 
ATOM     10  C   UNL     1       0.220 -12.395   8.658  0.00  0.00    +0.043 C 
ATOM     11  C   UNL     1       0.603 -12.366  10.145  0.00  0.00    +0.005 C 
ATOM     12  C   UNL     1      -0.250 -11.313  10.856  0.00  0.00    +0.005 C 
ATOM     13  C   UNL     1       0.177  -9.911  10.414  0.00  0.00    +0.037 C 
BRANCH   6  14
ATOM     14  C   UNL     1       0.132  -7.317   8.757  0.00  0.00    +0.244 C 
ATOM     15  O   UNL     1      -0.931  -6.788   9.026  0.00  0.00    -0.270 OA
ATOM     16  N   UNL     1       1.289  -6.692   9.051  0.00  0.00    -0.325 N 
ATOM     17  H   UNL     1       2.136  -7.113   8.836  0.00  0.00    +0.145 HD
ATOM     18  H   UNL     1       1.276  -5.821   9.477  0.00  0.00    +0.145 HD
ENDBRANCH   6  14
ENDBRANCH   3   5
BRANCH   1  19
ATOM     19  C   UNL     1       0.112  -6.965   3.437  0.00  0.00    +0.173 C 
BRANCH  19  20
ATOM     20  S   UNL     1       0.114  -7.696   1.777  0.00  0.00    -0.077 S 
BRANCH  20  24
ATOM     21  C   UNL     1       0.059  -4.256  -0.021  0.00  0.00    +0.182 A 
ATOM     22  N   UNL     1       0.075  -5.042   1.065  0.00  0.00    -0.201 NA
ATOM     23  H   UNL     1       0.091  -7.142  -1.209  0.00  0.00    +0.191 HD
ATOM     24  C   UNL     1       0.089  -6.304   0.698  0.00  0.00    +0.185 A 
ATOM     25  N   UNL     1       0.083  -6.347  -0.653  0.00  0.00    -0.253 N 
ATOM     26  N   UNL     1       0.058  -5.014  -1.094  0.00  0.00    -0.152 NA
BRANCH  21  31
ATOM     27  C   UNL     1      -0.018   1.503   0.010  0.00  0.00    +0.044 C 
ATOM     28  C   UNL     1       0.002  -0.004   0.002  0.00  0.00    -0.050 A 
ATOM     29  C   UNL     1       0.006  -0.686  -1.201  0.00  0.00    +0.004 A 
ATOM     30  C   UNL     1       0.024  -2.067  -1.215  0.00  0.00    +0.012 A 
ATOM     31  C   UNL     1       0.040  -2.772  -0.013  0.00  0.00    +0.021 A 
ATOM     32  C   UNL     1       0.036  -2.080   1.196  0.00  0.00    +0.012 A 
ATOM     33  C   UNL     1       0.023  -0.700   1.198  0.00  0.00    +0.004 A 
ENDBRANCH  21  31
ENDBRANCH  20  24
ENDBRANCH  19  20
ENDBRANCH   1  19
TORSDOF 6
