REMARK  Name = ZINC39664012
REMARK  10 active torsions:
REMARK  status: ('A' for Active; 'I' for Inactive)
REMARK    1  A    between atoms: C_1  and  O_2
REMARK    2  A    between atoms: O_2  and  C_3
REMARK    3  A    between atoms: C_6  and  C_9
REMARK    4  A    between atoms: C_9  and  C_11
REMARK    5  A    between atoms: C_9  and  N_36
REMARK    6  A    between atoms: C_11  and  N_12
REMARK    7  A    between atoms: C_13  and  C_15
REMARK    8  A    between atoms: C_26  and  C_28
REMARK    9  A    between atoms: C_32  and  O_34
REMARK   10  A    between atoms: O_34  and  C_35
REMARK                            x       y       z     vdW  Elec       q    Type
REMARK                         _______ _______ _______ _____ _____    ______ ____
ROOT
ATOM      1  C   UNL     1      -8.368  -4.656   2.713  0.00  0.00    +0.100 C 
ATOM      2  C   UNL     1      -9.618  -4.016   2.069  0.00  0.00    +0.121 C 
ATOM      3  N   UNL     1     -10.764  -4.671   2.743  0.00  0.00    -0.296 N 
ATOM      4  C   UNL     1     -10.340  -4.790   4.158  0.00  0.00    +0.115 C 
ATOM      5  C   UNL     1      -8.845  -5.162   4.084  0.00  0.00    -0.004 C 
ATOM      6  C   UNL     1      -8.673  -6.675   4.178  0.00  0.00    -0.010 C 
ATOM      7  C   UNL     1      -9.101  -7.147   5.571  0.00  0.00    -0.082 C 
ATOM      8  N   UNL     1      -8.284  -6.477   6.589  0.00  0.00    +0.379 N 
ATOM      9  C   UNL     1      -8.526  -5.030   6.553  0.00  0.00    -0.082 C 
ATOM     10  C   UNL     1      -8.074  -4.468   5.202  0.00  0.00    -0.010 C 
ATOM     11  C   UNL     1     -11.928  -5.070   2.193  0.00  0.00    +0.247 C 
ATOM     12  O   UNL     1     -12.080  -5.018   0.988  0.00  0.00    -0.270 OA
ATOM     13  H   UNL     1      -8.526  -6.835   7.501  0.00  0.00    -0.086 HD
ATOM     14  H   UNL     1      -7.308  -6.658   6.408  0.00  0.00    -0.086 HD
ENDROOT
BRANCH  11  15
ATOM     15  C   UNL     1     -13.019  -5.571   3.055  0.00  0.00    +0.040 A 
ATOM     16  C   UNL     1     -13.043  -5.250   4.413  0.00  0.00    +0.013 A 
ATOM     17  C   UNL     1     -14.063  -5.719   5.215  0.00  0.00    +0.004 A 
ATOM     18  C   UNL     1     -15.063  -6.508   4.677  0.00  0.00    +0.045 A 
ATOM     19  C   UNL     1     -15.049  -6.832   3.328  0.00  0.00    +0.121 A 
ATOM     20  C   UNL     1     -14.033  -6.362   2.513  0.00  0.00    +0.058 A 
BRANCH  19  21
ATOM     21  O   UNL     1     -16.035  -7.608   2.805  0.00  0.00    -0.495 OA
ATOM     22  C   UNL     1     -17.054  -8.054   3.702  0.00  0.00    +0.277 C 
ENDBRANCH  19  21
ENDBRANCH  11  15
BRANCH   1  24
ATOM     23  N   UNL     1      -5.994  -4.015   2.987  0.00  0.00    -0.316 N 
ATOM     24  C   UNL     1      -7.280  -3.626   2.883  0.00  0.00    +0.218 C 
ATOM     25  O   UNL     1      -7.563  -2.447   2.928  0.00  0.00    -0.275 OA
ATOM     26  H   UNL     1      -5.769  -4.958   2.952  0.00  0.00    +0.149 HD
BRANCH  23  27
ATOM     27  C   UNL     1      -4.937  -3.015   3.152  0.00  0.00    +0.093 C 
BRANCH  27  28
ATOM     28  C   UNL     1      -3.572  -3.704   3.112  0.00  0.00    -0.020 C 
BRANCH  28  32
ATOM     29  C   UNL     1      -2.889  -5.283  -0.800  0.00  0.00    +0.120 A 
ATOM     30  C   UNL     1      -3.320  -6.118   0.221  0.00  0.00    +0.046 A 
ATOM     31  C   UNL     1      -3.539  -5.605   1.485  0.00  0.00    +0.005 A 
ATOM     32  C   UNL     1      -3.331  -4.261   1.733  0.00  0.00    -0.059 A 
ATOM     33  C   UNL     1      -2.903  -3.427   0.716  0.00  0.00    +0.005 A 
ATOM     34  C   UNL     1      -2.676  -3.936  -0.547  0.00  0.00    +0.046 A 
BRANCH  29  36
ATOM     35  C   UNL     1      -2.913  -7.182  -2.231  0.00  0.00    +0.277 C 
ATOM     36  O   UNL     1      -2.672  -5.786  -2.044  0.00  0.00    -0.495 OA
ENDBRANCH  29  36
ENDBRANCH  28  32
BRANCH  28  37
ATOM     37  N   UNL     1      -2.522  -2.729   3.437  0.00  0.00    +0.385 N 
ATOM     38  C   UNL     1      -2.660  -2.277   4.845  0.00  0.00    -0.078 C 
ATOM     39  C   UNL     1      -1.244  -1.751   5.189  0.00  0.00    -0.020 C 
ATOM     40  C   UNL     1      -0.317  -2.746   4.454  0.00  0.00    -0.020 C 
ATOM     41  C   UNL     1      -1.190  -3.365   3.346  0.00  0.00    -0.078 C 
ATOM     42  H   UNL     1      -2.573  -1.940   2.810  0.00  0.00    -0.081 HD
ENDBRANCH  28  37
ENDBRANCH  27  28
ENDBRANCH  23  27
ENDBRANCH   1  24
TORSDOF 8
