REMARK  Name = ZINC46570366
REMARK  7 active torsions:
REMARK  status: ('A' for Active; 'I' for Inactive)
REMARK    1  A    between atoms: C_4  and  N_31
REMARK    2  A    between atoms: C_5  and  C_7
REMARK    3  A    between atoms: C_10  and  C_12
REMARK    4  A    between atoms: C_13  and  C_14
REMARK    5  A    between atoms: C_17  and  C_19
REMARK    6  A    between atoms: N_21  and  C_22
REMARK    7  A    between atoms: C_22  and  C_23
REMARK                            x       y       z     vdW  Elec       q    Type
REMARK                         _______ _______ _______ _____ _____    ______ ____
ROOT
ATOM      1  C   UNL     1       2.338  -5.288  -1.252  0.00  0.00    +0.069 C 
ATOM      2  C   UNL     1       3.222  -5.074  -2.320  0.00  0.00    +0.078 C 
ATOM      3 CL   UNL     1       3.606  -3.455  -2.817  0.00  0.00    -0.081 Cl
ENDROOT
BRANCH   1   7
ATOM      4  C   UNL     1       1.264  -2.148  -0.022  0.00  0.00    +0.138 A 
ATOM      5  C   UNL     1       0.545  -2.983   0.860  0.00  0.00    +0.050 A 
ATOM      6  C   UNL     1       0.837  -4.271   0.535  0.00  0.00    +0.050 A 
ATOM      7  C   UNL     1       1.773  -4.209  -0.594  0.00  0.00    +0.130 A 
ATOM      8  O   UNL     1       1.976  -2.903  -0.875  0.00  0.00    -0.455 OA
BRANCH   4  13
ATOM      9  C   UNL     1      -0.017   1.372   0.010  0.00  0.00    +0.001 A 
ATOM     10  C   UNL     1       1.172   2.086   0.002  0.00  0.00    +0.002 A 
ATOM     11  C   UNL     1       2.390   1.424  -0.014  0.00  0.00    +0.033 A 
ATOM     12  C   UNL     1       2.431   0.049  -0.021  0.00  0.00    +0.137 A 
ATOM     13  C   UNL     1       1.232  -0.685  -0.013  0.00  0.00    +0.047 A 
ATOM     14  C   UNL     1       0.002  -0.004   0.002  0.00  0.00    +0.014 A 
BRANCH  12  15
ATOM     15  N   UNL     1       3.733  -0.656  -0.039  0.00  0.00    +0.057 N 
ATOM     16  O   UNL     1       4.854   0.034  -0.046  0.00  0.00    -0.126 OA
ATOM     17  O   UNL     1       3.769  -1.972  -0.046  0.00  0.00    -0.126 OA
ENDBRANCH  12  15
ENDBRANCH   4  13
ENDBRANCH   1   7
BRANCH   2  18
ATOM     18  C   UNL     1       3.796  -6.171  -2.990  0.00  0.00    +0.144 A 
ATOM     19  N   UNL     1       3.635  -7.489  -2.778  0.00  0.00    -0.140 NA
ATOM     20  N   UNL     1       4.264  -8.300  -3.516  0.00  0.00    -0.136 NA
ATOM     21  C   UNL     1       5.074  -7.877  -4.489  0.00  0.00    +0.187 A 
ATOM     22  S   UNL     1       4.938  -6.202  -4.364  0.00  0.00    -0.040 S 
BRANCH  21  23
ATOM     23  C   UNL     1       5.880  -8.676  -5.439  0.00  0.00    +0.271 C 
ATOM     24  O   UNL     1       6.569  -8.118  -6.270  0.00  0.00    -0.268 OA
ATOM     25  N   UNL     1       5.850 -10.022  -5.383  0.00  0.00    -0.305 N 
ATOM     26  H   UNL     1       5.300 -10.468  -4.720  0.00  0.00    +0.149 HD
BRANCH  25  27
ATOM     27  C   UNL     1       6.648 -10.813  -6.323  0.00  0.00    +0.140 C 
BRANCH  27  28
ATOM     28  C   UNL     1       6.438 -12.280  -6.050  0.00  0.00    -0.030 A 
ATOM     29  C   UNL     1       7.256 -12.940  -5.152  0.00  0.00    +0.008 A 
ATOM     30  C   UNL     1       7.064 -14.285  -4.901  0.00  0.00    +0.038 A 
ATOM     31  C   UNL     1       6.053 -14.972  -5.549  0.00  0.00    +0.123 A 
ATOM     32  C   UNL     1       5.234 -14.311  -6.449  0.00  0.00    +0.038 A 
ATOM     33  C   UNL     1       5.425 -12.964  -6.695  0.00  0.00    +0.008 A 
ATOM     34  F   UNL     1       5.864 -16.288  -5.305  0.00  0.00    -0.205 F 
ENDBRANCH  27  28
ENDBRANCH  25  27
ENDBRANCH  21  23
ENDBRANCH   2  18
TORSDOF 7
