REMARK  Name = ZINC44791648
REMARK  7 active torsions:
REMARK  status: ('A' for Active; 'I' for Inactive)
REMARK    1  A    between atoms: C_1  and  C_2
REMARK    2  A    between atoms: C_6  and  C_19
REMARK    3  A    between atoms: C_10  and  C_12
REMARK    4  A    between atoms: C_12  and  C_13
REMARK    5  A    between atoms: C_12  and  C_14
REMARK    6  A    between atoms: C_12  and  C_15
REMARK    7  A    between atoms: N_16  and  O_17
REMARK                            x       y       z     vdW  Elec       q    Type
REMARK                         _______ _______ _______ _____ _____    ______ ____
ROOT
ATOM      1  C   UNL     1       0.152   0.961  -0.366  0.00  0.00    +0.028 C 
ATOM      2  C   UNL     1       0.406  -0.544  -0.264  0.00  0.00    +0.073 C 
ATOM      3  C   UNL     1      -0.932  -1.290  -0.250  0.00  0.00    +0.023 C 
ATOM      4  C   UNL     1      -0.678  -2.780  -0.008  0.00  0.00    +0.016 C 
ATOM      5  C   UNL     1      -0.006  -2.970   1.354  0.00  0.00    +0.092 C 
ATOM      6  C   UNL     1       1.343  -2.243   1.358  0.00  0.00    +0.120 C 
ATOM      7  N   UNL     1       1.127  -0.838   0.982  0.00  0.00    -0.297 N 
ATOM      8  C   UNL     1       1.579   0.160   1.766  0.00  0.00    +0.229 C 
ATOM      9  O   UNL     1       1.316   1.312   1.493  0.00  0.00    -0.275 OA
ENDROOT
BRANCH   5  10
ATOM     10  C   UNL     1       0.214  -4.439   1.606  0.00  0.00    +0.215 C 
ATOM     11  O   UNL     1       1.337  -4.864   1.775  0.00  0.00    -0.276 OA
ATOM     12  N   UNL     1      -0.838  -5.281   1.642  0.00  0.00    -0.329 N 
ATOM     13  H   UNL     1      -1.736  -4.941   1.507  0.00  0.00    +0.145 HD
ATOM     14  H   UNL     1      -0.697  -6.227   1.805  0.00  0.00    +0.145 HD
ENDBRANCH   5  10
BRANCH   8  15
ATOM     15  C   UNL     1       2.412  -0.154   2.982  0.00  0.00    +0.100 C 
ATOM     16  C   UNL     1       1.563  -0.926   3.995  0.00  0.00    +0.028 C 
ATOM     17  C   UNL     1       3.615  -1.006   2.571  0.00  0.00    +0.028 C 
BRANCH  15  18
ATOM     18  C   UNL     1       2.895   1.129   3.606  0.00  0.00    +0.146 C 
ATOM     19  N   UNL     1       2.571   1.418   4.823  0.00  0.00    -0.076 NA
ATOM     20  N   UNL     1       3.682   1.995   2.879  0.00  0.00    -0.343 N 
ATOM     21  H   UNL     1       3.925   1.778   1.966  0.00  0.00    +0.144 HD
ATOM     22  H   UNL     1       3.993   2.821   3.281  0.00  0.00    +0.144 HD
BRANCH  19  23
ATOM     23  O   UNL     1       3.025   2.624   5.409  0.00  0.00    -0.408 OA
ATOM     24  H   UNL     1       2.732   2.753   6.322  0.00  0.00    +0.328 HD
ENDBRANCH  19  23
ENDBRANCH  15  18
ENDBRANCH   8  15
TORSDOF 4
