REMARK  Name = ZINC23379930
REMARK  7 active torsions:
REMARK  status: ('A' for Active; 'I' for Inactive)
REMARK    1  A    between atoms: C_1  and  N_2
REMARK    2  A    between atoms: N_2  and  C_3
REMARK    3  A    between atoms: N_2  and  C_25
REMARK    4  A    between atoms: C_3  and  C_4
REMARK    5  A    between atoms: C_8  and  C_10
REMARK    6  A    between atoms: C_16  and  C_18
REMARK    7  A    between atoms: C_25  and  C_26
REMARK                            x       y       z     vdW  Elec       q    Type
REMARK                         _______ _______ _______ _____ _____    ______ ____
ROOT
ATOM      1  C   UNL     1       4.418   2.650   2.191  0.00  0.00    +0.141 A 
ATOM      2  N   UNL     1       3.525   3.469   2.815  0.00  0.00    -0.307 N 
ATOM      3  H   UNL     1       2.589   3.221   2.865  0.00  0.00    +0.170 HD
ATOM      4  C   UNL     1       3.949   4.628   3.364  0.00  0.00    +0.252 A 
ATOM      5  O   UNL     1       3.165   5.373   3.927  0.00  0.00    -0.268 OA
ATOM      6  C   UNL     1       5.316   4.958   3.275  0.00  0.00    +0.093 A 
ATOM      7  C   UNL     1       6.161   4.098   2.638  0.00  0.00    +0.050 A 
ATOM      8  N   UNL     1       5.694   2.965   2.117  0.00  0.00    -0.234 NA
ENDROOT
BRANCH   7   9
ATOM      9  C   UNL     1       7.628   4.428   2.528  0.00  0.00    +0.021 C 
ATOM     10  C   UNL     1       8.451   3.332   3.211  0.00  0.00    +0.006 C 
ATOM     11  C   UNL     1       9.940   3.636   3.026  0.00  0.00    -0.018 C 
ATOM     12  C   UNL     1      10.251   3.748   1.532  0.00  0.00    -0.083 C 
ATOM     13  N   UNL     1       9.452   4.830   0.942  0.00  0.00    +0.379 N 
ATOM     14  C   UNL     1       8.023   4.512   1.052  0.00  0.00    -0.073 C 
ATOM     15  H   UNL     1       9.642   5.691   1.431  0.00  0.00    -0.086 HD
ATOM     16  H   UNL     1       9.698   4.936  -0.031  0.00  0.00    -0.086 HD
ENDBRANCH   7   9
BRANCH   1  21
ATOM     17  C   UNL     1       2.163  -0.149   1.104  0.00  0.00    -0.033 A 
ATOM     18  C   UNL     1       3.063  -0.990   0.473  0.00  0.00    +0.005 A 
ATOM     19  C   UNL     1       4.402  -0.650   0.399  0.00  0.00    +0.001 A 
ATOM     20  C   UNL     1       4.849   0.531   0.955  0.00  0.00    +0.011 A 
ATOM     21  C   UNL     1       3.946   1.384   1.593  0.00  0.00    +0.018 A 
ATOM     22  C   UNL     1       2.595   1.038   1.659  0.00  0.00    +0.016 A 
BRANCH  17  23
ATOM     23  C   UNL     1       0.706  -0.527   1.180  0.00  0.00    +0.119 C 
BRANCH  23  25
ATOM     24  C   UNL     1      -0.018   1.465   0.010  0.00  0.00    +0.105 C 
ATOM     25  N   UNL     1       0.002  -0.004   0.002  0.00  0.00    -0.297 NA
BRANCH  25  26
ATOM     26  C   UNL     1      -1.360  -0.549  -0.083  0.00  0.00    +0.126 C 
BRANCH  26  27
ATOM     27  C   UNL     1      -1.962  -0.191  -1.417  0.00  0.00    +0.004 A 
ATOM     28  C   UNL     1      -1.926  -0.882  -2.582  0.00  0.00    +0.012 A 
ATOM     29  C   UNL     1      -2.557  -0.355  -3.694  0.00  0.00    +0.008 A 
ATOM     30  C   UNL     1      -3.192   0.837  -3.585  0.00  0.00    +0.045 A 
ATOM     31  S   UNL     1      -2.914   1.249  -1.871  0.00  0.00    -0.100 S 
ENDBRANCH  26  27
ENDBRANCH  25  26
ENDBRANCH  23  25
ENDBRANCH  17  23
ENDBRANCH   1  21
TORSDOF 6
