REMARK  Name = ZINC63363186
REMARK  4 active torsions:
REMARK  status: ('A' for Active; 'I' for Inactive)
REMARK    1  A    between atoms: C_1  and  C_2
REMARK    2  A    between atoms: C_2  and  C_3
REMARK    3  A    between atoms: C_8  and  C_12
REMARK    4  A    between atoms: C_15  and  C_20
REMARK                            x       y       z     vdW  Elec       q    Type
REMARK                         _______ _______ _______ _____ _____    ______ ____
ROOT
ATOM      1  C   UNL     1       5.157  -1.570  -3.290  0.00  0.00    +0.111 C 
ATOM      2  C   UNL     1       6.129  -0.417  -3.545  0.00  0.00    +0.075 C 
ATOM      3  C   UNL     1       7.341  -0.927  -4.280  0.00  0.00    +0.067 C 
ATOM      4  N   UNL     1       7.795  -2.119  -4.073  0.00  0.00    -0.184 NA
ATOM      5  N   UNL     1       7.171  -2.995  -3.181  0.00  0.00    -0.206 N 
ATOM      6  C   UNL     1       5.921  -2.751  -2.743  0.00  0.00    +0.240 C 
ATOM      7  O   UNL     1       5.412  -3.474  -1.912  0.00  0.00    -0.273 OA
ATOM      8  H   UNL     1       7.641  -3.787  -2.877  0.00  0.00    +0.177 HD
ENDROOT
BRANCH   1  14
ATOM      9  C   UNL     1       0.707  -0.490  -1.238  0.00  0.00    -0.024 A 
ATOM     10  C   UNL     1      -0.009  -0.808  -2.337  0.00  0.00    +0.005 A 
ATOM     11  C   UNL     1       0.584  -1.267  -3.521  0.00  0.00    +0.001 A 
ATOM     12  C   UNL     1       1.923  -1.417  -3.634  0.00  0.00    +0.010 A 
ATOM     13  C   UNL     1       2.776  -1.092  -2.483  0.00  0.00    -0.000 A 
ATOM     14  C   UNL     1       4.114  -1.139  -2.292  0.00  0.00    -0.029 C 
ATOM     15  C   UNL     1       4.351  -0.670  -0.874  0.00  0.00    +0.145 C 
ATOM     16  N   UNL     1       3.025  -0.369  -0.323  0.00  0.00    -0.380 N 
ATOM     17  C   UNL     1       2.125  -0.605  -1.246  0.00  0.00    +0.046 A 
ATOM     18  H   UNL     1       2.845  -0.045   0.574  0.00  0.00    +0.160 HD
BRANCH   9  20
ATOM     19  C   UNL     1      -0.019   1.526   0.010  0.00  0.00    +0.009 C 
ATOM     20  C   UNL     1       0.002  -0.004   0.002  0.00  0.00    +0.034 C 
ENDBRANCH   9  20
ENDBRANCH   1  14
BRANCH   3  21
ATOM     21  C   UNL     1       8.020  -0.051  -5.253  0.00  0.00    -0.002 A 
ATOM     22  C   UNL     1       7.545   1.242  -5.484  0.00  0.00    +0.011 A 
ATOM     23  C   UNL     1       8.185   2.056  -6.395  0.00  0.00    +0.016 A 
ATOM     24  C   UNL     1       9.296   1.593  -7.080  0.00  0.00    +0.018 A 
ATOM     25  C   UNL     1       9.772   0.313  -6.855  0.00  0.00    +0.016 A 
ATOM     26  C   UNL     1       9.145  -0.509  -5.942  0.00  0.00    +0.011 A 
ATOM     27 BR   UNL     1      10.168   2.716  -8.327  0.00  0.00    -0.050 Br
ENDBRANCH   3  21
TORSDOF 3
