REMARK  Name = ZINC09137517
REMARK  8 active torsions:
REMARK  status: ('A' for Active; 'I' for Inactive)
REMARK    1  A    between atoms: C_1  and  C_2
REMARK    2  A    between atoms: C_4  and  C_11
REMARK    3  A    between atoms: C_7  and  N_8
REMARK    4  A    between atoms: N_13  and  C_14
REMARK    5  A    between atoms: C_14  and  C_15
REMARK    6  A    between atoms: C_15  and  C_17
REMARK    7  A    between atoms: C_15  and  N_64
REMARK    8  A    between atoms: N_26  and  C_27
REMARK                            x       y       z     vdW  Elec       q    Type
REMARK                         _______ _______ _______ _____ _____    ______ ____
ROOT
ATOM      1  C   UNL     1      -7.546   1.901   0.932  0.00  0.00    -0.020 C 
ENDROOT
BRANCH   1   2
ATOM      2  C   UNL     1      -8.505   3.062   0.985  0.00  0.00    -0.059 A 
ATOM      3  C   UNL     1      -9.035   3.576  -0.184  0.00  0.00    +0.004 A 
ATOM      4  C   UNL     1      -9.915   4.635  -0.134  0.00  0.00    +0.023 A 
ATOM      5  C   UNL     1     -10.268   5.203   1.092  0.00  0.00    +0.033 A 
ATOM      6  C   UNL     1      -9.733   4.686   2.259  0.00  0.00    -0.026 A 
ATOM      7  C   UNL     1      -8.853   3.617   2.200  0.00  0.00    +0.007 A 
ATOM      8  C   UNL     1     -10.082   5.246   3.615  0.00  0.00    +0.038 C 
ATOM      9  C   UNL     1     -10.736   6.620   3.452  0.00  0.00    +0.024 C 
ATOM     10  C   UNL     1     -11.810   6.505   2.364  0.00  0.00    +0.105 C 
ATOM     11  N   UNL     1     -11.150   6.282   1.075  0.00  0.00    -0.333 N 
ATOM     12  C   UNL     1     -12.137   6.139  -0.004  0.00  0.00    +0.129 C 
ENDBRANCH   1   2
BRANCH   1  18
ATOM     13  C   UNL     1      -9.355   0.458   0.221  0.00  0.00    -0.078 C 
ATOM     14  C   UNL     1      -9.850  -0.428  -0.924  0.00  0.00    -0.019 C 
ATOM     15  C   UNL     1      -8.896  -1.615  -1.092  0.00  0.00    -0.004 C 
ATOM     16  C   UNL     1      -7.482  -1.089  -1.355  0.00  0.00    -0.019 C 
ATOM     17  C   UNL     1      -7.056  -0.183  -0.198  0.00  0.00    -0.078 C 
ATOM     18  N   UNL     1      -8.000   0.951  -0.104  0.00  0.00    +0.385 N 
ATOM     19  H   UNL     1      -8.030   1.435  -1.009  0.00  0.00    -0.081 HD
ENDBRANCH   1  18
BRANCH   1  20
ATOM     20  C   UNL     1      -6.151   2.409   0.563  0.00  0.00    +0.094 C 
BRANCH  20  23
ATOM     21  C   UNL     1      -4.479   3.928   1.475  0.00  0.00    +0.244 C 
ATOM     22  O   UNL     1      -3.840   3.795   0.450  0.00  0.00    -0.270 OA
ATOM     23  N   UNL     1      -5.649   3.277   1.630  0.00  0.00    -0.313 N 
ATOM     24  H   UNL     1      -6.158   3.384   2.449  0.00  0.00    +0.149 HD
BRANCH  21  28
ATOM     25  C   UNL     1      -0.986   7.027   3.236  0.00  0.00    +0.046 C 
ATOM     26  C   UNL     1      -2.294   6.297   3.405  0.00  0.00    -0.020 A 
ATOM     27  C   UNL     1      -2.761   5.480   2.395  0.00  0.00    +0.018 A 
ATOM     28  C   UNL     1      -3.972   4.805   2.553  0.00  0.00    +0.037 A 
ATOM     29  C   UNL     1      -4.700   4.956   3.734  0.00  0.00    +0.015 A 
ATOM     30  C   UNL     1      -4.224   5.780   4.733  0.00  0.00    +0.034 A 
ATOM     31  C   UNL     1      -3.023   6.447   4.570  0.00  0.00    +0.129 A 
BRANCH  31  32
ATOM     32  N   UNL     1      -2.516   7.325   5.649  0.00  0.00    +0.057 N 
ATOM     33  O   UNL     1      -1.322   7.369   5.887  0.00  0.00    -0.126 OA
ATOM     34  O   UNL     1      -3.292   8.002   6.298  0.00  0.00    -0.126 OA
ENDBRANCH  31  32
ENDBRANCH  21  28
ENDBRANCH  20  23
ENDBRANCH   1  20
TORSDOF 6
