REMARK  Name = ZINC65431709
REMARK  6 active torsions:
REMARK  status: ('A' for Active; 'I' for Inactive)
REMARK    1  A    between atoms: C_1  and  C_2
REMARK    2  A    between atoms: C_2  and  C_3
REMARK    3  A    between atoms: C_2  and  C_4
REMARK    4  A    between atoms: C_4  and  C_5
REMARK    5  A    between atoms: C_7  and  C_11
REMARK    6  A    between atoms: C_16  and  C_19
REMARK                            x       y       z     vdW  Elec       q    Type
REMARK                         _______ _______ _______ _____ _____    ______ ____
ROOT
ATOM      1  C   UNL     1      -0.223  -5.010   0.695  0.00  0.00    +0.246 C 
ATOM      2  O   UNL     1       0.751  -5.048  -0.026  0.00  0.00    -0.273 OA
ATOM      3  N   UNL     1      -0.204  -5.641   1.886  0.00  0.00    -0.299 N 
ATOM      4  C   UNL     1      -1.378  -5.609   2.769  0.00  0.00    +0.108 C 
ATOM      5  C   UNL     1      -0.943  -5.109   4.150  0.00  0.00    +0.025 C 
ATOM      6  C   UNL     1       0.207  -5.978   4.664  0.00  0.00    +0.025 C 
ATOM      7  C   UNL     1       1.400  -5.865   3.712  0.00  0.00    +0.025 C 
ATOM      8  C   UNL     1       0.989  -6.379   2.324  0.00  0.00    +0.108 C 
ENDROOT
BRANCH   6   9
ATOM      9  C   UNL     1       0.621  -5.503   6.059  0.00  0.00    +0.143 C 
ATOM     10  N   UNL     1       1.083  -4.098   6.010  0.00  0.00    -0.238 NA
ATOM     11  N   UNL     1       0.588  -3.451   7.224  0.00  0.00    -0.238 NA
ATOM     12  C   UNL     1      -0.228  -4.461   7.944  0.00  0.00    +0.140 C 
ATOM     13  N   UNL     1      -0.558  -5.476   6.972  0.00  0.00    -0.269 NA
ATOM     14  C   UNL     1      -0.846  -6.812   7.444  0.00  0.00    +0.087 C 
ATOM     15  C   UNL     1      -1.578  -6.927   8.754  0.00  0.00    +0.015 C 
ATOM     16  C   UNL     1      -2.617  -5.901   9.037  0.00  0.00    +0.001 C 
ATOM     17  C   UNL     1      -2.070  -4.612   9.629  0.00  0.00    +0.003 C 
ATOM     18  C   UNL     1      -1.434  -3.767   8.550  0.00  0.00    +0.036 C 
ATOM     19  H   UNL     1       0.736  -3.632   5.185  0.00  0.00    +0.142 HD
ATOM     20  H   UNL     1       0.039  -2.635   7.001  0.00  0.00    +0.142 HD
ENDBRANCH   6   9
BRANCH   1  23
ATOM     21  C   UNL     1      -1.474  -2.037  -0.101  0.00  0.00    +0.062 C 
ATOM     22  C   UNL     1      -1.510  -2.893   0.923  0.00  0.00    +0.035 C 
ATOM     23  C   UNL     1      -1.454  -4.258   0.261  0.00  0.00    +0.238 C 
ATOM     24  N   UNL     1      -1.388  -3.928  -1.173  0.00  0.00    -0.170 NA
ATOM     25  N   UNL     1      -1.410  -2.699  -1.278  0.00  0.00    -0.158 NA
BRANCH  21  26
ATOM     26  C   UNL     1      -1.507  -0.537   0.036  0.00  0.00    +0.060 C 
BRANCH  26  28
ATOM     27  C   UNL     1      -0.114   1.537   0.035  0.00  0.00    +0.007 C 
ATOM     28  C   UNL     1      -0.077   0.008   0.021  0.00  0.00    -0.011 C 
ATOM     29  C   UNL     1       0.673  -0.495   1.257  0.00  0.00    +0.007 C 
ENDBRANCH  26  28
ENDBRANCH  21  26
ENDBRANCH   1  23
TORSDOF 4
