REMARK  Name = ZINC38256600
REMARK  7 active torsions:
REMARK  status: ('A' for Active; 'I' for Inactive)
REMARK    1  A    between atoms: C_1  and  C_2
REMARK    2  A    between atoms: C_7  and  C_12
REMARK    3  A    between atoms: C_12  and  C_13
REMARK    4  A    between atoms: C_14  and  C_28
REMARK    5  A    between atoms: N_16  and  C_21
REMARK    6  A    between atoms: C_21  and  C_22
REMARK    7  A    between atoms: C_32  and  N_34
REMARK                            x       y       z     vdW  Elec       q    Type
REMARK                         _______ _______ _______ _____ _____    ______ ____
ROOT
ATOM      1  C   UNL     1       7.451  -1.494  -0.436  0.00  0.00    +0.076 C 
ATOM      2  C   UNL     1       7.280  -1.276   1.050  0.00  0.00    +0.145 C 
ATOM      3  N   UNL     1       8.634  -1.146   1.602  0.00  0.00    -0.279 N 
ATOM      4  C   UNL     1       9.508  -1.268   0.587  0.00  0.00    +0.288 C 
ATOM      5  O   UNL     1      10.717  -1.209   0.697  0.00  0.00    -0.266 OA
ATOM      6  C   UNL     1       8.782  -1.490  -0.681  0.00  0.00    +0.249 C 
ATOM      7  O   UNL     1       9.356  -1.660  -1.894  0.00  0.00    -0.282 OA
ENDROOT
BRANCH   2   8
ATOM      8  C   UNL     1       6.579  -2.457   1.669  0.00  0.00    -0.020 A 
ATOM      9  C   UNL     1       7.215  -3.683   1.732  0.00  0.00    +0.006 A 
ATOM     10  C   UNL     1       6.572  -4.767   2.300  0.00  0.00    +0.003 A 
ATOM     11  C   UNL     1       5.294  -4.625   2.806  0.00  0.00    +0.033 A 
ATOM     12  C   UNL     1       4.658  -3.399   2.744  0.00  0.00    +0.127 A 
ATOM     13  C   UNL     1       5.303  -2.314   2.180  0.00  0.00    +0.038 A 
BRANCH  12  14
ATOM     14  N   UNL     1       3.289  -3.247   3.285  0.00  0.00    +0.056 N 
ATOM     15  O   UNL     1       2.684  -4.216   3.680  0.00  0.00    -0.126 OA
ATOM     16  O   UNL     1       2.776  -2.153   3.332  0.00  0.00    -0.126 OA
ENDBRANCH  12  14
ENDBRANCH   2   8
BRANCH   1  17
ATOM     17  C   UNL     1       6.381  -1.679  -1.421  0.00  0.00    +0.195 C 
ATOM     18  O   UNL     1       6.248  -2.752  -1.980  0.00  0.00    -0.287 OA
BRANCH  17  24
ATOM     19  C   UNL     1       2.840   2.412  -5.160  0.00  0.00    +0.052 C 
ATOM     20  C   UNL     1       2.131   1.905  -3.902  0.00  0.00    +0.175 C 
ATOM     21  C   UNL     1       2.300   0.374  -3.758  0.00  0.00    +0.083 C 
ATOM     22  C   UNL     1       3.532   0.277  -2.879  0.00  0.00    -0.002 A 
ATOM     23  C   UNL     1       4.378  -0.765  -2.593  0.00  0.00    +0.019 A 
ATOM     24  C   UNL     1       5.465  -0.565  -1.735  0.00  0.00    +0.023 A 
ATOM     25  C   UNL     1       5.676   0.700  -1.177  0.00  0.00    +0.015 A 
ATOM     26  C   UNL     1       4.821   1.736  -1.467  0.00  0.00    +0.046 A 
ATOM     27  C   UNL     1       3.734   1.537  -2.321  0.00  0.00    +0.124 A 
ATOM     28  O   UNL     1       2.767   2.413  -2.718  0.00  0.00    -0.488 OA
ENDBRANCH  17  24
ENDBRANCH   1  17
BRANCH   3  29
ATOM     29  C   UNL     1       8.973  -0.922   3.010  0.00  0.00    +0.144 C 
BRANCH  29  30
ATOM     30  C   UNL     1       9.138  -2.249   3.703  0.00  0.00    -0.027 A 
ATOM     31  C   UNL     1       8.056  -2.876   4.304  0.00  0.00    +0.025 A 
ATOM     32  C   UNL     1       8.246  -4.093   4.931  0.00  0.00    +0.111 A 
ATOM     33  N   UNL     1       9.438  -4.657   4.963  0.00  0.00    -0.263 NA
ATOM     34  C   UNL     1      10.488  -4.090   4.402  0.00  0.00    +0.111 A 
ATOM     35  C   UNL     1      10.374  -2.876   3.752  0.00  0.00    +0.025 A 
ENDBRANCH  29  30
ENDBRANCH   3  29
TORSDOF 6
