REMARK  Name = ZINC44978340
REMARK  3 active torsions:
REMARK  status: ('A' for Active; 'I' for Inactive)
REMARK    1  A    between atoms: C_3  and  C_15
REMARK    2  A    between atoms: C_6  and  C_7
REMARK    3  A    between atoms: C_7  and  N_8
REMARK                            x       y       z     vdW  Elec       q    Type
REMARK                         _______ _______ _______ _____ _____    ______ ____
ROOT
ATOM      1  C   UNL     1      -0.017   1.379   0.010  0.00  0.00    +0.006 A 
ATOM      2  C   UNL     1       1.167   2.088   0.002  0.00  0.00    +0.012 A 
ATOM      3  C   UNL     1       2.385   1.407  -0.013  0.00  0.00    +0.017 A 
ATOM      4  C   UNL     1       2.397   0.011  -0.021  0.00  0.00    +0.012 A 
ATOM      5  C   UNL     1       1.206  -0.686  -0.013  0.00  0.00    +0.006 A 
ATOM      6  C   UNL     1       0.002  -0.004   0.002  0.00  0.00    -0.030 A 
ENDROOT
BRANCH   3   7
ATOM      7  C   UNL     1       3.657   2.160  -0.022  0.00  0.00    +0.141 A 
ATOM      8  N   UNL     1       4.832   1.459  -0.042  0.00  0.00    -0.306 N 
ATOM      9  H   UNL     1       4.824   0.489  -0.051  0.00  0.00    +0.170 HD
ATOM     10  C   UNL     1       6.005   2.136  -0.050  0.00  0.00    +0.266 A 
ATOM     11  O   UNL     1       7.070   1.544  -0.069  0.00  0.00    -0.267 OA
ATOM     12  C   UNL     1       5.961   3.531  -0.037  0.00  0.00    +0.102 A 
ATOM     13  C   UNL     1       4.739   4.229  -0.016  0.00  0.00    +0.086 A 
ATOM     14  N   UNL     1       3.609   3.463  -0.015  0.00  0.00    -0.228 NA
ATOM     15  C   UNL     1       4.844   5.628  -0.005  0.00  0.00    +0.036 A 
ATOM     16  C   UNL     1       6.059   6.218  -0.015  0.00  0.00    +0.048 A 
ATOM     17  S   UNL     1       7.174   4.824  -0.040  0.00  0.00    -0.090 S 
ENDBRANCH   3   7
BRANCH   6  18
ATOM     18  C   UNL     1      -1.295  -0.772   0.010  0.00  0.00    +0.153 C 
BRANCH  18  19
ATOM     19  N   UNL     1      -1.728  -1.013  -1.368  0.00  0.00    -0.220 N 
ATOM     20  C   UNL     1      -2.516  -0.176  -2.072  0.00  0.00    +0.240 C 
ATOM     21  O   UNL     1      -2.982   0.879  -1.698  0.00  0.00    -0.273 OA
ATOM     22  C   UNL     1      -2.697  -0.827  -3.428  0.00  0.00    +0.202 C 
ATOM     23  N   UNL     1      -1.917  -2.073  -3.322  0.00  0.00    -0.290 N 
ATOM     24  C   UNL     1      -1.386  -2.089  -2.086  0.00  0.00    +0.309 C 
ATOM     25  O   UNL     1      -0.677  -2.983  -1.667  0.00  0.00    -0.252 OA
ATOM     26  H   UNL     1      -1.806  -2.748  -4.010  0.00  0.00    +0.151 HD
ENDBRANCH  18  19
ENDBRANCH   6  18
TORSDOF 3
