REMARK  Name = ZINC00821734
REMARK  3 active torsions:
REMARK  status: ('A' for Active; 'I' for Inactive)
REMARK    1  A    between atoms: C_4  and  C_7
REMARK    2  A    between atoms: N_17  and  N_18
REMARK    3  A    between atoms: C_19  and  C_21
REMARK                            x       y       z     vdW  Elec       q    Type
REMARK                         _______ _______ _______ _____ _____    ______ ____
ROOT
ATOM      1  C   UNL     1       5.870   1.871  -0.043  0.00  0.00    +0.084 A 
ATOM      2  C   UNL     1       5.868   3.276  -0.233  0.00  0.00    +0.028 A 
ATOM      3  C   UNL     1       7.047   3.999  -0.443  0.00  0.00    +0.032 A 
ATOM      4  C   UNL     1       6.985   5.351  -0.620  0.00  0.00    +0.042 A 
ATOM      5  C   UNL     1       5.763   6.020  -0.595  0.00  0.00    +0.022 A 
ATOM      6  C   UNL     1       4.597   5.345  -0.394  0.00  0.00    +0.030 A 
ATOM      7  C   UNL     1       4.624   3.955  -0.208  0.00  0.00    +0.077 A 
ATOM      8  N   UNL     1       3.505   3.246  -0.006  0.00  0.00    -0.213 NA
ATOM      9  C   UNL     1       3.564   1.939   0.165  0.00  0.00    +0.233 A 
ATOM     10  N   UNL     1       4.709   1.262   0.154  0.00  0.00    -0.213 NA
ATOM     11  N   UNL     1       2.386   1.244   0.371  0.00  0.00    -0.232 N 
ATOM     12 CL   UNL     1       8.448   6.248  -0.880  0.00  0.00    -0.084 Cl
ATOM     13  H   UNL     1       2.406   0.282   0.499  0.00  0.00    +0.173 HD
ENDROOT
BRANCH   1  17
ATOM     14  C   UNL     1       9.505  -0.329  -0.086  0.00  0.00    +0.000 A 
ATOM     15  C   UNL     1       9.431   0.866   0.609  0.00  0.00    +0.001 A 
ATOM     16  C   UNL     1       8.254   1.585   0.627  0.00  0.00    +0.010 A 
ATOM     17  C   UNL     1       7.137   1.105  -0.058  0.00  0.00    +0.001 A 
ATOM     18  C   UNL     1       7.217  -0.102  -0.753  0.00  0.00    +0.010 A 
ATOM     19  C   UNL     1       8.401  -0.809  -0.767  0.00  0.00    +0.001 A 
ENDBRANCH   1  17
BRANCH  11  20
ATOM     20  N   UNL     1       1.164   1.928   0.394  0.00  0.00    -0.228 N 
ATOM     21  C   UNL     1       0.016   1.251   0.594  0.00  0.00    +0.295 C 
ATOM     22  O   UNL     1       0.041   0.045   0.755  0.00  0.00    -0.265 OA
ATOM     23  H   UNL     1       1.144   2.890   0.266  0.00  0.00    +0.173 HD
BRANCH  21  24
ATOM     24  C   UNL     1      -1.263   1.966   0.612  0.00  0.00    +0.192 A 
ATOM     25  C   UNL     1      -2.495   1.404   0.793  0.00  0.00    +0.056 A 
ATOM     26  C   UNL     1      -3.428   2.450   0.741  0.00  0.00    +0.058 A 
ATOM     27  C   UNL     1      -2.735   3.591   0.524  0.00  0.00    +0.171 A 
ATOM     28  O   UNL     1      -1.431   3.295   0.447  0.00  0.00    -0.444 OA
ATOM     29 BR   UNL     1      -3.484   5.320   0.358  0.00  0.00    -0.008 Br
ENDBRANCH  21  24
ENDBRANCH  11  20
TORSDOF 3
