REMARK  Name = ZINC22933871
REMARK  11 active torsions:
REMARK  status: ('A' for Active; 'I' for Inactive)
REMARK    1  A    between atoms: C_1  and  C_2
REMARK    2  A    between atoms: C_5  and  C_34
REMARK    3  A    between atoms: C_6  and  O_9
REMARK    4  A    between atoms: C_7  and  C_8
REMARK    5  A    between atoms: O_9  and  C_10
REMARK    6  A    between atoms: C_10  and  C_11
REMARK    7  A    between atoms: C_11  and  C_13
REMARK    8  A    between atoms: C_11  and  O_33
REMARK    9  A    between atoms: C_13  and  N_14
REMARK   10  A    between atoms: N_17  and  C_20
REMARK   11  A    between atoms: C_20  and  C_21
REMARK                            x       y       z     vdW  Elec       q    Type
REMARK                         _______ _______ _______ _____ _____    ______ ____
ROOT
ATOM      1  N   UNL     1       2.453  -4.835   6.137  0.00  0.00    -0.303 NA
ATOM      2  C   UNL     1       2.082  -6.237   5.896  0.00  0.00    +0.066 C 
ATOM      3  C   UNL     1       1.975  -6.971   7.234  0.00  0.00    -0.063 C 
ATOM      4  N   UNL     1       3.264  -6.901   7.935  0.00  0.00    +0.386 N 
ATOM      5  C   UNL     1       3.609  -5.496   8.191  0.00  0.00    -0.063 C 
ATOM      6  C   UNL     1       3.729  -4.750   6.860  0.00  0.00    +0.066 C 
ATOM      7  H   UNL     1       3.981  -7.324   7.364  0.00  0.00    -0.081 HD
ENDROOT
BRANCH   1   8
ATOM      8  C   UNL     1       2.510  -4.081   4.877  0.00  0.00    +0.119 C 
BRANCH   8   9
ATOM      9  C   UNL     1       2.413  -2.584   5.175  0.00  0.00    +0.166 C 
BRANCH   9  10
ATOM     10  O   UNL     1       1.151  -2.299   5.783  0.00  0.00    -0.387 OA
ATOM     11  H   UNL     1       0.389  -2.531   5.235  0.00  0.00    +0.210 HD
ENDBRANCH   9  10
BRANCH   9  12
ATOM     12  C   UNL     1       2.539  -1.796   3.869  0.00  0.00    +0.261 C 
BRANCH  12  13
ATOM     13  O   UNL     1       2.566  -0.396   4.158  0.00  0.00    -0.489 OA
BRANCH  13  19
ATOM     14  C   UNL     1       5.397   2.128   1.087  0.00  0.00    +0.044 C 
ATOM     15  C   UNL     1       4.037   1.702   1.576  0.00  0.00    -0.044 A 
ATOM     16  C   UNL     1       2.898   2.174   0.948  0.00  0.00    +0.004 A 
ATOM     17  C   UNL     1       1.649   1.785   1.395  0.00  0.00    +0.007 A 
ATOM     18  C   UNL     1       1.535   0.924   2.470  0.00  0.00    -0.009 A 
ATOM     19  C   UNL     1       2.675   0.450   3.101  0.00  0.00    +0.127 A 
ATOM     20  C   UNL     1       3.928   0.837   2.647  0.00  0.00    -0.006 A 
ATOM     21  C   UNL     1       5.169   0.319   3.326  0.00  0.00    +0.048 C 
ATOM     22  C   UNL     1       0.172   0.502   2.956  0.00  0.00    +0.047 C 
ENDBRANCH  13  19
ENDBRANCH  12  13
ENDBRANCH   9  12
ENDBRANCH   8   9
ENDBRANCH   1   8
BRANCH   4  23
ATOM     23  C   UNL     1       3.167  -7.621   9.211  0.00  0.00    -0.003 C 
BRANCH  23  24
ATOM     24  C   UNL     1       4.521  -7.655   9.873  0.00  0.00    +0.094 A 
ATOM     25  N   UNL     1       4.637  -8.287  11.071  0.00  0.00    -0.312 N 
ATOM     26  H   UNL     1       3.857  -8.700  11.474  0.00  0.00    +0.170 HD
ATOM     27  C   UNL     1       5.830  -8.346  11.706  0.00  0.00    +0.259 A 
ATOM     28  O   UNL     1       5.949  -8.909  12.778  0.00  0.00    -0.267 OA
ATOM     29  C   UNL     1       6.979  -7.703  11.049  0.00  0.00    +0.065 A 
ATOM     30  C   UNL     1       8.250  -7.707  11.619  0.00  0.00    +0.015 A 
ATOM     31  C   UNL     1       9.291  -7.089  10.961  0.00  0.00    +0.001 A 
ATOM     32  C   UNL     1       9.081  -6.465   9.738  0.00  0.00    +0.002 A 
ATOM     33  C   UNL     1       7.833  -6.450   9.158  0.00  0.00    +0.028 A 
ATOM     34  C   UNL     1       6.762  -7.070   9.806  0.00  0.00    +0.078 A 
ATOM     35  N   UNL     1       5.517  -7.084   9.268  0.00  0.00    -0.236 NA
ENDBRANCH  23  24
ENDBRANCH   4  23
TORSDOF 8
