REMARK  Name = ZINC36580818
REMARK  15 active torsions:
REMARK  status: ('A' for Active; 'I' for Inactive)
REMARK    1  A    between atoms: C_1  and  C_2
REMARK    2  A    between atoms: C_2  and  C_3
REMARK    3  A    between atoms: C_2  and  C_4
REMARK    4  A    between atoms: C_2  and  N_5
REMARK    5  A    between atoms: C_6  and  C_8
REMARK    6  A    between atoms: C_8  and  C_10
REMARK    7  A    between atoms: C_8  and  N_15
REMARK    8  A    between atoms: N_15  and  C_37
REMARK    9  A    between atoms: C_16  and  C_18
REMARK   10  A    between atoms: C_18  and  C_19
REMARK   11  A    between atoms: C_19  and  C_20
REMARK   12  A    between atoms: C_20  and  C_21
REMARK   13  A    between atoms: C_37  and  C_38
REMARK   14  A    between atoms: C_37  and  C_39
REMARK   15  A    between atoms: C_37  and  C_40
REMARK                            x       y       z     vdW  Elec       q    Type
REMARK                         _______ _______ _______ _____ _____    ______ ____
ROOT
ATOM      1  N   UNL     1       3.910  -0.696  -2.718  0.00  0.00    -0.278 N 
ATOM      2  C   UNL     1       3.769   0.153  -3.756  0.00  0.00    +0.217 C 
ATOM      3  O   UNL     1       2.883  -0.022  -4.566  0.00  0.00    -0.276 OA
ENDROOT
BRANCH   1   4
ATOM      4  C   UNL     1       5.025  -0.530  -1.783  0.00  0.00    +0.030 C 
ATOM      5  C   UNL     1       6.340  -0.860  -2.492  0.00  0.00    +0.031 C 
ATOM      6  C   UNL     1       5.063   0.917  -1.286  0.00  0.00    +0.031 C 
ATOM      7  C   UNL     1       4.837  -1.473  -0.593  0.00  0.00    +0.031 C 
ENDBRANCH   1   4
BRANCH   1   8
ATOM      8  C   UNL     1       2.948  -1.784  -2.526  0.00  0.00    +0.229 C 
BRANCH   8   9
ATOM      9  C   UNL     1       3.625  -3.105  -2.791  0.00  0.00    +0.134 A 
ATOM     10  C   UNL     1       3.092  -4.141  -3.464  0.00  0.00    +0.047 A 
ATOM     11  C   UNL     1       4.065  -5.166  -3.474  0.00  0.00    +0.041 A 
ATOM     12  C   UNL     1       5.134  -4.696  -2.807  0.00  0.00    +0.195 A 
ATOM     13  O   UNL     1       4.864  -3.444  -2.401  0.00  0.00    -0.465 OA
ENDBRANCH   8   9
BRANCH   8  15
ATOM     14  N   UNL     1       1.871  -2.859  -0.577  0.00  0.00    -0.309 N 
ATOM     15  C   UNL     1       2.436  -1.758  -1.110  0.00  0.00    +0.242 C 
ATOM     16  O   UNL     1       2.532  -0.745  -0.449  0.00  0.00    -0.273 OA
ATOM     17  H   UNL     1       1.794  -3.669  -1.105  0.00  0.00    +0.149 HD
BRANCH  14  19
ATOM     18  C   UNL     1       0.288  -1.762   0.931  0.00  0.00    +0.031 C 
ATOM     19  C   UNL     1       1.373  -2.833   0.801  0.00  0.00    +0.026 C 
ATOM     20  C   UNL     1       2.525  -2.511   1.754  0.00  0.00    +0.031 C 
ATOM     21  C   UNL     1       0.784  -4.200   1.156  0.00  0.00    +0.031 C 
ENDBRANCH  14  19
ENDBRANCH   8  15
ENDBRANCH   1   8
BRANCH   2  22
ATOM     22  C   UNL     1       4.711   1.319  -3.909  0.00  0.00    +0.096 C 
BRANCH  22  23
ATOM     23  C   UNL     1       4.410   2.049  -5.219  0.00  0.00    +0.014 C 
BRANCH  23  24
ATOM     24  C   UNL     1       5.367   3.233  -5.375  0.00  0.00    +0.036 C 
BRANCH  24  25
ATOM     25  C   UNL     1       5.071   3.952  -6.666  0.00  0.00    -0.039 A 
ATOM     26  C   UNL     1       5.834   3.622  -7.888  0.00  0.00    +0.012 A 
ATOM     27  C   UNL     1       5.577   4.247  -9.011  0.00  0.00    -0.016 A 
ATOM     28  C   UNL     1       6.302   3.965 -10.263  0.00  0.00    +0.008 A 
ATOM     29  C   UNL     1       5.990   4.632 -11.353  0.00  0.00    +0.001 A 
ATOM     30  C   UNL     1       4.942   5.659 -11.386  0.00  0.00    +0.008 A 
ATOM     31  C   UNL     1       4.245   5.976 -10.319  0.00  0.00    -0.017 A 
ATOM     32  C   UNL     1       4.524   5.280  -9.050  0.00  0.00    -0.002 A 
ATOM     33  C   UNL     1       3.850   5.572  -7.971  0.00  0.00    -0.002 A 
ATOM     34  C   UNL     1       4.132   4.867  -6.706  0.00  0.00    -0.014 A 
ATOM     35  C   UNL     1       3.333   5.238  -5.525  0.00  0.00    +0.009 A 
ATOM     36  C   UNL     1       2.406   6.167  -5.639  0.00  0.00    +0.001 A 
ATOM     37  C   UNL     1       2.126   6.860  -6.902  0.00  0.00    +0.008 A 
ATOM     38  C   UNL     1       2.797   6.602  -8.001  0.00  0.00    -0.017 A 
ATOM     39  C   UNL     1       2.512   7.300  -9.266  0.00  0.00    +0.009 A 
ATOM     40  C   UNL     1       3.195   7.007 -10.356  0.00  0.00    +0.009 A 
ENDBRANCH  24  25
ENDBRANCH  23  24
ENDBRANCH  22  23
ENDBRANCH   2  22
TORSDOF 9
