REMARK  Name = ZINC02649472
REMARK  12 active torsions:
REMARK  status: ('A' for Active; 'I' for Inactive)
REMARK    1  A    between atoms: C_1  and  C_2
REMARK    2  A    between atoms: C_2  and  C_4
REMARK    3  A    between atoms: C_2  and  N_10
REMARK    4  A    between atoms: C_4  and  C_5
REMARK    5  A    between atoms: C_5  and  C_6
REMARK    6  A    between atoms: C_6  and  C_7
REMARK    7  A    between atoms: C_7  and  C_8
REMARK    8  A    between atoms: C_7  and  C_9
REMARK    9  A    between atoms: N_10  and  C_11
REMARK   10  A    between atoms: N_21  and  C_24
REMARK   11  A    between atoms: C_27  and  S_30
REMARK   12  A    between atoms: S_30  and  N_33
REMARK                            x       y       z     vdW  Elec       q    Type
REMARK                         _______ _______ _______ _____ _____    ______ ____
ROOT
ATOM      1  C   UNL     1      -2.659   0.213  -1.003  0.00  0.00    +0.081 C 
ATOM      2  C   UNL     1      -3.621  -0.764  -1.130  0.00  0.00    +0.059 C 
ATOM      3  C   UNL     1      -4.022  -1.592   0.026  0.00  0.00    +0.000 A 
ATOM      4  C   UNL     1      -3.450  -1.421   1.282  0.00  0.00    +0.009 A 
ATOM      5  C   UNL     1      -3.859  -2.219   2.331  0.00  0.00    +0.001 A 
ATOM      6  C   UNL     1      -4.834  -3.188   2.141  0.00  0.00    +0.001 A 
ATOM      7  C   UNL     1      -5.412  -3.372   0.904  0.00  0.00    +0.014 A 
ATOM      8  C   UNL     1      -5.013  -2.576  -0.170  0.00  0.00    +0.046 A 
ATOM      9  C   UNL     1      -5.604  -2.739  -1.505  0.00  0.00    +0.258 C 
ATOM     10  O   UNL     1      -6.459  -3.586  -1.681  0.00  0.00    -0.269 OA
ATOM     11  N   UNL     1      -5.216  -1.969  -2.534  0.00  0.00    -0.202 N 
ATOM     12  C   UNL     1      -4.283  -1.010  -2.417  0.00  0.00    +0.259 C 
ATOM     13  O   UNL     1      -3.979  -0.342  -3.388  0.00  0.00    -0.269 OA
ENDROOT
BRANCH  11  14
ATOM     14  C   UNL     1      -5.815  -2.170  -3.784  0.00  0.00    +0.045 A 
ATOM     15  C   UNL     1      -6.960  -1.464  -4.129  0.00  0.00    +0.026 A 
ATOM     16  C   UNL     1      -7.548  -1.665  -5.362  0.00  0.00    +0.030 A 
ATOM     17  C   UNL     1      -6.998  -2.568  -6.254  0.00  0.00    +0.106 A 
ATOM     18  C   UNL     1      -5.858  -3.272  -5.913  0.00  0.00    +0.030 A 
ATOM     19  C   UNL     1      -5.262  -3.072  -4.684  0.00  0.00    +0.026 A 
BRANCH  17  20
ATOM     20  S   UNL     1      -7.752  -2.821  -7.826  0.00  0.00    +0.061 S 
ATOM     21  O   UNL     1      -7.358  -4.115  -8.261  0.00  0.00    -0.153 OA
ATOM     22  O   UNL     1      -9.115  -2.445  -7.689  0.00  0.00    -0.153 OA
BRANCH  20  23
ATOM     23  N   UNL     1      -7.066  -1.740  -8.877  0.00  0.00    -0.172 NA
ATOM     24  C   UNL     1      -7.639  -0.398  -9.064  0.00  0.00    +0.137 C 
ATOM     25  C   UNL     1      -6.515   0.633  -8.911  0.00  0.00    +0.177 C 
ATOM     26  O   UNL     1      -5.432   0.280  -9.775  0.00  0.00    -0.377 OA
ATOM     27  C   UNL     1      -4.829  -0.980  -9.472  0.00  0.00    +0.177 C 
ATOM     28  C   UNL     1      -5.863  -2.092  -9.648  0.00  0.00    +0.137 C 
ENDBRANCH  20  23
ENDBRANCH  17  20
ENDBRANCH  11  14
BRANCH   1  29
ATOM     29  N   UNL     1      -1.692   0.096  -0.057  0.00  0.00    -0.346 N 
ATOM     30  H   UNL     1      -1.617  -0.721   0.462  0.00  0.00    +0.146 HD
BRANCH  29  32
ATOM     31  C   UNL     1      -1.390   2.197   1.158  0.00  0.00    +0.028 C 
ATOM     32  C   UNL     1      -0.761   1.201   0.181  0.00  0.00    +0.067 C 
BRANCH  32  33
ATOM     33  C   UNL     1       0.539   0.655   0.776  0.00  0.00    +0.022 C 
BRANCH  33  34
ATOM     34  C   UNL     1       1.232  -0.244  -0.250  0.00  0.00    +0.002 C 
BRANCH  34  35
ATOM     35  C   UNL     1       2.531  -0.790   0.345  0.00  0.00    +0.003 C 
BRANCH  35  36
ATOM     36  C   UNL     1       3.224  -1.689  -0.681  0.00  0.00    -0.017 C 
ATOM     37  C   UNL     1       4.581  -2.135  -0.134  0.00  0.00    +0.007 C 
ATOM     38  C   UNL     1       2.354  -2.918  -0.951  0.00  0.00    +0.007 C 
ENDBRANCH  35  36
ENDBRANCH  34  35
ENDBRANCH  33  34
ENDBRANCH  32  33
ENDBRANCH  29  32
ENDBRANCH   1  29
TORSDOF 9
