REMARK  Name = ZINC22284376
REMARK  9 active torsions:
REMARK  status: ('A' for Active; 'I' for Inactive)
REMARK    1  A    between atoms: C_1  and  C_2
REMARK    2  A    between atoms: C_2  and  C_3
REMARK    3  A    between atoms: C_2  and  C_4
REMARK    4  A    between atoms: C_7  and  S_15
REMARK    5  A    between atoms: N_8  and  C_9
REMARK    6  A    between atoms: C_9  and  C_10
REMARK    7  A    between atoms: S_15  and  C_16
REMARK    8  A    between atoms: C_16  and  C_17
REMARK    9  A    between atoms: C_30  and  C_32
REMARK                            x       y       z     vdW  Elec       q    Type
REMARK                         _______ _______ _______ _____ _____    ______ ____
ROOT
ATOM      1  C   UNL     1      -5.089  -1.161  -2.997  0.00  0.00    +0.231 C 
ATOM      2  O   UNL     1      -5.560  -0.803  -1.938  0.00  0.00    -0.274 OA
ATOM      3  N   UNL     1      -5.902  -1.530  -4.006  0.00  0.00    -0.257 N 
ATOM      4  C   UNL     1      -5.373  -1.940  -5.237  0.00  0.00    +0.058 A 
ATOM      5  C   UNL     1      -4.807  -1.018  -6.104  0.00  0.00    +0.025 A 
ATOM      6  C   UNL     1      -4.319  -1.435  -7.328  0.00  0.00    +0.002 A 
ATOM      7  C   UNL     1      -4.394  -2.767  -7.692  0.00  0.00    +0.002 A 
ATOM      8  C   UNL     1      -4.949  -3.706  -6.820  0.00  0.00    +0.025 A 
ATOM      9  C   UNL     1      -5.429  -3.293  -5.589  0.00  0.00    +0.055 A 
ATOM     10  N   UNL     1      -5.968  -4.212  -4.681  0.00  0.00    -0.284 N 
ATOM     11  C   UNL     1      -7.158  -3.973  -4.086  0.00  0.00    +0.219 C 
ATOM     12  O   UNL     1      -7.575  -4.741  -3.244  0.00  0.00    -0.275 OA
ATOM     13  C   UNL     1      -7.971  -2.762  -4.459  0.00  0.00    +0.128 C 
ATOM     14  C   UNL     1      -7.356  -1.505  -3.841  0.00  0.00    +0.194 C 
ATOM     15  H   UNL     1      -5.422  -5.138  -4.446  0.00  0.00    +0.155 HD
ENDROOT
BRANCH  14  16
ATOM     16  C   UNL     1      -7.926  -0.266  -4.535  0.00  0.00    +0.409 C 
ATOM     17  F   UNL     1      -7.612  -0.309  -5.897  0.00  0.00    -0.169 F 
ATOM     18  F   UNL     1      -9.316  -0.241  -4.377  0.00  0.00    -0.169 F 
ATOM     19  F   UNL     1      -7.371   0.885  -3.964  0.00  0.00    -0.169 F 
ENDBRANCH  14  16
BRANCH   1  20
ATOM     20  C   UNL     1      -3.594  -1.192  -3.184  0.00  0.00    +0.173 C 
BRANCH  20  21
ATOM     21  S   UNL     1      -2.784  -0.644  -1.661  0.00  0.00    -0.077 S 
BRANCH  21  25
ATOM     22  C   UNL     1       1.083  -0.741  -2.172  0.00  0.00    +0.137 A 
ATOM     23  N   UNL     1       0.636  -1.150  -3.325  0.00  0.00    -0.133 NA
ATOM     24  N   UNL     1      -0.649  -1.170  -3.319  0.00  0.00    -0.122 NA
ATOM     25  C   UNL     1      -1.095  -0.776  -2.149  0.00  0.00    +0.192 A 
ATOM     26  N   UNL     1      -0.004  -0.485  -1.382  0.00  0.00    -0.298 N 
BRANCH  22  28
ATOM     27  C   UNL     1       3.241  -1.930  -1.893  0.00  0.00    +0.015 C 
ATOM     28  C   UNL     1       2.529  -0.581  -1.780  0.00  0.00    +0.051 C 
ATOM     29  C   UNL     1       3.201   0.429  -2.713  0.00  0.00    +0.015 C 
ENDBRANCH  22  28
BRANCH  26  30
ATOM     30  C   UNL     1       0.002  -0.004   0.002  0.00  0.00    +0.199 C 
BRANCH  30  31
ATOM     31  C   UNL     1      -0.018   1.503   0.010  0.00  0.00    +0.125 A 
ATOM     32  C   UNL     1      -1.120   2.275   0.019  0.00  0.00    +0.046 A 
ATOM     33  C   UNL     1      -0.679   3.618   0.027  0.00  0.00    +0.041 A 
ATOM     34  C   UNL     1       0.666   3.587   0.015  0.00  0.00    +0.195 A 
ATOM     35  O   UNL     1       1.060   2.303   0.004  0.00  0.00    -0.466 OA
ENDBRANCH  30  31
ENDBRANCH  26  30
ENDBRANCH  21  25
ENDBRANCH  20  21
ENDBRANCH   1  20
TORSDOF 7
