REMARK  Name = ZINC34321409
REMARK  3 active torsions:
REMARK  status: ('A' for Active; 'I' for Inactive)
REMARK    1  A    between atoms: C_1  and  C_2
REMARK    2  A    between atoms: C_2  and  C_3
REMARK    3  A    between atoms: C_6  and  C_10
REMARK                            x       y       z     vdW  Elec       q    Type
REMARK                         _______ _______ _______ _____ _____    ______ ____
ROOT
ATOM      1  C   UNL     1      -1.412  -0.526   0.013  0.00  0.00    +0.026 A 
ATOM      2  C   UNL     1      -2.069  -0.772   1.209  0.00  0.00    +0.137 A 
ATOM      3  N   UNL     1      -3.312  -1.230   1.179  0.00  0.00    -0.220 NA
ATOM      4  C   UNL     1      -3.922  -1.451   0.032  0.00  0.00    +0.135 A 
ATOM      5  N   UNL     1      -3.330  -1.229  -1.124  0.00  0.00    -0.220 NA
ATOM      6  C   UNL     1      -2.090  -0.765  -1.173  0.00  0.00    +0.137 A 
ATOM      7 CL   UNL     1      -1.321  -0.468  -2.701  0.00  0.00    -0.062 Cl
ATOM      8 CL   UNL     1      -1.274  -0.486   2.725  0.00  0.00    -0.062 Cl
ENDROOT
BRANCH   4   9
ATOM      9  C   UNL     1      -5.336  -1.972   0.042  0.00  0.00    +0.057 C 
ATOM     10  C   UNL     1      -5.939  -2.406  -1.295  0.00  0.00    +0.012 C 
ATOM     11  C   UNL     1      -6.411  -1.113  -0.627  0.00  0.00    +0.012 C 
ENDBRANCH   4   9
BRANCH   1  13
ATOM     12  C   UNL     1      -0.019   1.526   0.010  0.00  0.00    +0.009 C 
ATOM     13  C   UNL     1       0.002  -0.004   0.002  0.00  0.00    +0.038 C 
ENDBRANCH   1  13
TORSDOF 2
