REMARK  Name = ZINC11913025
REMARK  9 active torsions:
REMARK  status: ('A' for Active; 'I' for Inactive)
REMARK    1  A    between atoms: C_2  and  C_3
REMARK    2  A    between atoms: C_3  and  O_4
REMARK    3  A    between atoms: O_4  and  C_5
REMARK    4  A    between atoms: C_10  and  C_11
REMARK    5  A    between atoms: C_11  and  N_70
REMARK    6  A    between atoms: C_14  and  C_17
REMARK    7  A    between atoms: C_17  and  C_31
REMARK    8  A    between atoms: N_20  and  C_24
REMARK    9  A    between atoms: C_24  and  C_25
REMARK                            x       y       z     vdW  Elec       q    Type
REMARK                         _______ _______ _______ _____ _____    ______ ____
ROOT
ATOM      1  C   UNL     1      -3.199  -1.840  -5.273  0.00  0.00    +0.157 C 
ATOM      2  C   UNL     1      -2.170  -2.117  -6.351  0.00  0.00    +0.253 C 
ATOM      3  O   UNL     1      -1.569  -3.153  -6.540  0.00  0.00    -0.272 OA
ATOM      4  N   UNL     1      -2.064  -0.968  -7.053  0.00  0.00    -0.221 N 
ATOM      5  C   UNL     1      -2.876  -0.019  -6.574  0.00  0.00    +0.310 C 
ATOM      6  O   UNL     1      -2.958   1.100  -7.042  0.00  0.00    -0.252 OA
ATOM      7  N   UNL     1      -3.591  -0.441  -5.516  0.00  0.00    -0.280 N 
ATOM      8  H   UNL     1      -4.240   0.075  -5.012  0.00  0.00    +0.152 HD
ENDROOT
BRANCH   1  11
ATOM      9  C   UNL     1      -0.811  -1.145  -2.334  0.00  0.00    -0.078 C 
ATOM     10  C   UNL     1      -1.390  -1.032  -3.746  0.00  0.00    -0.012 C 
ATOM     11  C   UNL     1      -2.577  -1.991  -3.883  0.00  0.00    +0.024 C 
ATOM     12  C   UNL     1      -3.621  -1.654  -2.816  0.00  0.00    -0.012 C 
ATOM     13  C   UNL     1      -2.977  -1.748  -1.431  0.00  0.00    -0.078 C 
ATOM     14  N   UNL     1      -1.859  -0.785  -1.355  0.00  0.00    +0.382 N 
ATOM     15  H   UNL     1      -2.212   0.153  -1.575  0.00  0.00    -0.081 HD
BRANCH  14  16
ATOM     16  C   UNL     1      -1.292  -0.776   0.010  0.00  0.00    -0.039 C 
BRANCH  16  22
ATOM     17  C   UNL     1      -0.017   1.383   0.010  0.00  0.00    +0.122 A 
ATOM     18  C   UNL     1       1.177   2.091   0.002  0.00  0.00    +0.046 A 
ATOM     19  C   UNL     1       2.380   1.413  -0.013  0.00  0.00    +0.004 A 
ATOM     20  C   UNL     1       2.396   0.030  -0.021  0.00  0.00    +0.000 A 
ATOM     21  C   UNL     1       1.208  -0.677  -0.013  0.00  0.00    +0.005 A 
ATOM     22  C   UNL     1       0.002  -0.004   0.002  0.00  0.00    -0.022 A 
BRANCH  17  23
ATOM     23  O   UNL     1      -1.202   2.047   0.019  0.00  0.00    -0.488 OA
BRANCH  23  24
ATOM     24  C   UNL     1      -1.145   3.475   0.026  0.00  0.00    +0.256 C 
BRANCH  24  26
ATOM     25  C   UNL     1      -2.852   5.017   0.845  0.00  0.00    +0.007 C 
ATOM     26  C   UNL     1      -2.545   4.034   0.036  0.00  0.00    +0.006 C 
ENDBRANCH  24  26
ENDBRANCH  23  24
ENDBRANCH  17  23
ENDBRANCH  16  22
ENDBRANCH  14  16
ENDBRANCH   1  11
BRANCH   1  27
ATOM     27  C   UNL     1      -4.385  -2.757  -5.424  0.00  0.00    +0.074 A 
ATOM     28  C   UNL     1      -5.633  -2.223  -5.685  0.00  0.00    +0.026 A 
ATOM     29  C   UNL     1      -6.716  -3.076  -5.828  0.00  0.00    +0.003 A 
ATOM     30  C   UNL     1      -6.505  -4.439  -5.690  0.00  0.00    +0.020 A 
ATOM     31  C   UNL     1      -5.231  -4.900  -5.422  0.00  0.00    +0.111 A 
ATOM     32  N   UNL     1      -4.222  -4.059  -5.299  0.00  0.00    -0.257 NA
ENDBRANCH   1  27
BRANCH   4  33
ATOM     33  C   UNL     1      -1.170  -0.785  -8.200  0.00  0.00    +0.149 C 
BRANCH  33  34
ATOM     34  C   UNL     1       0.187  -0.274  -7.712  0.00  0.00    +0.136 C 
ATOM     35  C   UNL     1       1.137  -0.040  -8.914  0.00  0.00    +0.035 C 
ATOM     36  C   UNL     1       2.104   1.022  -8.320  0.00  0.00    +0.031 C 
ATOM     37  C   UNL     1       1.174   1.835  -7.395  0.00  0.00    +0.160 C 
ATOM     38  O   UNL     1       0.041   1.013  -7.091  0.00  0.00    -0.375 OA
ENDBRANCH  33  34
ENDBRANCH   4  33
TORSDOF 9
