REMARK  Name = ZINC63182668
REMARK  8 active torsions:
REMARK  status: ('A' for Active; 'I' for Inactive)
REMARK    1  A    between atoms: C_7  and  C_10
REMARK    2  A    between atoms: C_10  and  C_11
REMARK    3  A    between atoms: C_11  and  N_12
REMARK    4  A    between atoms: C_13  and  C_15
REMARK    5  A    between atoms: C_17  and  S_23
REMARK    6  A    between atoms: S_23  and  N_26
REMARK    7  A    between atoms: N_26  and  C_27
REMARK    8  A    between atoms: C_27  and  C_28
REMARK                            x       y       z     vdW  Elec       q    Type
REMARK                         _______ _______ _______ _____ _____    ______ ____
ROOT
ATOM      1  C   UNL     1      -1.733  -6.534  -2.622  0.00  0.00    +0.057 A 
ATOM      2  C   UNL     1      -2.246  -7.020  -1.417  0.00  0.00    +0.044 A 
ATOM      3  C   UNL     1      -3.106  -8.097  -1.422  0.00  0.00    +0.124 A 
ATOM      4  C   UNL     1      -3.463  -8.698  -2.618  0.00  0.00    +0.069 A 
ATOM      5  C   UNL     1      -2.958  -8.223  -3.816  0.00  0.00    +0.042 A 
ATOM      6  C   UNL     1      -2.100  -7.140  -3.826  0.00  0.00    +0.055 A 
ATOM      7 CL   UNL     1      -1.474  -6.540  -5.329  0.00  0.00    -0.083 Cl
ATOM      8 CL   UNL     1      -4.546 -10.055  -2.615  0.00  0.00    -0.081 Cl
ENDROOT
BRANCH   1  10
ATOM      9  N   UNL     1      -0.458  -4.798  -1.460  0.00  0.00    -0.311 N 
ATOM     10  C   UNL     1      -0.811  -5.380  -2.623  0.00  0.00    +0.246 C 
ATOM     11  O   UNL     1      -0.370  -4.956  -3.674  0.00  0.00    -0.270 OA
ATOM     12  H   UNL     1      -0.810  -5.136  -0.622  0.00  0.00    +0.149 HD
BRANCH   9  13
ATOM     13  C   UNL     1       0.457  -3.653  -1.462  0.00  0.00    +0.109 C 
BRANCH  13  14
ATOM     14  C   UNL     1       0.691  -3.186  -0.024  0.00  0.00    +0.052 C 
BRANCH  14  21
ATOM     15  C   UNL     1      -0.016   1.348   0.009  0.00  0.00    +0.001 A 
ATOM     16  C   UNL     1       1.166   2.101   0.002  0.00  0.00    +0.002 A 
ATOM     17  C   UNL     1       2.391   1.535  -0.013  0.00  0.00    +0.026 A 
ATOM     18  C   UNL     1       2.529   0.120  -0.022  0.00  0.00    +0.043 A 
ATOM     19  N   UNL     1       3.587  -0.654  -0.037  0.00  0.00    -0.380 N 
ATOM     20  C   UNL     1       3.143  -2.053  -0.041  0.00  0.00    +0.144 C 
ATOM     21  C   UNL     1       1.631  -2.008  -0.025  0.00  0.00    -0.040 C 
ATOM     22  C   UNL     1       1.295  -0.698  -0.014  0.00  0.00    -0.001 A 
ATOM     23  C   UNL     1       0.002  -0.004   0.002  0.00  0.00    +0.010 A 
ATOM     24  H   UNL     1       4.509  -0.353  -0.045  0.00  0.00    +0.160 HD
ENDBRANCH  14  21
ENDBRANCH  13  14
ENDBRANCH   9  13
ENDBRANCH   1  10
BRANCH   3  25
ATOM     25  S   UNL     1      -3.754  -8.711   0.097  0.00  0.00    +0.060 S 
ATOM     26  O   UNL     1      -3.561 -10.119   0.082  0.00  0.00    -0.153 OA
ATOM     27  O   UNL     1      -3.232  -7.881   1.126  0.00  0.00    -0.153 OA
BRANCH  25  28
ATOM     28  N   UNL     1      -5.391  -8.458   0.070  0.00  0.00    -0.183 NA
ATOM     29  H   UNL     1      -5.798  -7.846   0.703  0.00  0.00    +0.148 HD
BRANCH  28  30
ATOM     30  C   UNL     1      -6.223  -9.158  -0.911  0.00  0.00    +0.180 C 
BRANCH  30  31
ATOM     31  C   UNL     1      -7.671  -9.054  -0.506  0.00  0.00    +0.120 A 
ATOM     32  C   UNL     1      -8.524  -8.082  -0.876  0.00  0.00    +0.046 A 
ATOM     33  C   UNL     1      -9.768  -8.376  -0.272  0.00  0.00    +0.041 A 
ATOM     34  C   UNL     1      -9.601  -9.511   0.430  0.00  0.00    +0.195 A 
ATOM     35  O   UNL     1      -8.331  -9.920   0.280  0.00  0.00    -0.466 OA
ENDBRANCH  30  31
ENDBRANCH  28  30
ENDBRANCH  25  28
ENDBRANCH   3  25
TORSDOF 8
