REMARK  Name = ZINC35926825
REMARK  6 active torsions:
REMARK  status: ('A' for Active; 'I' for Inactive)
REMARK    1  A    between atoms: C_4  and  N_9
REMARK    2  A    between atoms: C_5  and  C_7
REMARK    3  A    between atoms: N_12  and  C_15
REMARK    4  A    between atoms: C_15  and  C_16
REMARK    5  A    between atoms: N_27  and  C_30
REMARK    6  A    between atoms: C_30  and  C_31
REMARK                            x       y       z     vdW  Elec       q    Type
REMARK                         _______ _______ _______ _____ _____    ______ ____
ROOT
ATOM      1  C   UNL     1       6.988  -4.517   0.976  0.00  0.00    +0.034 A 
ATOM      2  C   UNL     1       6.542  -5.217   2.060  0.00  0.00    +0.091 A 
ATOM      3  C   UNL     1       7.330  -5.242   3.224  0.00  0.00    +0.253 A 
ATOM      4  O   UNL     1       6.961  -5.858   4.211  0.00  0.00    -0.268 OA
ATOM      5  N   UNL     1       8.502  -4.573   3.229  0.00  0.00    -0.295 N 
ATOM      6  H   UNL     1       9.062  -4.577   4.021  0.00  0.00    +0.172 HD
ATOM      7  C   UNL     1       8.896  -3.893   2.119  0.00  0.00    +0.198 A 
ATOM      8  N   UNL     1       8.154  -3.878   1.029  0.00  0.00    -0.223 NA
ATOM      9  N   UNL     1      10.086  -3.216   2.131  0.00  0.00    -0.305 N 
ATOM     10  C   UNL     1      10.488  -2.371   0.996  0.00  0.00    +0.089 C 
ATOM     11  C   UNL     1      11.913  -2.756   0.584  0.00  0.00    -0.059 C 
ATOM     12  N   UNL     1      12.800  -2.666   1.750  0.00  0.00    +0.385 N 
ATOM     13  C   UNL     1      12.400  -3.654   2.760  0.00  0.00    -0.059 C 
ATOM     14  C   UNL     1      10.997  -3.309   3.283  0.00  0.00    +0.089 C 
ATOM     15  H   UNL     1      12.741  -1.740   2.146  0.00  0.00    -0.081 HD
ENDROOT
BRANCH   1  16
ATOM     16  C   UNL     1       6.163  -4.475  -0.284  0.00  0.00    -0.022 C 
BRANCH  16  20
ATOM     17  N   UNL     1       3.889  -1.036  -0.999  0.00  0.00    -0.332 N 
ATOM     18  C   UNL     1       4.653  -1.579  -2.133  0.00  0.00    +0.086 C 
ATOM     19  C   UNL     1       5.016  -3.035  -1.820  0.00  0.00    -0.059 C 
ATOM     20  N   UNL     1       5.718  -3.097  -0.531  0.00  0.00    +0.385 N 
ATOM     21  C   UNL     1       4.818  -2.674   0.549  0.00  0.00    -0.059 C 
ATOM     22  C   UNL     1       4.447  -1.195   0.353  0.00  0.00    +0.086 C 
ATOM     23  H   UNL     1       6.521  -2.486  -0.557  0.00  0.00    -0.081 HD
BRANCH  17  27
ATOM     24  C   UNL     1       0.258   0.920  -1.603  0.00  0.00    +0.001 A 
ATOM     25  C   UNL     1       1.447   1.633  -1.616  0.00  0.00    +0.002 A 
ATOM     26  C   UNL     1       2.651   0.988  -1.417  0.00  0.00    +0.024 A 
ATOM     27  C   UNL     1       2.678  -0.384  -1.200  0.00  0.00    +0.047 A 
ATOM     28  C   UNL     1       1.476  -1.109  -1.185  0.00  0.00    +0.073 A 
ATOM     29  C   UNL     1       0.265  -0.441  -1.389  0.00  0.00    +0.021 A 
BRANCH  28  30
ATOM     30  C   UNL     1       1.490  -2.523  -0.962  0.00  0.00    +0.101 C 
ATOM     31  N   UNL     1       1.502  -3.645  -0.785  0.00  0.00    -0.191 NA
ENDBRANCH  28  30
ENDBRANCH  17  27
ENDBRANCH  16  20
ENDBRANCH   1  16
BRANCH  12  32
ATOM     32  C   UNL     1      14.184  -2.929   1.333  0.00  0.00    -0.035 C 
BRANCH  32  33
ATOM     33  C   UNL     1      15.110  -2.717   2.502  0.00  0.00    -0.027 A 
ATOM     34  C   UNL     1      15.530  -3.610   3.432  0.00  0.00    +0.009 A 
ATOM     35  C   UNL     1      16.392  -3.187   4.426  0.00  0.00    +0.008 A 
ATOM     36  C   UNL     1      16.792  -1.892   4.442  0.00  0.00    +0.045 A 
ATOM     37  S   UNL     1      15.947  -1.226   3.017  0.00  0.00    -0.103 S 
ENDBRANCH  32  33
ENDBRANCH  12  32
TORSDOF 6
