REMARK  Name = ZINC36588715
REMARK  20 active torsions:
REMARK  status: ('A' for Active; 'I' for Inactive)
REMARK    1  A    between atoms: C_1  and  C_2
REMARK    2  A    between atoms: C_3  and  C_4
REMARK    3  A    between atoms: C_4  and  C_6
REMARK    4  A    between atoms: C_4  and  N_17
REMARK    5  A    between atoms: N_8  and  C_9
REMARK    6  A    between atoms: C_9  and  C_10
REMARK    7  A    between atoms: C_9  and  C_11
REMARK    8  A    between atoms: C_9  and  C_12
REMARK    9  A    between atoms: C_12  and  C_13
REMARK   10  A    between atoms: C_13  and  C_14
REMARK   11  A    between atoms: C_13  and  C_15
REMARK   12  A    between atoms: C_13  and  C_16
REMARK   13  A    between atoms: N_17  and  C_34
REMARK   14  A    between atoms: C_18  and  C_20
REMARK   15  A    between atoms: C_20  and  C_21
REMARK   16  A    between atoms: C_20  and  C_27
REMARK   17  A    between atoms: C_20  and  O_33
REMARK   18  A    between atoms: C_34  and  C_35
REMARK   19  A    between atoms: C_34  and  C_36
REMARK   20  A    between atoms: C_34  and  C_37
REMARK                            x       y       z     vdW  Elec       q    Type
REMARK                         _______ _______ _______ _____ _____    ______ ____
ROOT
ATOM      1  N   UNL     1      -1.150  -1.896  -1.820  0.00  0.00    -0.279 N 
ATOM      2  C   UNL     1      -2.011  -2.820  -1.350  0.00  0.00    +0.258 C 
ATOM      3  O   UNL     1      -2.390  -2.766  -0.199  0.00  0.00    -0.272 OA
ENDROOT
BRANCH   1   4
ATOM      4  C   UNL     1      -0.572  -2.047  -3.158  0.00  0.00    +0.030 C 
ATOM      5  C   UNL     1       0.426  -3.206  -3.155  0.00  0.00    +0.031 C 
ATOM      6  C   UNL     1      -1.687  -2.337  -4.165  0.00  0.00    +0.031 C 
ATOM      7  C   UNL     1       0.147  -0.755  -3.551  0.00  0.00    +0.031 C 
ENDBRANCH   1   4
BRANCH   1   8
ATOM      8  C   UNL     1      -0.791  -0.741  -0.993  0.00  0.00    +0.185 C 
BRANCH   8   9
ATOM      9  C   UNL     1       0.679  -0.795  -0.666  0.00  0.00    +0.238 C 
ATOM     10  O   UNL     1       1.374  -1.669  -1.139  0.00  0.00    -0.273 OA
ATOM     11  N   UNL     1       1.222   0.129   0.151  0.00  0.00    -0.308 N 
ATOM     12  H   UNL     1       0.666   0.828   0.530  0.00  0.00    +0.149 HD
BRANCH  11  13
ATOM     13  C   UNL     1       2.651   0.077   0.469  0.00  0.00    +0.030 C 
ATOM     14  C   UNL     1       2.942  -1.170   1.306  0.00  0.00    +0.031 C 
ATOM     15  C   UNL     1       3.460   0.022  -0.828  0.00  0.00    +0.031 C 
BRANCH  13  16
ATOM     16  C   UNL     1       3.043   1.326   1.262  0.00  0.00    +0.031 C 
BRANCH  16  17
ATOM     17  C   UNL     1       2.469   2.567   0.574  0.00  0.00    -0.036 C 
ATOM     18  C   UNL     1       0.969   2.374   0.342  0.00  0.00    +0.010 C 
ATOM     19  C   UNL     1       2.694   3.792   1.463  0.00  0.00    +0.010 C 
ATOM     20  C   UNL     1       3.170   2.776  -0.770  0.00  0.00    +0.010 C 
ENDBRANCH  16  17
ENDBRANCH  13  16
ENDBRANCH  11  13
ENDBRANCH   8   9
BRANCH   8  23
ATOM     21  C   UNL     1      -2.204   1.764  -3.535  0.00  0.00    +0.035 C 
ATOM     22  C   UNL     1      -1.802   0.485  -2.846  0.00  0.00    -0.032 C 
ATOM     23  C   UNL     1      -1.093   0.529  -1.746  0.00  0.00    +0.000 C 
ENDBRANCH   8  23
ENDBRANCH   1   8
BRANCH   2  24
ATOM     24  C   UNL     1      -2.502  -3.922  -2.254  0.00  0.00    +0.192 C 
BRANCH  24  25
ATOM     25  C   UNL     1      -1.330  -4.739  -2.732  0.00  0.00    -0.003 A 
ATOM     26  C   UNL     1      -0.265  -4.983  -1.885  0.00  0.00    +0.007 A 
ATOM     27  C   UNL     1       0.810  -5.733  -2.323  0.00  0.00    +0.000 A 
ATOM     28  C   UNL     1       0.821  -6.240  -3.609  0.00  0.00    +0.000 A 
ATOM     29  C   UNL     1      -0.244  -5.997  -4.457  0.00  0.00    +0.000 A 
ATOM     30  C   UNL     1      -1.321  -5.250  -4.017  0.00  0.00    +0.007 A 
ENDBRANCH  24  25
BRANCH  24  31
ATOM     31  C   UNL     1      -3.455  -4.807  -1.494  0.00  0.00    -0.003 A 
ATOM     32  C   UNL     1      -3.245  -5.058  -0.151  0.00  0.00    +0.007 A 
ATOM     33  C   UNL     1      -4.120  -5.870   0.546  0.00  0.00    +0.000 A 
ATOM     34  C   UNL     1      -5.205  -6.432  -0.101  0.00  0.00    +0.000 A 
ATOM     35  C   UNL     1      -5.416  -6.181  -1.444  0.00  0.00    +0.000 A 
ATOM     36  C   UNL     1      -4.543  -5.365  -2.139  0.00  0.00    +0.007 A 
ENDBRANCH  24  31
BRANCH  24  37
ATOM     37  O   UNL     1      -3.175  -3.351  -3.378  0.00  0.00    -0.371 OA
ATOM     38  H   UNL     1      -3.894  -2.750  -3.142  0.00  0.00    +0.212 HD
ENDBRANCH  24  37
ENDBRANCH   2  24
TORSDOF 11
