REMARK  Name = ZINC08892751
REMARK  12 active torsions:
REMARK  status: ('A' for Active; 'I' for Inactive)
REMARK    1  A    between atoms: C_1  and  C_2
REMARK    2  A    between atoms: C_2  and  C_3
REMARK    3  A    between atoms: C_3  and  C_4
REMARK    4  A    between atoms: C_4  and  C_5
REMARK    5  A    between atoms: C_5  and  C_7
REMARK    6  A    between atoms: C_5  and  O_40
REMARK    7  A    between atoms: C_22  and  C_33
REMARK    8  A    between atoms: C_33  and  C_34
REMARK    9  A    between atoms: C_34  and  C_35
REMARK   10  A    between atoms: C_35  and  C_37
REMARK   11  A    between atoms: C_35  and  O_39
REMARK   12  A    between atoms: C_37  and  C_38
REMARK                            x       y       z     vdW  Elec       q    Type
REMARK                         _______ _______ _______ _____ _____    ______ ____
ROOT
ATOM      1  C   UNL     1      -5.503  12.256   0.311  0.00  0.00    -0.015 A 
ATOM      2  C   UNL     1      -6.638  11.468   0.352  0.00  0.00    +0.010 A 
ATOM      3  C   UNL     1      -6.531  10.091   0.297  0.00  0.00    +0.050 A 
ATOM      4  C   UNL     1      -5.282   9.497   0.201  0.00  0.00    +0.162 A 
ATOM      5  C   UNL     1      -4.139  10.290   0.157  0.00  0.00    +0.162 A 
ATOM      6  C   UNL     1      -4.254  11.669   0.214  0.00  0.00    +0.055 A 
ATOM      7  O   UNL     1      -2.913   9.711   0.057  0.00  0.00    -0.486 OA
ATOM      8  C   UNL     1      -2.034   9.850   1.174  0.00  0.00    +0.257 C 
ATOM      9  C   UNL     1      -1.815   8.483   1.826  0.00  0.00    +0.201 C 
ATOM     10  O   UNL     1      -0.707   7.829   1.204  0.00  0.00    -0.373 OA
ATOM     11  C   UNL     1      -0.236   6.684   1.917  0.00  0.00    +0.201 C 
ATOM     12  C   UNL     1       0.701   5.872   1.021  0.00  0.00    +0.257 C 
ATOM     13  O   UNL     1      -0.061   5.205   0.012  0.00  0.00    -0.486 OA
ATOM     14  C   UNL     1      -0.044   3.845   0.017  0.00  0.00    +0.162 A 
ATOM     15  C   UNL     1       1.163   3.164   0.004  0.00  0.00    +0.053 A 
ATOM     16  C   UNL     1       1.176   1.782   0.000  0.00  0.00    -0.044 A 
ATOM     17  C   UNL     1      -0.013   1.076   0.008  0.00  0.00    +0.007 A 
ATOM     18  C   UNL     1      -1.220   1.749   0.017  0.00  0.00    +0.050 A 
ATOM     19  C   UNL     1      -1.240   3.135   0.030  0.00  0.00    +0.162 A 
ATOM     20  O   UNL     1      -2.427   3.799   0.048  0.00  0.00    -0.486 OA
ATOM     21  C   UNL     1      -3.391   3.437  -0.942  0.00  0.00    +0.257 C 
ATOM     22  C   UNL     1      -3.792   4.677  -1.743  0.00  0.00    +0.201 C 
ATOM     23  O   UNL     1      -4.707   5.464  -0.978  0.00  0.00    -0.373 OA
ATOM     24  C   UNL     1      -5.251   6.577  -1.691  0.00  0.00    +0.201 C 
ATOM     25  C   UNL     1      -6.061   7.451  -0.732  0.00  0.00    +0.257 C 
ATOM     26  O   UNL     1      -5.174   8.143   0.148  0.00  0.00    -0.486 OA
ENDROOT
BRANCH   1  27
ATOM     27  C   UNL     1      -5.626  13.756   0.372  0.00  0.00    +0.145 C 
BRANCH  27  28
ATOM     28  O   UNL     1      -6.639  14.113   1.315  0.00  0.00    -0.387 OA
ATOM     29  H   UNL     1      -7.515  13.764   1.102  0.00  0.00    +0.210 HD
ENDBRANCH  27  28
BRANCH  27  30
ATOM     30  C   UNL     1      -6.003  14.294  -1.010  0.00  0.00    +0.036 C 
BRANCH  30  31
ATOM     31  C   UNL     1      -6.005  15.824  -0.978  0.00  0.00    +0.003 C 
BRANCH  31  33
ATOM     32  C   UNL     1      -6.385  17.892  -2.328  0.00  0.00    +0.004 C 
ATOM     33  C   UNL     1      -6.382  16.362  -2.360  0.00  0.00    -0.003 C 
ENDBRANCH  31  33
ENDBRANCH  30  31
ENDBRANCH  27  30
ENDBRANCH   1  27
BRANCH  16  34
ATOM     34  C   UNL     1       2.489   1.043  -0.013  0.00  0.00    +0.038 C 
BRANCH  34  35
ATOM     35  C   UNL     1       2.922   0.797  -1.460  0.00  0.00    +0.036 C 
BRANCH  35  36
ATOM     36  C   UNL     1       4.255   0.047  -1.473  0.00  0.00    +0.115 C 
BRANCH  36  37
ATOM     37  C   UNL     1       4.626  -0.308  -2.914  0.00  0.00    +0.028 C 
ATOM     38  C   UNL     1       5.894  -1.165  -2.918  0.00  0.00    +0.006 C 
ENDBRANCH  36  37
BRANCH  36  39
ATOM     39  O   UNL     1       5.274   0.876  -0.909  0.00  0.00    -0.392 OA
ATOM     40  H   UNL     1       5.410   1.708  -1.382  0.00  0.00    +0.210 HD
ENDBRANCH  36  39
ENDBRANCH  35  36
ENDBRANCH  34  35
ENDBRANCH  16  34
TORSDOF 10
