REMARK  Name = ZINC66079738
REMARK  6 active torsions:
REMARK  status: ('A' for Active; 'I' for Inactive)
REMARK    1  A    between atoms: C_1  and  C_2
REMARK    2  A    between atoms: C_7  and  C_30
REMARK    3  A    between atoms: N_12  and  C_16
REMARK    4  A    between atoms: C_16  and  N_17
REMARK    5  A    between atoms: C_20  and  N_23
REMARK    6  A    between atoms: C_24  and  C_26
REMARK                            x       y       z     vdW  Elec       q    Type
REMARK                         _______ _______ _______ _____ _____    ______ ____
ROOT
ATOM      1  C   UNL     1      -1.060  -1.237   4.398  0.00  0.00    +0.043 C 
ENDROOT
BRANCH   1  11
ATOM      2  C   UNL     1      -0.019   1.526   0.010  0.00  0.00    +0.010 C 
ATOM      3  C   UNL     1       0.002  -0.004   0.002  0.00  0.00    +0.019 C 
ATOM      4  C   UNL     1       0.718  -0.498  -1.258  0.00  0.00    +0.006 C 
ATOM      5  C   UNL     1       2.160   0.015  -1.257  0.00  0.00    +0.001 C 
ATOM      6  C   UNL     1       2.892  -0.516  -0.024  0.00  0.00    +0.006 C 
ATOM      7  C   UNL     1       2.184  -0.023   1.241  0.00  0.00    +0.019 C 
ATOM      8  C   UNL     1       0.739  -0.509   1.238  0.00  0.00    +0.118 C 
ATOM      9  C   UNL     1       0.029  -0.062   2.495  0.00  0.00    +0.245 C 
ATOM     10  O   UNL     1      -0.169   1.076   2.861  0.00  0.00    -0.273 OA
ATOM     11  N   UNL     1      -0.337  -1.198   3.124  0.00  0.00    -0.241 N 
ATOM     12  C   UNL     1       0.041  -2.285   2.441  0.00  0.00    +0.308 C 
ATOM     13  O   UNL     1      -0.176  -3.423   2.807  0.00  0.00    -0.252 OA
ATOM     14  N   UNL     1       0.690  -1.975   1.302  0.00  0.00    -0.284 N 
ATOM     15  C   UNL     1       2.904  -0.570   2.475  0.00  0.00    +0.010 C 
ATOM     16  H   UNL     1       1.053  -2.598   0.653  0.00  0.00    +0.151 HD
ENDBRANCH   1  11
BRANCH   1  17
ATOM     17  N   UNL     1      -2.506  -1.239   4.141  0.00  0.00    +0.391 N 
ATOM     18  C   UNL     1      -2.875  -2.474   3.438  0.00  0.00    -0.075 C 
ATOM     19  C   UNL     1      -4.366  -2.445   3.095  0.00  0.00    +0.004 C 
ATOM     20  C   UNL     1      -5.179  -2.330   4.388  0.00  0.00    +0.069 C 
ATOM     21  C   UNL     1      -4.734  -1.077   5.149  0.00  0.00    +0.004 C 
ATOM     22  C   UNL     1      -3.229  -1.157   5.416  0.00  0.00    -0.075 C 
ATOM     23  H   UNL     1      -2.746  -0.444   3.567  0.00  0.00    -0.079 HD
BRANCH  20  24
ATOM     24  N   UNL     1      -6.603  -2.225   4.063  0.00  0.00    -0.312 N 
ATOM     25  C   UNL     1      -7.530  -2.610   4.963  0.00  0.00    +0.216 C 
ATOM     26  O   UNL     1      -7.184  -3.044   6.042  0.00  0.00    -0.276 OA
ATOM     27  H   UNL     1      -6.880  -1.878   3.200  0.00  0.00    +0.149 HD
BRANCH  25  28
ATOM     28  C   UNL     1      -8.995  -2.503   4.629  0.00  0.00    +0.075 C 
ATOM     29  C   UNL     1      -9.577  -1.097   4.855  0.00  0.00    +0.013 C 
ATOM     30  C   UNL     1     -10.831  -1.791   5.412  0.00  0.00    +0.001 C 
ATOM     31  C   UNL     1      -9.922  -2.982   5.759  0.00  0.00    +0.013 C 
ENDBRANCH  25  28
ENDBRANCH  20  24
ENDBRANCH   1  17
TORSDOF 4
