REMARK  Name = ZINC20080873
REMARK  5 active torsions:
REMARK  status: ('A' for Active; 'I' for Inactive)
REMARK    1  A    between atoms: C_12  and  C_13
REMARK    2  A    between atoms: C_13  and  C_15
REMARK    3  A    between atoms: C_13  and  N_25
REMARK    4  A    between atoms: N_19  and  C_20
REMARK    5  A    between atoms: N_28  and  C_31
REMARK                            x       y       z     vdW  Elec       q    Type
REMARK                         _______ _______ _______ _____ _____    ______ ____
ROOT
ATOM      1  C   UNL     1       2.591  -0.626  -0.058  0.00  0.00    +0.162 C 
ENDROOT
BRANCH   1  13
ATOM      2  C   UNL     1       2.106  -1.824  -2.174  0.00  0.00    +0.021 A 
ATOM      3  C   UNL     1       2.504  -2.243  -3.518  0.00  0.00    +0.003 A 
ATOM      4  C   UNL     1       1.647  -3.009  -4.319  0.00  0.00    +0.059 A 
ATOM      5  C   UNL     1       2.053  -3.394  -5.577  0.00  0.00    +0.167 A 
ATOM      6  C   UNL     1       3.316  -3.024  -6.056  0.00  0.00    +0.168 A 
ATOM      7  C   UNL     1       4.167  -2.267  -5.272  0.00  0.00    +0.075 A 
ATOM      8  C   UNL     1       3.773  -1.870  -4.001  0.00  0.00    +0.053 A 
ATOM      9  N   UNL     1       4.610  -1.114  -3.205  0.00  0.00    -0.322 N 
ATOM     10  H   UNL     1       5.602  -0.818  -3.575  0.00  0.00    +0.169 HD
ATOM     11  C   UNL     1       4.231  -0.729  -1.974  0.00  0.00    +0.254 A 
ATOM     12  O   UNL     1       4.996  -0.062  -1.298  0.00  0.00    -0.268 OA
ATOM     13  C   UNL     1       2.973  -1.078  -1.443  0.00  0.00    +0.042 A 
ATOM     14  O   UNL     1       3.466  -3.529  -7.315  0.00  0.00    -0.453 OA
ATOM     15  C   UNL     1       2.461  -4.552  -7.443  0.00  0.00    +0.466 C 
ATOM     16  O   UNL     1       1.422  -4.129  -6.541  0.00  0.00    -0.453 OA
ENDBRANCH   1  13
BRANCH   1  17
ATOM     17  N   UNL     1       3.614  -1.065   0.900  0.00  0.00    -0.292 NA
ATOM     18  C   UNL     1       3.805  -2.520   0.837  0.00  0.00    +0.067 C 
ATOM     19  C   UNL     1       4.932  -2.926   1.790  0.00  0.00    -0.063 C 
ATOM     20  N   UNL     1       4.592  -2.502   3.155  0.00  0.00    +0.383 N 
ATOM     21  C   UNL     1       4.400  -1.046   3.219  0.00  0.00    -0.063 C 
ATOM     22  C   UNL     1       3.274  -0.640   2.266  0.00  0.00    +0.067 C 
ATOM     23  H   UNL     1       3.642  -2.982   3.433  0.00  0.00    -0.081 HD
BRANCH  20  24
ATOM     24  C   UNL     1       5.615  -2.941   4.113  0.00  0.00    -0.068 C 
ATOM     25  C   UNL     1       6.971  -2.355   3.715  0.00  0.00    -0.015 C 
ATOM     26  C   UNL     1       8.037  -2.812   4.713  0.00  0.00    -0.002 C 
ATOM     27  C   UNL     1       8.120  -4.340   4.707  0.00  0.00    -0.000 C 
ATOM     28  C   UNL     1       6.764  -4.926   5.105  0.00  0.00    -0.002 C 
ATOM     29  C   UNL     1       5.698  -4.468   4.107  0.00  0.00    -0.015 C 
ENDBRANCH  20  24
ENDBRANCH   1  17
BRANCH   1  30
ATOM     30  C   UNL     1       2.488   0.878  -0.030  0.00  0.00    +0.173 A 
ATOM     31  N   UNL     1       3.484   1.730  -0.030  0.00  0.00    -0.111 NA
ATOM     32  N   UNL     1       2.990   2.919  -0.003  0.00  0.00    -0.023 NA
ATOM     33  N   UNL     1       1.705   2.848   0.008  0.00  0.00    -0.044 NA
ATOM     34  N   UNL     1       1.357   1.606  -0.002  0.00  0.00    -0.224 N 
BRANCH  34  35
ATOM     35  C   UNL     1      -0.013   1.086   0.008  0.00  0.00    +0.111 C 
ATOM     36  C   UNL     1      -0.763   1.597   1.255  0.00  0.00    +0.027 C 
ATOM     37  C   UNL     1      -1.531   2.845   0.750  0.00  0.00    +0.002 C 
ATOM     38  C   UNL     1      -1.978   2.421  -0.670  0.00  0.00    +0.002 C 
ATOM     39  C   UNL     1      -0.784   1.609  -1.216  0.00  0.00    +0.027 C 
ENDBRANCH  34  35
ENDBRANCH   1  30
TORSDOF 5
