REMARK  Name = ZINC15707585
REMARK  6 active torsions:
REMARK  status: ('A' for Active; 'I' for Inactive)
REMARK    1  A    between atoms: C_1  and  S_2
REMARK    2  A    between atoms: S_2  and  N_5
REMARK    3  A    between atoms: N_5  and  C_6
REMARK    4  A    between atoms: C_15  and  C_18
REMARK    5  A    between atoms: C_18  and  C_19
REMARK    6  A    between atoms: C_19  and  C_20
REMARK                            x       y       z     vdW  Elec       q    Type
REMARK                         _______ _______ _______ _____ _____    ______ ____
ROOT
ATOM      1  C   UNL     1      -3.870   2.516   2.968  0.00  0.00    +0.059 C 
ATOM      2  C   UNL     1      -5.311   2.993   2.646  0.00  0.00    +0.012 C 
ATOM      3  C   UNL     1      -5.160   3.757   1.330  0.00  0.00    +0.021 C 
ATOM      4  C   UNL     1      -6.067   4.930   1.153  0.00  0.00    +0.200 C 
ATOM      5  O   UNL     1      -7.186   4.918   1.621  0.00  0.00    -0.278 OA
ATOM      6  N   UNL     1      -5.625   6.002   0.466  0.00  0.00    -0.318 N 
ATOM      7  C   UNL     1      -4.264   6.166  -0.025  0.00  0.00    +0.089 C 
ATOM      8  C   UNL     1      -3.442   4.875   0.105  0.00  0.00    -0.050 C 
ATOM      9  C   UNL     1      -2.987   3.123   1.841  0.00  0.00    -0.057 C 
ATOM     10  H   UNL     1      -6.258   6.714   0.287  0.00  0.00    +0.149 HD
ATOM     11  N   UNL     1      -3.828   4.273   1.421  0.00  0.00    +0.391 N 
ATOM     12  H   UNL     1      -3.780   5.005   2.140  0.00  0.00    -0.080 HD
ENDROOT
BRANCH   1  13
ATOM     13  N   UNL     1      -3.447   3.022   4.277  0.00  0.00    -0.194 NA
ATOM     14  H   UNL     1      -3.737   3.898   4.575  0.00  0.00    +0.148 HD
BRANCH  13  16
ATOM     15  C   UNL     1      -0.909   1.957   4.338  0.00  0.00    +0.214 C 
ATOM     16  S   UNL     1      -2.473   2.097   5.246  0.00  0.00    +0.027 S 
ATOM     17  O   UNL     1      -2.289   2.875   6.421  0.00  0.00    -0.158 OA
ATOM     18  O   UNL     1      -3.119   0.833   5.308  0.00  0.00    -0.158 OA
ENDBRANCH  13  16
ENDBRANCH   1  13
BRANCH   8  19
ATOM     19  C   UNL     1      -1.948   5.202   0.048  0.00  0.00    -0.005 C 
BRANCH  19  20
ATOM     20  C   UNL     1      -1.589   5.705  -1.352  0.00  0.00    +0.095 C 
BRANCH  20  21
ATOM     21  C   UNL     1      -0.100   5.916  -1.444  0.00  0.00    +0.220 C 
ATOM     22  O   UNL     1       0.605   5.686  -0.484  0.00  0.00    -0.275 OA
ATOM     23  N   UNL     1       0.449   6.360  -2.592  0.00  0.00    -0.271 N 
ATOM     24  C   UNL     1       1.879   6.602  -2.802  0.00  0.00    +0.118 C 
ATOM     25  C   UNL     1       1.996   7.093  -4.254  0.00  0.00    +0.056 C 
ATOM     26  C   UNL     1       0.575   7.092  -4.772  0.00  0.00    -0.024 A 
ATOM     27  C   UNL     1      -0.264   6.657  -3.758  0.00  0.00    +0.039 A 
ATOM     28  C   UNL     1      -1.635   6.571  -4.003  0.00  0.00    +0.024 A 
ATOM     29  C   UNL     1      -2.144   6.916  -5.238  0.00  0.00    +0.002 A 
ATOM     30  C   UNL     1      -1.298   7.348  -6.243  0.00  0.00    +0.000 A 
ATOM     31  C   UNL     1       0.061   7.436  -6.007  0.00  0.00    +0.005 A 
ENDBRANCH  20  21
ENDBRANCH  19  20
ENDBRANCH   8  19
TORSDOF 5
