REMARK  Name = ZINC12773761
REMARK  5 active torsions:
REMARK  status: ('A' for Active; 'I' for Inactive)
REMARK    1  A    between atoms: C_1  and  N_2
REMARK    2  A    between atoms: N_2  and  C_3
REMARK    3  A    between atoms: N_2  and  S_4
REMARK    4  A    between atoms: S_4  and  C_7
REMARK    5  A    between atoms: C_11  and  C_13
REMARK                            x       y       z     vdW  Elec       q    Type
REMARK                         _______ _______ _______ _____ _____    ______ ____
ROOT
ATOM      1  C   UNL     1      -0.851  -2.574   5.459  0.00  0.00    +0.251 C 
ATOM      2  O   UNL     1      -1.788  -2.590   4.684  0.00  0.00    -0.270 OA
ATOM      3  N   UNL     1       0.311  -1.993   5.100  0.00  0.00    -0.261 N 
ATOM      4  C   UNL     1       0.439  -1.413   3.845  0.00  0.00    +0.165 A 
ATOM      5  N   UNL     1       1.480  -0.804   3.316  0.00  0.00    -0.229 NA
ATOM      6  C   UNL     1       1.450  -0.277   2.087  0.00  0.00    +0.054 A 
ATOM      7  C   UNL     1       0.299  -0.448   1.412  0.00  0.00    +0.014 A 
ATOM      8  S   UNL     1      -0.734  -1.304   2.565  0.00  0.00    -0.057 S 
ATOM      9  C   UNL     1       0.002  -0.004   0.002  0.00  0.00    +0.044 C 
ATOM     10  C   UNL     1      -0.019   1.536   0.011  0.00  0.00    +0.005 C 
ATOM     11  C   UNL     1       1.391   2.078  -0.000  0.00  0.00    +0.001 C 
ATOM     12  C   UNL     1       2.182   1.932   1.274  0.00  0.00    +0.006 C 
ATOM     13  C   UNL     1       2.638   0.487   1.500  0.00  0.00    +0.056 C 
ATOM     14  H   UNL     1       1.058  -1.980   5.719  0.00  0.00    +0.157 HD
ENDROOT
BRANCH   1  19
ATOM     15  C   UNL     1      -0.049  -3.751   8.933  0.00  0.00    +0.106 A 
ATOM     16  C   UNL     1      -1.243  -4.346   9.299  0.00  0.00    +0.030 A 
ATOM     17  C   UNL     1      -2.311  -4.367   8.421  0.00  0.00    +0.022 A 
ATOM     18  C   UNL     1      -2.193  -3.789   7.172  0.00  0.00    +0.053 A 
ATOM     19  C   UNL     1      -0.988  -3.191   6.794  0.00  0.00    +0.057 A 
ATOM     20  C   UNL     1       0.086  -3.174   7.688  0.00  0.00    +0.043 A 
ATOM     21 CL   UNL     1      -3.536  -3.809   6.072  0.00  0.00    -0.083 Cl
BRANCH  15  22
ATOM     22  S   UNL     1       1.305  -3.730  10.061  0.00  0.00    +0.060 S 
ATOM     23  O   UNL     1       1.104  -4.815  10.957  0.00  0.00    -0.153 OA
ATOM     24  O   UNL     1       2.483  -3.595   9.279  0.00  0.00    -0.153 OA
BRANCH  22  26
ATOM     25  C   UNL     1       0.410  -2.353  12.211  0.00  0.00    +0.131 C 
ATOM     26  N   UNL     1       1.172  -2.345  10.959  0.00  0.00    -0.183 NA
ATOM     27  C   UNL     1       1.815  -1.111  10.502  0.00  0.00    +0.131 C 
ENDBRANCH  22  26
ENDBRANCH  15  22
ENDBRANCH   1  19
TORSDOF 3
