REMARK  Name = ZINC43222328
REMARK  6 active torsions:
REMARK  status: ('A' for Active; 'I' for Inactive)
REMARK    1  A    between atoms: C_10  and  C_11
REMARK    2  A    between atoms: C_11  and  N_12
REMARK    3  A    between atoms: C_13  and  C_15
REMARK    4  A    between atoms: C_20  and  C_22
REMARK    5  A    between atoms: N_24  and  C_25
REMARK    6  A    between atoms: C_25  and  C_26
REMARK                            x       y       z     vdW  Elec       q    Type
REMARK                         _______ _______ _______ _____ _____    ______ ____
ROOT
ATOM      1  C   UNL     1       6.702   1.792   2.949  0.00  0.00    +0.068 C 
ATOM      2  C   UNL     1       6.916   0.582   3.877  0.00  0.00    -0.069 C 
ATOM      3  N   UNL     1       8.311   0.650   4.365  0.00  0.00    +0.380 N 
ATOM      4  C   UNL     1       8.695   2.083   4.292  0.00  0.00    -0.069 C 
ATOM      5  C   UNL     1       8.044   2.560   2.968  0.00  0.00    +0.068 C 
ATOM      6  H   UNL     1       8.363   0.324   5.318  0.00  0.00    -0.086 HD
ATOM      7  H   UNL     1       8.913   0.098   3.773  0.00  0.00    -0.086 HD
ENDROOT
BRANCH   1   9
ATOM      8  N   UNL     1       5.269   0.611   1.315  0.00  0.00    -0.311 N 
ATOM      9  C   UNL     1       6.385   1.328   1.550  0.00  0.00    +0.215 C 
ATOM     10  O   UNL     1       7.135   1.601   0.637  0.00  0.00    -0.276 OA
ATOM     11  H   UNL     1       4.669   0.393   2.046  0.00  0.00    +0.149 HD
BRANCH   8  12
ATOM     12  C   UNL     1       4.960   0.161  -0.044  0.00  0.00    +0.140 C 
BRANCH  12  22
ATOM     13  C   UNL     1      -0.016   1.357   0.009  0.00  0.00    +0.001 A 
ATOM     14  C   UNL     1       1.169   2.091   0.002  0.00  0.00    +0.001 A 
ATOM     15  C   UNL     1       2.378   1.468  -0.013  0.00  0.00    +0.009 A 
ATOM     16  C   UNL     1       2.438   0.064  -0.021  0.00  0.00    -0.013 A 
ATOM     17  C   UNL     1       1.233  -0.683  -0.013  0.00  0.00    -0.018 A 
ATOM     18  C   UNL     1       0.002  -0.004   0.002  0.00  0.00    +0.008 A 
ATOM     19  C   UNL     1       1.292  -2.087  -0.022  0.00  0.00    +0.008 A 
ATOM     20  C   UNL     1       2.502  -2.709  -0.037  0.00  0.00    +0.001 A 
ATOM     21  C   UNL     1       3.687  -1.976  -0.044  0.00  0.00    +0.006 A 
ATOM     22  C   UNL     1       3.668  -0.615  -0.036  0.00  0.00    -0.023 A 
ENDBRANCH  12  22
ENDBRANCH   8  12
ENDBRANCH   1   9
BRANCH   5  23
ATOM     23  C   UNL     1       7.805   4.048   2.995  0.00  0.00    +0.215 C 
ATOM     24  O   UNL     1       6.672   4.481   2.999  0.00  0.00    -0.276 OA
ATOM     25  N   UNL     1       8.851   4.898   3.015  0.00  0.00    -0.311 N 
ATOM     26  H   UNL     1       9.757   4.552   3.012  0.00  0.00    +0.149 HD
BRANCH  25  27
ATOM     27  C   UNL     1       8.620   6.344   3.041  0.00  0.00    +0.140 C 
BRANCH  27  28
ATOM     28  C   UNL     1       9.943   7.065   3.059  0.00  0.00    -0.023 A 
ATOM     29  C   UNL     1      10.444   7.545   4.230  0.00  0.00    +0.006 A 
ATOM     30  C   UNL     1      11.666   8.213   4.267  0.00  0.00    +0.001 A 
ATOM     31  C   UNL     1      12.395   8.405   3.133  0.00  0.00    +0.008 A 
ATOM     32  C   UNL     1      11.909   7.924   1.905  0.00  0.00    -0.018 A 
ATOM     33  C   UNL     1      10.669   7.239   1.869  0.00  0.00    -0.013 A 
ATOM     34  C   UNL     1      10.186   6.753   0.641  0.00  0.00    +0.009 A 
ATOM     35  C   UNL     1      10.916   6.941  -0.491  0.00  0.00    +0.001 A 
ATOM     36  C   UNL     1      12.139   7.610  -0.455  0.00  0.00    +0.001 A 
ATOM     37  C   UNL     1      12.633   8.103   0.714  0.00  0.00    +0.008 A 
ENDBRANCH  27  28
ENDBRANCH  25  27
ENDBRANCH   5  23
TORSDOF 6
