REMARK  Name = ZINC13506078
REMARK  10 active torsions:
REMARK  status: ('A' for Active; 'I' for Inactive)
REMARK    1  A    between atoms: C_1  and  C_2
REMARK    2  A    between atoms: C_5  and  N_9
REMARK    3  A    between atoms: C_6  and  C_8
REMARK    4  A    between atoms: N_9  and  C_10
REMARK    5  A    between atoms: C_10  and  C_12
REMARK    6  A    between atoms: C_10  and  C_17
REMARK    7  A    between atoms: N_19  and  C_20
REMARK    8  A    between atoms: C_25  and  C_27
REMARK    9  A    between atoms: C_27  and  N_28
REMARK   10  A    between atoms: C_29  and  C_31
REMARK                            x       y       z     vdW  Elec       q    Type
REMARK                         _______ _______ _______ _____ _____    ______ ____
ROOT
ATOM      1  N   UNL     1      -0.665   2.164  -1.080  0.00  0.00    -0.251 N 
ATOM      2  C   UNL     1       0.024   3.047  -1.830  0.00  0.00    +0.238 C 
ATOM      3  O   UNL     1       1.213   3.200  -1.648  0.00  0.00    -0.273 OA
ENDROOT
BRANCH   1   8
ATOM      4  C   UNL     1      -6.228   1.450  -1.932  0.00  0.00    +0.044 C 
ATOM      5  C   UNL     1      -4.750   1.639  -1.705  0.00  0.00    -0.050 A 
ATOM      6  C   UNL     1      -3.842   0.837  -2.370  0.00  0.00    +0.005 A 
ATOM      7  C   UNL     1      -2.487   1.012  -2.170  0.00  0.00    +0.024 A 
ATOM      8  C   UNL     1      -2.037   1.988  -1.290  0.00  0.00    +0.041 A 
ATOM      9  C   UNL     1      -2.952   2.792  -0.623  0.00  0.00    -0.029 A 
ATOM     10  C   UNL     1      -4.306   2.615  -0.832  0.00  0.00    +0.008 A 
ATOM     11  C   UNL     1      -2.468   3.856   0.329  0.00  0.00    +0.045 C 
ENDBRANCH   1   8
BRANCH   1  12
ATOM     12  C   UNL     1       0.023   1.389  -0.044  0.00  0.00    +0.233 C 
BRANCH  12  13
ATOM     13  C   UNL     1      -0.700   1.550   1.268  0.00  0.00    +0.135 A 
ATOM     14  C   UNL     1      -0.132   1.870   2.445  0.00  0.00    +0.047 A 
ATOM     15  C   UNL     1      -1.171   1.916   3.402  0.00  0.00    +0.041 A 
ATOM     16  C   UNL     1      -2.311   1.614   2.755  0.00  0.00    +0.195 A 
ATOM     17  O   UNL     1      -2.019   1.393   1.462  0.00  0.00    -0.465 OA
ENDBRANCH  12  13
BRANCH  12  18
ATOM     18  C   UNL     1       0.038  -0.067  -0.434  0.00  0.00    +0.242 C 
ATOM     19  O   UNL     1      -0.563  -0.437  -1.420  0.00  0.00    -0.273 OA
ATOM     20  N   UNL     1       0.720  -0.958   0.314  0.00  0.00    -0.311 N 
ATOM     21  H   UNL     1       1.200  -0.662   1.103  0.00  0.00    +0.149 HD
BRANCH  20  22
ATOM     22  C   UNL     1       0.735  -2.373  -0.065  0.00  0.00    +0.073 C 
ATOM     23  C   UNL     1      -0.474  -3.100   0.561  0.00  0.00    +0.022 C 
ATOM     24  C   UNL     1       0.079  -4.496   0.942  0.00  0.00    +0.002 C 
ATOM     25  C   UNL     1       1.510  -4.173   1.440  0.00  0.00    +0.002 C 
ATOM     26  C   UNL     1       1.996  -3.055   0.494  0.00  0.00    +0.022 C 
ENDBRANCH  20  22
ENDBRANCH  12  18
ENDBRANCH   1  12
BRANCH   2  27
ATOM     27  C   UNL     1      -0.684   3.845  -2.894  0.00  0.00    +0.201 C 
BRANCH  27  28
ATOM     28  N   UNL     1       0.276   4.726  -3.564  0.00  0.00    -0.302 N 
ATOM     29  C   UNL     1      -0.135   5.538  -4.558  0.00  0.00    +0.251 C 
ATOM     30  O   UNL     1      -1.303   5.540  -4.899  0.00  0.00    -0.270 OA
ATOM     31  H   UNL     1       1.206   4.725  -3.291  0.00  0.00    +0.150 HD
BRANCH  29  32
ATOM     32  C   UNL     1       0.826   6.420  -5.227  0.00  0.00    +0.074 A 
ATOM     33  C   UNL     1       0.614   7.317  -6.263  0.00  0.00    +0.021 A 
ATOM     34  C   UNL     1       1.701   8.029  -6.706  0.00  0.00    +0.008 A 
ATOM     35  C   UNL     1       2.912   7.818  -6.127  0.00  0.00    +0.046 A 
ATOM     36  S   UNL     1       2.574   6.613  -4.927  0.00  0.00    -0.092 S 
ENDBRANCH  29  32
ENDBRANCH  27  28
ENDBRANCH   2  27
TORSDOF 8
