REMARK  Name = ZINC01373845
REMARK  8 active torsions:
REMARK  status: ('A' for Active; 'I' for Inactive)
REMARK    1  A    between atoms: C_4  and  C_7
REMARK    2  A    between atoms: C_7  and  N_8
REMARK    3  A    between atoms: C_9  and  C_13
REMARK    4  A    between atoms: C_13  and  N_14
REMARK    5  A    between atoms: N_14  and  C_15
REMARK    6  A    between atoms: N_14  and  C_25
REMARK    7  A    between atoms: C_15  and  C_16
REMARK    8  A    between atoms: C_25  and  C_26
REMARK                            x       y       z     vdW  Elec       q    Type
REMARK                         _______ _______ _______ _____ _____    ______ ____
ROOT
ATOM      1  N   UNL     1       4.487   2.662   2.036  0.00  0.00    -0.287 NA
ENDROOT
BRANCH   1   2
ATOM      2  C   UNL     1       5.494   1.598   1.928  0.00  0.00    +0.163 C 
BRANCH   2   4
ATOM      3  N   UNL     1       5.527  -0.822   2.733  0.00  0.00    -0.224 N 
ATOM      4  C   UNL     1       5.118   0.457   2.837  0.00  0.00    +0.166 A 
ATOM      5  N   UNL     1       4.331   0.516   3.884  0.00  0.00    -0.112 NA
ATOM      6  N   UNL     1       4.259  -0.665   4.395  0.00  0.00    -0.023 NA
ATOM      7  N   UNL     1       4.976  -1.476   3.699  0.00  0.00    -0.044 NA
BRANCH   3   8
ATOM      8  C   UNL     1       6.422  -1.368   1.711  0.00  0.00    +0.182 C 
BRANCH   8  12
ATOM      9  C   UNL     1       4.121  -2.743  -1.615  0.00  0.00    +0.000 A 
ATOM     10  C   UNL     1       4.608  -1.449  -1.599  0.00  0.00    +0.000 A 
ATOM     11  C   UNL     1       5.353  -1.004  -0.523  0.00  0.00    +0.005 A 
ATOM     12  C   UNL     1       5.610  -1.853   0.538  0.00  0.00    -0.026 A 
ATOM     13  C   UNL     1       5.122  -3.146   0.522  0.00  0.00    +0.005 A 
ATOM     14  C   UNL     1       4.378  -3.591  -0.555  0.00  0.00    +0.000 A 
ENDBRANCH   8  12
ENDBRANCH   3   8
ENDBRANCH   2   4
ENDBRANCH   1   2
BRANCH   1  15
ATOM     15  C   UNL     1       3.276   2.320   1.277  0.00  0.00    +0.120 C 
BRANCH  15  16
ATOM     16  C   UNL     1       2.475   1.299   2.043  0.00  0.00    -0.030 A 
ATOM     17  C   UNL     1       2.602  -0.044   1.742  0.00  0.00    +0.009 A 
ATOM     18  C   UNL     1       1.870  -0.985   2.442  0.00  0.00    +0.050 A 
ATOM     19  C   UNL     1       1.005  -0.583   3.447  0.00  0.00    +0.166 A 
ATOM     20  C   UNL     1       0.876   0.771   3.750  0.00  0.00    +0.167 A 
ATOM     21  C   UNL     1       1.618   1.707   3.048  0.00  0.00    +0.054 A 
ATOM     22  O   UNL     1      -0.026   0.907   4.764  0.00  0.00    -0.453 OA
ATOM     23  C   UNL     1      -0.752  -0.336   4.803  0.00  0.00    +0.466 C 
ATOM     24  O   UNL     1       0.183  -1.294   4.272  0.00  0.00    -0.453 OA
ENDBRANCH  15  16
ENDBRANCH   1  15
BRANCH   1  25
ATOM     25  C   UNL     1       5.035   3.953   1.599  0.00  0.00    +0.125 C 
BRANCH  25  26
ATOM     26  C   UNL     1       4.146   5.068   2.087  0.00  0.00    +0.031 A 
ATOM     27  C   UNL     1       4.420   5.683   3.266  0.00  0.00    +0.020 A 
ATOM     28  C   UNL     1       3.539   6.762   3.712  0.00  0.00    +0.003 A 
ATOM     29  C   UNL     1       3.771   7.431   4.920  0.00  0.00    +0.059 A 
ATOM     30  C   UNL     1       2.924   8.446   5.314  0.00  0.00    +0.163 A 
ATOM     31  C   UNL     1       1.837   8.807   4.513  0.00  0.00    +0.164 A 
ATOM     32  C   UNL     1       1.599   8.149   3.319  0.00  0.00    +0.075 A 
ATOM     33  C   UNL     1       2.442   7.125   2.907  0.00  0.00    +0.053 A 
ATOM     34  N   UNL     1       2.219   6.458   1.719  0.00  0.00    -0.322 N 
ATOM     35  H   UNL     1       1.463   6.708   1.166  0.00  0.00    +0.169 HD
ATOM     36  C   UNL     1       3.038   5.471   1.316  0.00  0.00    +0.254 A 
ATOM     37  O   UNL     1       2.813   4.908   0.258  0.00  0.00    -0.268 OA
ATOM     38  O   UNL     1       1.002   9.812   4.892  0.00  0.00    -0.485 OA
ATOM     39  C   UNL     1       1.045  10.202   6.268  0.00  0.00    +0.270 C 
ATOM     40  C   UNL     1       2.516  10.349   6.681  0.00  0.00    +0.270 C 
ATOM     41  O   UNL     1       3.162   9.085   6.493  0.00  0.00    -0.485 OA
ENDBRANCH  25  26
ENDBRANCH   1  25
TORSDOF 8
