REMARK  Name = ZINC13298255
REMARK  12 active torsions:
REMARK  status: ('A' for Active; 'I' for Inactive)
REMARK    1  A    between atoms: C_1  and  C_2
REMARK    2  A    between atoms: C_2  and  O_4
REMARK    3  A    between atoms: O_4  and  C_5
REMARK    4  A    between atoms: C_8  and  O_40
REMARK    5  A    between atoms: C_10  and  C_38
REMARK    6  A    between atoms: C_10  and  C_39
REMARK    7  A    between atoms: C_13  and  C_37
REMARK    8  A    between atoms: C_18  and  C_36
REMARK    9  A    between atoms: C_19  and  C_33
REMARK   10  A    between atoms: C_27  and  C_31
REMARK   11  A    between atoms: O_40  and  C_41
REMARK   12  A    between atoms: C_41  and  C_43
REMARK                            x       y       z     vdW  Elec       q    Type
REMARK                         _______ _______ _______ _____ _____    ______ ____
ROOT
ATOM      1  C   UNL     1      -0.706  -2.091  -2.643  0.00  0.00    +0.186 C 
ATOM      2  C   UNL     1      -1.993  -2.497  -3.364  0.00  0.00    +0.090 C 
ATOM      3  C   UNL     1      -2.045  -1.862  -4.744  0.00  0.00    +0.186 C 
ATOM      4  C   UNL     1      -0.774  -2.014  -5.563  0.00  0.00    +0.006 C 
ATOM      5  C   UNL     1       0.520  -1.952  -4.775  0.00  0.00    +0.015 C 
ATOM      6  C   UNL     1       0.494  -2.651  -3.427  0.00  0.00    +0.013 C 
ATOM      7  C   UNL     1       1.787  -2.406  -2.634  0.00  0.00    +0.015 C 
ATOM      8  C   UNL     1       1.731  -1.004  -2.036  0.00  0.00    +0.006 C 
ATOM      9  C   UNL     1       2.983  -0.650  -1.247  0.00  0.00    +0.014 C 
ATOM     10  C   UNL     1       4.208  -0.686  -2.170  0.00  0.00    +0.049 C 
ATOM     11  C   UNL     1       5.420  -0.266  -1.350  0.00  0.00    +0.297 C 
ATOM     12  O   UNL     1       5.886  -1.268  -0.473  0.00  0.00    -0.447 OA
ATOM     13  C   UNL     1       6.171  -2.477  -0.960  0.00  0.00    +0.340 C 
ATOM     14  O   UNL     1       7.102  -3.117  -0.528  0.00  0.00    -0.248 OA
ATOM     15  C   UNL     1       5.300  -3.044  -2.066  0.00  0.00    +0.260 C 
ATOM     16  C   UNL     1       4.316  -2.091  -2.745  0.00  0.00    +0.129 C 
ATOM     17  C   UNL     1       3.059  -2.676  -3.410  0.00  0.00    +0.062 C 
ATOM     18  C   UNL     1       2.968  -2.174  -4.832  0.00  0.00    +0.143 C 
ATOM     19  O   UNL     1       3.888  -1.599  -5.365  0.00  0.00    -0.297 OA
ATOM     20  C   UNL     1       1.699  -2.451  -5.614  0.00  0.00    +0.079 C 
ATOM     21  C   UNL     1       3.294  -4.203  -3.513  0.00  0.00    +0.022 C 
ATOM     22  O   UNL     1       5.551  -2.483  -3.363  0.00  0.00    -0.351 OA
ATOM     23  C   UNL     1       4.031   0.345  -3.284  0.00  0.00    +0.018 C 
ATOM     24  C   UNL     1       0.269  -4.161  -3.572  0.00  0.00    +0.015 C 
ATOM     25  C   UNL     1      -0.758  -0.828  -6.565  0.00  0.00    +0.015 C 
ATOM     26  C   UNL     1      -0.871  -3.289  -6.410  0.00  0.00    +0.015 C 
ENDROOT
BRANCH  11  27
ATOM     27  C   UNL     1       6.529   0.162  -2.273  0.00  0.00    +0.396 C 
ATOM     28  O   UNL     1       6.391   1.148  -2.977  0.00  0.00    -0.242 OA
ATOM     29  O   UNL     1       7.566  -0.478  -2.318  0.00  0.00    -0.242 OA
ENDBRANCH  11  27
BRANCH   1  30
ATOM     30  O   UNL     1      -0.670  -0.660  -2.629  0.00  0.00    -0.461 OA
BRANCH  30  32
ATOM     31  C   UNL     1      -1.239   1.458  -1.495  0.00  0.00    +0.136 C 
ATOM     32  C   UNL     1      -1.238  -0.047  -1.579  0.00  0.00    +0.304 C 
ATOM     33  O   UNL     1      -1.749  -0.701  -0.701  0.00  0.00    -0.251 OA
ENDBRANCH  30  32
ENDBRANCH   1  30
BRANCH   3  34
ATOM     34  O   UNL     1      -2.380  -0.472  -4.630  0.00  0.00    -0.461 OA
BRANCH  34  35
ATOM     35  C   UNL     1      -3.684  -0.155  -4.664  0.00  0.00    +0.304 C 
ATOM     36  O   UNL     1      -4.514  -1.024  -4.786  0.00  0.00    -0.251 OA
ATOM     37  C   UNL     1      -4.112   1.286  -4.551  0.00  0.00    +0.136 C 
ENDBRANCH  34  35
ENDBRANCH   3  34
TORSDOF 5
