REMARK  Name = ZINC08793018
REMARK  17 active torsions:
REMARK  status: ('A' for Active; 'I' for Inactive)
REMARK    1  A    between atoms: C_1  and  C_2
REMARK    2  A    between atoms: C_2  and  N_68
REMARK    3  A    between atoms: C_8  and  N_15
REMARK    4  A    between atoms: C_9  and  C_10
REMARK    5  A    between atoms: C_10  and  O_12
REMARK    6  A    between atoms: O_12  and  C_13
REMARK    7  A    between atoms: C_13  and  C_14
REMARK    8  A    between atoms: C_16  and  C_18
REMARK    9  A    between atoms: C_20  and  O_30
REMARK   10  A    between atoms: C_21  and  O_27
REMARK   11  A    between atoms: C_22  and  O_24
REMARK   12  A    between atoms: O_24  and  C_25
REMARK   13  A    between atoms: C_25  and  C_26
REMARK   14  A    between atoms: O_27  and  C_28
REMARK   15  A    between atoms: C_28  and  C_29
REMARK   16  A    between atoms: O_30  and  C_31
REMARK   17  A    between atoms: C_31  and  C_32
REMARK                            x       y       z     vdW  Elec       q    Type
REMARK                         _______ _______ _______ _____ _____    ______ ____
ROOT
ATOM      1  N   UNL     1       2.423  -2.816  -0.036  0.00  0.00    -0.275 N 
ATOM      2  C   UNL     1       1.245  -2.160  -0.021  0.00  0.00    +0.249 C 
ATOM      3  O   UNL     1       0.202  -2.785  -0.014  0.00  0.00    -0.270 OA
ATOM      4  H   UNL     1       3.255  -2.318  -0.041  0.00  0.00    +0.156 HD
ENDROOT
BRANCH   1  10
ATOM      5  C   UNL     1       3.743  -8.871   0.363  0.00  0.00    -0.074 C 
ATOM      6  C   UNL     1       4.376  -7.547  -0.076  0.00  0.00    +0.018 C 
ATOM      7  C   UNL     1       3.292  -6.475  -0.062  0.00  0.00    -0.025 A 
ATOM      8  C   UNL     1       1.988  -6.830  -0.052  0.00  0.00    -0.021 A 
ATOM      9  S   UNL     1       1.103  -5.298  -0.028  0.00  0.00    -0.079 S 
ATOM     10  C   UNL     1       2.444  -4.200  -0.043  0.00  0.00    +0.086 A 
ATOM     11  C   UNL     1       3.547  -5.047  -0.058  0.00  0.00    +0.091 A 
ATOM     12  C   UNL     1       1.446  -8.225  -0.056  0.00  0.00    -0.035 C 
ATOM     13  N   UNL     1       2.544  -9.137  -0.458  0.00  0.00    +0.383 N 
ATOM     14  H   UNL     1       2.772  -8.971  -1.446  0.00  0.00    -0.081 HD
BRANCH  13  16
ATOM     15  C   UNL     1       0.738 -10.729  -0.924  0.00  0.00    -0.017 C 
ATOM     16  C   UNL     1       2.120 -10.544  -0.293  0.00  0.00    -0.082 C 
ENDBRANCH  13  16
BRANCH  11  17
ATOM     17  C   UNL     1       4.912  -4.518  -0.068  0.00  0.00    +0.342 C 
ATOM     18  O   UNL     1       5.489  -4.303   0.981  0.00  0.00    -0.245 OA
BRANCH  17  19
ATOM     19  O   UNL     1       5.530  -4.268  -1.241  0.00  0.00    -0.461 OA
BRANCH  19  20
ATOM     20  C   UNL     1       6.883  -3.744  -1.175  0.00  0.00    +0.229 C 
ATOM     21  C   UNL     1       7.415  -3.526  -2.593  0.00  0.00    +0.048 C 
ENDBRANCH  19  20
ENDBRANCH  17  19
ENDBRANCH  11  17
ENDBRANCH   1  10
BRANCH   2  22
ATOM     22  C   UNL     1       1.222  -0.685  -0.013  0.00  0.00    +0.044 A 
ATOM     23  C   UNL     1       0.002  -0.004   0.002  0.00  0.00    +0.062 A 
ATOM     24  C   UNL     1      -0.017   1.378   0.010  0.00  0.00    +0.166 A 
ATOM     25  C   UNL     1       1.179   2.092   0.002  0.00  0.00    +0.204 A 
ATOM     26  C   UNL     1       2.396   1.416  -0.013  0.00  0.00    +0.166 A 
ATOM     27  C   UNL     1       2.420   0.034  -0.021  0.00  0.00    +0.062 A 
BRANCH  26  28
ATOM     28  O   UNL     1       3.562   2.116  -0.021  0.00  0.00    -0.488 OA
BRANCH  28  29
ATOM     29  C   UNL     1       4.774   1.359  -0.036  0.00  0.00    +0.226 C 
ATOM     30  C   UNL     1       5.971   2.311  -0.042  0.00  0.00    +0.048 C 
ENDBRANCH  28  29
ENDBRANCH  26  28
BRANCH  25  31
ATOM     31  O   UNL     1       1.158   3.450   0.009  0.00  0.00    -0.485 OA
BRANCH  31  32
ATOM     32  C   UNL     1       1.160   4.092   1.286  0.00  0.00    +0.226 C 
ATOM     33  C   UNL     1       1.134   5.610   1.094  0.00  0.00    +0.048 C 
ENDBRANCH  31  32
ENDBRANCH  25  31
BRANCH  24  34
ATOM     34  O   UNL     1      -1.204   2.041   0.019  0.00  0.00    -0.488 OA
BRANCH  34  35
ATOM     35  C   UNL     1      -2.391   1.246   0.020  0.00  0.00    +0.226 C 
ATOM     36  C   UNL     1      -3.618   2.161   0.031  0.00  0.00    +0.048 C 
ENDBRANCH  34  35
ENDBRANCH  24  34
ENDBRANCH   2  22
TORSDOF 12
