REMARK  Name = ZINC21444007
REMARK  8 active torsions:
REMARK  status: ('A' for Active; 'I' for Inactive)
REMARK    1  A    between atoms: C_1  and  C_2
REMARK    2  A    between atoms: C_7  and  C_14
REMARK    3  A    between atoms: C_11  and  C_12
REMARK    4  A    between atoms: C_14  and  O_15
REMARK    5  A    between atoms: O_15  and  C_16
REMARK    6  A    between atoms: C_16  and  C_18
REMARK    7  A    between atoms: C_18  and  N_19
REMARK    8  A    between atoms: C_28  and  C_30
REMARK                            x       y       z     vdW  Elec       q    Type
REMARK                         _______ _______ _______ _____ _____    ______ ____
ROOT
ATOM      1  C   UNL     1       2.675  -3.971  -1.150  0.00  0.00    +0.329 C 
ATOM      2  O   UNL     1       1.708  -4.695  -1.178  0.00  0.00    -0.249 OA
ENDROOT
BRANCH   1   3
ATOM      3  O   UNL     1       2.523  -2.657  -0.919  0.00  0.00    -0.458 OA
BRANCH   3   4
ATOM      4  C   UNL     1       1.169  -2.176  -0.712  0.00  0.00    +0.270 C 
BRANCH   4  11
ATOM      5  C   UNL     1       2.233   5.588   0.466  0.00  0.00    +0.044 C 
ATOM      6  C   UNL     1       2.264   4.101   0.218  0.00  0.00    -0.045 A 
ATOM      7  C   UNL     1       3.486   3.469  -0.002  0.00  0.00    +0.004 A 
ATOM      8  C   UNL     1       3.547   2.127  -0.227  0.00  0.00    +0.010 A 
ATOM      9  C   UNL     1       2.364   1.371  -0.240  0.00  0.00    +0.001 A 
ATOM     10  C   UNL     1       2.384  -0.018  -0.471  0.00  0.00    +0.020 A 
ATOM     11  C   UNL     1       1.196  -0.689  -0.469  0.00  0.00    +0.027 A 
ATOM     12  C   UNL     1       0.006   0.003  -0.242  0.00  0.00    +0.136 A 
ATOM     13  N   UNL     1      -0.009   1.297  -0.028  0.00  0.00    -0.235 NA
ATOM     14  C   UNL     1       1.121   2.013  -0.017  0.00  0.00    +0.076 A 
ATOM     15  C   UNL     1       1.098   3.399   0.213  0.00  0.00    -0.022 A 
ATOM     16  C   UNL     1      -0.211   4.105   0.454  0.00  0.00    +0.046 C 
ATOM     17 CL   UNL     1      -1.494  -0.871  -0.245  0.00  0.00    -0.062 Cl
ENDBRANCH   4  11
ENDBRANCH   3   4
ENDBRANCH   1   3
BRANCH   1  18
ATOM     18  C   UNL     1       4.051  -4.543  -1.375  0.00  0.00    +0.267 C 
BRANCH  18  19
ATOM     19  N   UNL     1       3.948  -5.986  -1.603  0.00  0.00    -0.217 N 
ATOM     20  C   UNL     1       3.788  -6.423  -2.869  0.00  0.00    +0.276 A 
ATOM     21  O   UNL     1       3.729  -5.636  -3.797  0.00  0.00    -0.266 OA
ATOM     22  C   UNL     1       3.690  -7.870  -3.104  0.00  0.00    +0.050 A 
ATOM     23  C   UNL     1       3.528  -8.421  -4.371  0.00  0.00    +0.014 A 
ATOM     24  C   UNL     1       3.439  -9.790  -4.506  0.00  0.00    +0.001 A 
ATOM     25  C   UNL     1       3.510 -10.619  -3.394  0.00  0.00    +0.001 A 
ATOM     26  C   UNL     1       3.669 -10.092  -2.130  0.00  0.00    +0.011 A 
ATOM     27  C   UNL     1       3.761  -8.714  -1.971  0.00  0.00    +0.020 A 
ATOM     28  C   UNL     1       3.933  -8.072  -0.658  0.00  0.00    +0.153 A 
ATOM     29  N   UNL     1       4.011  -6.765  -0.590  0.00  0.00    -0.162 NA
BRANCH  28  30
ATOM     30  C   UNL     1       4.016  -8.890   0.568  0.00  0.00    +0.262 C 
ATOM     31  O   UNL     1       3.943 -10.101   0.497  0.00  0.00    -0.269 OA
ATOM     32  N   UNL     1       4.173  -8.294   1.766  0.00  0.00    -0.324 N 
ATOM     33  H   UNL     1       4.236  -8.903   2.680  0.00  0.00    +0.145 HD
ATOM     34  H   UNL     1       4.240  -7.198   1.831  0.00  0.00    +0.145 HD
ENDBRANCH  28  30
ENDBRANCH  18  19
ENDBRANCH   1  18
TORSDOF 6
