REMARK  Name = ZINC40016871
REMARK  11 active torsions:
REMARK  status: ('A' for Active; 'I' for Inactive)
REMARK    1  A    between atoms: C_1  and  C_2
REMARK    2  A    between atoms: C_2  and  O_3
REMARK    3  A    between atoms: O_3  and  C_4
REMARK    4  A    between atoms: C_8  and  C_10
REMARK    5  A    between atoms: C_12  and  C_34
REMARK    6  A    between atoms: C_13  and  C_33
REMARK    7  A    between atoms: C_20  and  C_21
REMARK    8  A    between atoms: C_28  and  C_31
REMARK    9  A    between atoms: C_34  and  O_36
REMARK   10  A    between atoms: O_36  and  C_37
REMARK   11  A    between atoms: C_37  and  C_38
REMARK                            x       y       z     vdW  Elec       q    Type
REMARK                         _______ _______ _______ _____ _____    ______ ____
ROOT
ATOM      1  C   UNL     1      -3.861  -4.901  -0.076  0.00  0.00    +0.162 C 
ATOM      2  C   UNL     1      -4.240  -5.391  -1.455  0.00  0.00    +0.085 C 
ATOM      3  C   UNL     1      -4.773  -6.644  -1.568  0.00  0.00    +0.053 C 
ATOM      4  N   UNL     1      -4.950  -7.402  -0.493  0.00  0.00    -0.228 NA
ATOM      5  C   UNL     1      -4.647  -7.046   0.730  0.00  0.00    +0.178 A 
ATOM      6  N   UNL     1      -4.099  -5.830   1.064  0.00  0.00    -0.275 N 
ATOM      7  C   UNL     1      -3.831  -5.580   2.352  0.00  0.00    +0.268 A 
ATOM      8  O   UNL     1      -3.347  -4.517   2.696  0.00  0.00    -0.266 OA
ATOM      9  C   UNL     1      -4.138  -6.626   3.337  0.00  0.00    +0.081 A 
ATOM     10  C   UNL     1      -3.963  -6.622   4.684  0.00  0.00    +0.028 C 
ATOM     11  S   UNL     1      -4.805  -7.903   2.284  0.00  0.00    -0.046 S 
ATOM     12  C   UNL     1      -5.164  -7.170  -2.925  0.00  0.00    +0.066 C 
ENDROOT
BRANCH  10  13
ATOM     13  C   UNL     1      -4.209  -7.843   5.460  0.00  0.00    -0.023 A 
ATOM     14  C   UNL     1      -4.453  -7.769   6.837  0.00  0.00    +0.011 A 
ATOM     15  C   UNL     1      -4.687  -8.914   7.560  0.00  0.00    +0.046 A 
ATOM     16  C   UNL     1      -4.683 -10.161   6.932  0.00  0.00    +0.124 A 
ATOM     17  C   UNL     1      -4.432 -10.231   5.564  0.00  0.00    -0.002 A 
ATOM     18  C   UNL     1      -4.208  -9.094   4.828  0.00  0.00    +0.015 A 
ATOM     19  C   UNL     1      -4.469 -11.698   5.181  0.00  0.00    +0.083 C 
ATOM     20  C   UNL     1      -4.371 -12.391   6.561  0.00  0.00    +0.175 C 
ATOM     21  O   UNL     1      -4.901 -11.398   7.455  0.00  0.00    -0.488 OA
ATOM     22  C   UNL     1      -2.914 -12.712   6.904  0.00  0.00    +0.052 C 
ENDBRANCH  10  13
BRANCH   1  27
ATOM     23  C   UNL     1      -0.645  -2.932  -0.315  0.00  0.00    +0.121 A 
ATOM     24  C   UNL     1       0.302  -3.929  -0.126  0.00  0.00    +0.045 A 
ATOM     25  C   UNL     1      -0.102  -5.234   0.079  0.00  0.00    +0.004 A 
ATOM     26  C   UNL     1      -1.449  -5.547   0.095  0.00  0.00    +0.006 A 
ATOM     27  C   UNL     1      -2.394  -4.556  -0.094  0.00  0.00    -0.016 A 
ATOM     28  C   UNL     1      -1.995  -3.248  -0.293  0.00  0.00    +0.051 A 
BRANCH  23  29
ATOM     29  O   UNL     1      -0.250  -1.647  -0.516  0.00  0.00    -0.492 OA
BRANCH  29  31
ATOM     30  C   UNL     1       1.406   0.096  -0.763  0.00  0.00    +0.048 C 
ATOM     31  C   UNL     1       1.157  -1.395  -0.526  0.00  0.00    +0.225 C 
ENDBRANCH  29  31
ENDBRANCH  23  29
ENDBRANCH   1  27
BRANCH   2  32
ATOM     32  C   UNL     1      -4.050  -4.582  -2.587  0.00  0.00    +0.340 C 
ATOM     33  O   UNL     1      -4.233  -5.039  -3.701  0.00  0.00    -0.245 OA
BRANCH  32  34
ATOM     34  O   UNL     1      -3.664  -3.295  -2.441  0.00  0.00    -0.457 OA
BRANCH  34  35
ATOM     35  C   UNL     1      -3.490  -2.530  -3.635  0.00  0.00    +0.259 C 
BRANCH  35  36
ATOM     36  C   UNL     1      -3.061  -1.131  -3.277  0.00  0.00    +0.006 C 
ATOM     37  C   UNL     1      -2.083  -0.557  -3.933  0.00  0.00    +0.007 C 
ENDBRANCH  35  36
ENDBRANCH  34  35
ENDBRANCH  32  34
ENDBRANCH   2  32
TORSDOF 8
