REMARK  Name = ZINC39549876
REMARK  10 active torsions:
REMARK  status: ('A' for Active; 'I' for Inactive)
REMARK    1  A    between atoms: C_1  and  C_2
REMARK    2  A    between atoms: C_5  and  C_8
REMARK    3  A    between atoms: C_10  and  N_19
REMARK    4  A    between atoms: N_11  and  C_13
REMARK    5  A    between atoms: C_20  and  C_22
REMARK    6  A    between atoms: C_22  and  O_23
REMARK    7  A    between atoms: O_23  and  C_24
REMARK    8  A    between atoms: C_24  and  C_26
REMARK    9  A    between atoms: C_35  and  N_38
REMARK   10  A    between atoms: C_39  and  C_41
REMARK                            x       y       z     vdW  Elec       q    Type
REMARK                         _______ _______ _______ _____ _____    ______ ____
ROOT
ATOM      1  N   UNL     1       0.105  -7.513   1.494  0.00  0.00    -0.267 N 
ATOM      2  C   UNL     1       0.103  -7.385   2.836  0.00  0.00    +0.256 C 
ATOM      3  O   UNL     1       0.087  -6.282   3.340  0.00  0.00    -0.272 OA
ATOM      4  H   UNL     1       0.117  -8.395   1.091  0.00  0.00    +0.156 HD
ENDROOT
BRANCH   1   7
ATOM      5  C   UNL     1       0.061  -4.256  -0.021  0.00  0.00    +0.095 A 
ATOM      6  C   UNL     1       0.072  -5.088   1.114  0.00  0.00    +0.074 A 
ATOM      7  C   UNL     1       0.089  -6.377   0.685  0.00  0.00    +0.129 A 
ATOM      8  N   UNL     1       0.089  -6.359  -0.676  0.00  0.00    -0.218 N 
ATOM      9  N   UNL     1       0.065  -5.022  -1.092  0.00  0.00    -0.165 NA
BRANCH   5  14
ATOM     10  C   UNL     1      -0.018   1.503   0.010  0.00  0.00    +0.044 C 
ATOM     11  C   UNL     1       0.002  -0.004   0.002  0.00  0.00    -0.050 A 
ATOM     12  C   UNL     1       0.006  -0.686  -1.201  0.00  0.00    +0.004 A 
ATOM     13  C   UNL     1       0.025  -2.067  -1.215  0.00  0.00    +0.010 A 
ATOM     14  C   UNL     1       0.041  -2.772  -0.013  0.00  0.00    +0.002 A 
ATOM     15  C   UNL     1       0.037  -2.080   1.196  0.00  0.00    +0.010 A 
ATOM     16  C   UNL     1       0.023  -0.700   1.198  0.00  0.00    +0.004 A 
ENDBRANCH   5  14
BRANCH   8  17
ATOM     17  C   UNL     1       0.104  -7.482  -1.514  0.00  0.00    +0.067 A 
ATOM     18  C   UNL     1       0.804  -8.621  -1.139  0.00  0.00    +0.028 A 
ATOM     19  C   UNL     1       0.817  -9.726  -1.967  0.00  0.00    +0.002 A 
ATOM     20  C   UNL     1       0.134  -9.700  -3.169  0.00  0.00    +0.000 A 
ATOM     21  C   UNL     1      -0.564  -8.567  -3.546  0.00  0.00    +0.002 A 
ATOM     22  C   UNL     1      -0.586  -7.460  -2.719  0.00  0.00    +0.028 A 
ENDBRANCH   8  17
ENDBRANCH   1   7
BRANCH   2  23
ATOM     23  C   UNL     1       0.120  -8.613   3.709  0.00  0.00    +0.328 C 
BRANCH  23  24
ATOM     24  O   UNL     1       0.114  -8.220   5.083  0.00  0.00    -0.455 OA
BRANCH  24  25
ATOM     25  C   UNL     1       0.127  -9.202   5.998  0.00  0.00    +0.314 C 
ATOM     26  O   UNL     1       0.143 -10.357   5.644  0.00  0.00    -0.250 OA
BRANCH  25  27
ATOM     27  C   UNL     1       0.122  -8.864   7.467  0.00  0.00    +0.070 C 
ATOM     28  C   UNL     1       1.360  -8.030   7.802  0.00  0.00    +0.021 C 
ATOM     29  C   UNL     1       1.355  -7.687   9.293  0.00  0.00    -0.008 C 
ATOM     30  C   UNL     1       0.094  -6.887   9.628  0.00  0.00    +0.007 C 
ATOM     31  C   UNL     1      -1.143  -7.721   9.293  0.00  0.00    -0.008 C 
ATOM     32  C   UNL     1      -1.138  -8.064   7.801  0.00  0.00    +0.021 C 
ATOM     33  C   UNL     1      -1.126  -9.012  10.113  0.00  0.00    +0.029 C 
ATOM     34  C   UNL     1       0.135  -9.812   9.778  0.00  0.00    +0.036 C 
ATOM     35  C   UNL     1       1.373  -8.978  10.114  0.00  0.00    +0.029 C 
ATOM     36  C   UNL     1       0.140 -10.155   8.287  0.00  0.00    +0.043 C 
BRANCH  34  37
ATOM     37  N   UNL     1       0.152 -11.049  10.564  0.00  0.00    -0.310 N 
ATOM     38  C   UNL     1       0.150 -10.992  11.910  0.00  0.00    +0.210 C 
ATOM     39  O   UNL     1       0.136  -9.916  12.472  0.00  0.00    -0.276 OA
ATOM     40  C   UNL     1       0.168 -12.263  12.719  0.00  0.00    +0.109 C 
ATOM     41  H   UNL     1       0.164 -11.909  10.115  0.00  0.00    +0.149 HD
ENDBRANCH  34  37
ENDBRANCH  25  27
ENDBRANCH  24  25
ENDBRANCH  23  24
ENDBRANCH   2  23
TORSDOF 8
