REMARK  Name = ZINC35664417
REMARK  12 active torsions:
REMARK  status: ('A' for Active; 'I' for Inactive)
REMARK    1  A    between atoms: C_1  and  C_2
REMARK    2  A    between atoms: C_2  and  O_3
REMARK    3  A    between atoms: O_3  and  C_4
REMARK    4  A    between atoms: C_4  and  C_6
REMARK    5  A    between atoms: C_7  and  C_22
REMARK    6  A    between atoms: N_8  and  C_19
REMARK    7  A    between atoms: C_12  and  C_14
REMARK    8  A    between atoms: C_19  and  C_20
REMARK    9  A    between atoms: C_22  and  N_23
REMARK   10  A    between atoms: C_29  and  C_31
REMARK   11  A    between atoms: C_35  and  O_37
REMARK   12  A    between atoms: O_37  and  C_38
REMARK                            x       y       z     vdW  Elec       q    Type
REMARK                         _______ _______ _______ _____ _____    ______ ____
ROOT
ATOM      1  C   UNL     1       1.729  -2.683   1.997  0.00  0.00    +0.080 C 
ATOM      2  C   UNL     1       1.536  -3.967   2.369  0.00  0.00    +0.041 C 
ATOM      3  N   UNL     1       2.056  -4.449   3.536  0.00  0.00    -0.254 N 
ATOM      4  C   UNL     1       2.782  -3.711   4.386  0.00  0.00    +0.307 C 
ATOM      5  O   UNL     1       3.204  -4.229   5.402  0.00  0.00    -0.252 OA
ATOM      6  N   UNL     1       3.059  -2.413   4.152  0.00  0.00    -0.288 N 
ATOM      7  C   UNL     1       2.548  -1.799   2.916  0.00  0.00    +0.144 C 
ATOM      8  H   UNL     1       3.587  -1.897   4.782  0.00  0.00    +0.151 HD
ENDROOT
BRANCH   7   9
ATOM      9  C   UNL     1       1.695  -0.619   3.307  0.00  0.00    -0.015 A 
ATOM     10  C   UNL     1       1.848   0.599   2.671  0.00  0.00    +0.013 A 
ATOM     11  C   UNL     1       1.065   1.639   3.047  0.00  0.00    +0.045 A 
ATOM     12  S   UNL     1       0.072   0.907   4.337  0.00  0.00    -0.105 S 
ATOM     13  C   UNL     1       0.763  -0.738   4.284  0.00  0.00    +0.051 A 
ENDBRANCH   7   9
BRANCH   1  14
ATOM     14  C   UNL     1       1.191  -2.182   0.789  0.00  0.00    +0.339 C 
ATOM     15  O   UNL     1       0.627  -2.935   0.016  0.00  0.00    -0.245 OA
BRANCH  14  16
ATOM     16  O   UNL     1       1.302  -0.871   0.493  0.00  0.00    -0.462 OA
BRANCH  16  18
ATOM     17  C   UNL     1       0.958   1.071  -0.904  0.00  0.00    +0.048 C 
ATOM     18  C   UNL     1       0.735  -0.434  -0.744  0.00  0.00    +0.229 C 
ENDBRANCH  16  18
ENDBRANCH  14  16
ENDBRANCH   1  14
BRANCH   3  19
ATOM     19  C   UNL     1       1.807  -5.852   3.877  0.00  0.00    +0.141 C 
BRANCH  19  20
ATOM     20  C   UNL     1       2.964  -6.696   3.409  0.00  0.00    -0.015 C 
ATOM     21  C   UNL     1       3.634  -7.424   4.268  0.00  0.00    +0.005 C 
ENDBRANCH  19  20
ENDBRANCH   3  19
BRANCH   2  22
ATOM     22  C   UNL     1       0.731  -4.882   1.482  0.00  0.00    +0.136 C 
BRANCH  22  23
ATOM     23  N   UNL     1      -0.676  -4.859   1.902  0.00  0.00    -0.294 NA
ATOM     24  C   UNL     1      -1.302  -3.570   1.576  0.00  0.00    +0.104 C 
ATOM     25  C   UNL     1      -2.705  -3.518   2.188  0.00  0.00    +0.123 C 
ATOM     26  N   UNL     1      -3.454  -4.703   1.742  0.00  0.00    -0.295 N 
ATOM     27  C   UNL     1      -2.830  -6.024   1.911  0.00  0.00    +0.123 C 
ATOM     28  C   UNL     1      -1.421  -5.978   1.310  0.00  0.00    +0.104 C 
ATOM     29  C   UNL     1      -4.679  -4.582   1.194  0.00  0.00    +0.247 C 
ATOM     30  O   UNL     1      -5.137  -3.479   0.968  0.00  0.00    -0.270 OA
BRANCH  29  31
ATOM     31  C   UNL     1      -5.465  -5.790   0.866  0.00  0.00    +0.040 A 
ATOM     32  C   UNL     1      -5.406  -6.911   1.696  0.00  0.00    +0.013 A 
ATOM     33  C   UNL     1      -6.141  -8.037   1.387  0.00  0.00    +0.004 A 
ATOM     34  C   UNL     1      -6.937  -8.060   0.256  0.00  0.00    +0.045 A 
ATOM     35  C   UNL     1      -7.002  -6.950  -0.575  0.00  0.00    +0.121 A 
ATOM     36  C   UNL     1      -6.273  -5.812  -0.271  0.00  0.00    +0.058 A 
BRANCH  35  37
ATOM     37  O   UNL     1      -7.786  -6.978  -1.685  0.00  0.00    -0.495 OA
ATOM     38  C   UNL     1      -8.514  -8.182  -1.935  0.00  0.00    +0.277 C 
ENDBRANCH  35  37
ENDBRANCH  29  31
ENDBRANCH  22  23
ENDBRANCH   2  22
TORSDOF 10
