REMARK  Name = ZINC35318581
REMARK  14 active torsions:
REMARK  status: ('A' for Active; 'I' for Inactive)
REMARK    1  A    between atoms: C_1  and  C_2
REMARK    2  A    between atoms: N_8  and  C_9
REMARK    3  A    between atoms: C_9  and  C_10
REMARK    4  A    between atoms: C_10  and  C_11
REMARK    5  A    between atoms: C_11  and  N_12
REMARK    6  A    between atoms: C_13  and  C_15
REMARK    7  A    between atoms: C_15  and  C_16
REMARK    8  A    between atoms: C_16  and  C_17
REMARK    9  A    between atoms: N_19  and  C_20
REMARK   10  A    between atoms: C_22  and  C_31
REMARK   11  A    between atoms: N_24  and  C_25
REMARK   12  A    between atoms: C_31  and  C_32
REMARK   13  A    between atoms: C_31  and  C_33
REMARK   14  A    between atoms: C_31  and  C_34
REMARK                            x       y       z     vdW  Elec       q    Type
REMARK                         _______ _______ _______ _____ _____    ______ ____
ROOT
ATOM      1  C   UNL     1       1.504  -0.022  10.982  0.00  0.00    +0.219 C 
ATOM      2  O   UNL     1       2.510  -0.689  10.856  0.00  0.00    -0.275 OA
ATOM      3  N   UNL     1       1.101   0.364  12.208  0.00  0.00    -0.270 N 
ATOM      4  H   UNL     1       0.296   0.897  12.309  0.00  0.00    +0.156 HD
ENDROOT
BRANCH   3   5
ATOM      5  C   UNL     1       1.839  -0.003  13.333  0.00  0.00    +0.129 A 
ATOM      6  C   UNL     1       2.983  -0.740  13.340  0.00  0.00    +0.069 A 
ATOM      7  C   UNL     1       3.397  -0.878  14.668  0.00  0.00    +0.071 A 
ATOM      8  N   UNL     1       2.541  -0.253  15.436  0.00  0.00    -0.169 NA
ATOM      9  N   UNL     1       1.550   0.314  14.624  0.00  0.00    -0.218 N 
BRANCH   9  10
ATOM     10  C   UNL     1       0.455   1.071  15.064  0.00  0.00    +0.067 A 
ATOM     11  C   UNL     1      -0.020   2.122  14.291  0.00  0.00    +0.028 A 
ATOM     12  C   UNL     1      -1.099   2.865  14.727  0.00  0.00    +0.002 A 
ATOM     13  C   UNL     1      -1.706   2.564  15.932  0.00  0.00    +0.000 A 
ATOM     14  C   UNL     1      -1.236   1.518  16.704  0.00  0.00    +0.002 A 
ATOM     15  C   UNL     1      -0.160   0.767  16.271  0.00  0.00    +0.028 A 
ENDBRANCH   9  10
BRANCH   7  16
ATOM     16  C   UNL     1       4.621  -1.621  15.136  0.00  0.00    +0.006 C 
ATOM     17  C   UNL     1       5.870  -0.793  14.829  0.00  0.00    +0.017 C 
ATOM     18  C   UNL     1       4.526  -1.860  16.645  0.00  0.00    +0.017 C 
ATOM     19  C   UNL     1       4.709  -2.966  14.411  0.00  0.00    +0.017 C 
ENDBRANCH   7  16
ENDBRANCH   3   5
BRANCH   1  20
ATOM     20  C   UNL     1       0.707   0.375   9.766  0.00  0.00    +0.105 C 
BRANCH  20  21
ATOM     21  C   UNL     1       1.377  -0.187   8.511  0.00  0.00    +0.105 C 
BRANCH  21  23
ATOM     22  N   UNL     1       0.983  -0.177   6.069  0.00  0.00    -0.315 N 
ATOM     23  C   UNL     1       0.579   0.209   7.295  0.00  0.00    +0.213 C 
ATOM     24  O   UNL     1      -0.427   0.876   7.421  0.00  0.00    -0.276 OA
ATOM     25  H   UNL     1       1.787  -0.710   5.968  0.00  0.00    +0.149 HD
BRANCH  22  26
ATOM     26  C   UNL     1       0.207   0.209   4.887  0.00  0.00    +0.102 C 
BRANCH  26  27
ATOM     27  C   UNL     1       0.877  -0.353   3.631  0.00  0.00    +0.000 C 
BRANCH  27  28
ATOM     28  C   UNL     1       0.067   0.050   2.397  0.00  0.00    -0.077 C 
BRANCH  28  35
ATOM     29  C   UNL     1      -0.019   1.526   0.010  0.00  0.00    -0.013 C 
ATOM     30  C   UNL     1       0.002  -0.004   0.002  0.00  0.00    -0.072 C 
ATOM     31  C   UNL     1       0.717  -0.497  -1.258  0.00  0.00    -0.016 C 
ATOM     32  C   UNL     1       0.735  -2.028  -1.262  0.00  0.00    -0.003 C 
ATOM     33  C   UNL     1       1.410  -2.524   0.020  0.00  0.00    -0.019 C 
ATOM     34  C   UNL     1       0.669  -1.956   1.232  0.00  0.00    -0.078 C 
ATOM     35  N   UNL     1       0.711  -0.490   1.192  0.00  0.00    +0.381 N 
ATOM     36  H   UNL     1       1.671  -0.182   1.159  0.00  0.00    -0.081 HD
ENDBRANCH  28  35
ENDBRANCH  27  28
ENDBRANCH  26  27
ENDBRANCH  22  26
ENDBRANCH  21  23
ENDBRANCH  20  21
ENDBRANCH   1  20
TORSDOF 10
