REMARK  Name = ZINC39860467
REMARK  3 active torsions:
REMARK  status: ('A' for Active; 'I' for Inactive)
REMARK    1  A    between atoms: C_10  and  C_11
REMARK    2  A    between atoms: N_15  and  C_19
REMARK    3  A    between atoms: C_22  and  O_25
REMARK                            x       y       z     vdW  Elec       q    Type
REMARK                         _______ _______ _______ _____ _____    ______ ____
ROOT
ATOM      1  C   UNL     1       5.075  -0.025  -0.749  0.00  0.00    +0.029 C 
ATOM      2  C   UNL     1       6.206  -0.646  -0.322  0.00  0.00    +0.080 C 
ATOM      3  C   UNL     1       7.586  -0.129  -0.229  0.00  0.00    +0.265 C 
ATOM      4  O   UNL     1       7.866   1.009  -0.556  0.00  0.00    -0.269 OA
ATOM      5  N   UNL     1       8.502  -0.966   0.229  0.00  0.00    -0.197 N 
ATOM      6  C   UNL     1       8.187  -2.226   0.592  0.00  0.00    +0.290 C 
ATOM      7  O   UNL     1       8.922  -3.093   1.025  0.00  0.00    -0.262 OA
ATOM      8  S   UNL     1       6.430  -2.311   0.289  0.00  0.00    -0.025 S 
ENDROOT
BRANCH   1  18
ATOM      9  C   UNL     1       0.060   1.117  -1.103  0.00  0.00    +0.001 A 
ATOM     10  C   UNL     1       1.216   1.878  -0.950  0.00  0.00    +0.001 A 
ATOM     11  C   UNL     1       2.442   1.284  -0.886  0.00  0.00    +0.009 A 
ATOM     12  C   UNL     1       2.541  -0.108  -0.974  0.00  0.00    -0.011 A 
ATOM     13  C   UNL     1       1.368  -0.885  -1.129  0.00  0.00    -0.017 A 
ATOM     14  C   UNL     1       0.121  -0.240  -1.192  0.00  0.00    +0.008 A 
ATOM     15  C   UNL     1       1.472  -2.284  -1.216  0.00  0.00    +0.008 A 
ATOM     16  C   UNL     1       2.686  -2.897  -1.153  0.00  0.00    +0.001 A 
ATOM     17  C   UNL     1       3.862  -2.178  -1.001  0.00  0.00    +0.008 A 
ATOM     18  C   UNL     1       3.835  -0.788  -0.909  0.00  0.00    -0.016 A 
ENDBRANCH   1  18
BRANCH   5  19
ATOM     19  C   UNL     1       9.832  -0.532   0.341  0.00  0.00    +0.045 A 
ATOM     20  C   UNL     1      10.248   0.150   1.476  0.00  0.00    +0.027 A 
ATOM     21  C   UNL     1      11.556   0.576   1.585  0.00  0.00    +0.047 A 
ATOM     22  C   UNL     1      12.456   0.323   0.560  0.00  0.00    +0.117 A 
ATOM     23  C   UNL     1      12.041  -0.358  -0.576  0.00  0.00    +0.047 A 
ATOM     24  C   UNL     1      10.734  -0.791  -0.682  0.00  0.00    +0.027 A 
BRANCH  22  25
ATOM     25  O   UNL     1      13.745   0.743   0.667  0.00  0.00    -0.507 OA
ATOM     26  H   UNL     1      14.336   0.098   1.079  0.00  0.00    +0.292 HD
ENDBRANCH  22  25
ENDBRANCH   5  19
TORSDOF 3
