REMARK  Name = ZINC03165128
REMARK  5 active torsions:
REMARK  status: ('A' for Active; 'I' for Inactive)
REMARK    1  A    between atoms: C_1  and  N_20
REMARK    2  A    between atoms: C_2  and  N_20
REMARK    3  A    between atoms: C_3  and  N_20
REMARK    4  A    between atoms: C_4  and  C_5
REMARK    5  A    between atoms: C_4  and  C_9
REMARK                            x       y       z     vdW  Elec       q    Type
REMARK                         _______ _______ _______ _____ _____    ______ ____
ROOT
ATOM      1  C   UNL     1       0.046   1.657   0.350  0.00  0.00    +0.069 C 
ATOM      2  C   UNL     1       0.197   2.268  -0.809  0.00  0.00    +0.146 C 
ENDROOT
BRANCH   1   5
ATOM      3  C   UNL     1      -0.895   3.620   1.522  0.00  0.00    +0.106 C 
ATOM      4  C   UNL     1      -1.679   1.272   2.079  0.00  0.00    +0.106 C 
ATOM      5  N   UNL     1      -1.081   2.198   1.046  0.00  0.00    -0.403 NA
ATOM      6  H   UNL     1      -1.804   2.267   0.320  0.00  0.00    +0.125 HD
ENDBRANCH   1   5
BRANCH   2   7
ATOM      7  C   UNL     1      -0.716   3.407  -1.185  0.00  0.00    +0.423 C 
ATOM      8  F   UNL     1      -1.974   3.207  -0.607  0.00  0.00    -0.166 F 
ATOM      9  F   UNL     1      -0.175   4.611  -0.721  0.00  0.00    -0.166 F 
ATOM     10  F   UNL     1      -0.846   3.461  -2.577  0.00  0.00    -0.166 F 
ENDBRANCH   2   7
BRANCH   2  11
ATOM     11  C   UNL     1       1.283   1.828  -1.757  0.00  0.00    +0.423 C 
ATOM     12  F   UNL     1       1.525   0.461  -1.587  0.00  0.00    -0.166 F 
ATOM     13  F   UNL     1       0.877   2.069  -3.075  0.00  0.00    -0.166 F 
ATOM     14  F   UNL     1       2.454   2.546  -1.491  0.00  0.00    -0.166 F 
ENDBRANCH   2  11
TORSDOF 3
