REMARK  Name = ZINC14268726
REMARK  11 active torsions:
REMARK  status: ('A' for Active; 'I' for Inactive)
REMARK    1  A    between atoms: C_1  and  C_2
REMARK    2  A    between atoms: C_2  and  O_3
REMARK    3  A    between atoms: O_3  and  C_4
REMARK    4  A    between atoms: C_4  and  C_6
REMARK    5  A    between atoms: C_7  and  C_35
REMARK    6  A    between atoms: C_8  and  C_13
REMARK    7  A    between atoms: C_9  and  C_12
REMARK    8  A    between atoms: C_13  and  C_15
REMARK    9  A    between atoms: C_15  and  N_16
REMARK   10  A    between atoms: C_19  and  C_23
REMARK   11  A    between atoms: C_19  and  C_29
REMARK                            x       y       z     vdW  Elec       q    Type
REMARK                         _______ _______ _______ _____ _____    ______ ____
ROOT
ATOM      1  N   UNL     1      -3.090   6.114  -0.363  0.00  0.00    -0.216 N 
ATOM      2  C   UNL     1      -3.524   7.071  -1.207  0.00  0.00    +0.256 C 
ATOM      3  O   UNL     1      -2.937   7.522  -2.167  0.00  0.00    -0.272 OA
ATOM      4  C   UNL     1      -4.899   7.466  -0.706  0.00  0.00    +0.164 C 
ATOM      5  N   UNL     1      -5.098   6.605   0.473  0.00  0.00    -0.278 N 
ATOM      6  C   UNL     1      -3.992   5.849   0.589  0.00  0.00    +0.310 C 
ATOM      7  O   UNL     1      -3.828   5.020   1.462  0.00  0.00    -0.252 OA
ATOM      8  H   UNL     1      -5.877   6.585   1.051  0.00  0.00    +0.152 HD
ENDROOT
BRANCH   4   9
ATOM      9  C   UNL     1      -4.921   8.920  -0.310  0.00  0.00    -0.011 A 
ATOM     10  C   UNL     1      -4.610   9.895  -1.240  0.00  0.00    +0.006 A 
ATOM     11  C   UNL     1      -4.635  11.229  -0.878  0.00  0.00    +0.000 A 
ATOM     12  C   UNL     1      -4.962  11.588   0.416  0.00  0.00    +0.000 A 
ATOM     13  C   UNL     1      -5.268  10.613   1.347  0.00  0.00    +0.000 A 
ATOM     14  C   UNL     1      -5.247   9.279   0.985  0.00  0.00    +0.006 A 
ENDBRANCH   4   9
BRANCH   4  15
ATOM     15  C   UNL     1      -5.945   7.187  -1.753  0.00  0.00    -0.011 A 
ATOM     16  C   UNL     1      -5.725   7.559  -3.066  0.00  0.00    +0.006 A 
ATOM     17  C   UNL     1      -6.683   7.299  -4.028  0.00  0.00    +0.000 A 
ATOM     18  C   UNL     1      -7.865   6.676  -3.675  0.00  0.00    +0.000 A 
ATOM     19  C   UNL     1      -8.088   6.309  -2.361  0.00  0.00    +0.000 A 
ATOM     20  C   UNL     1      -7.128   6.565  -1.400  0.00  0.00    +0.006 A 
ENDBRANCH   4  15
BRANCH   1  21
ATOM     21  C   UNL     1      -1.792   5.443  -0.477  0.00  0.00    +0.197 C 
BRANCH  21  22
ATOM     22  C   UNL     1      -0.760   6.208   0.309  0.00  0.00    +0.183 C 
ATOM     23  O   UNL     1      -1.092   7.164   0.978  0.00  0.00    -0.290 OA
BRANCH  22  26
ATOM     24  C   UNL     1       2.595   4.825   0.769  0.00  0.00    +0.128 A 
ATOM     25  C   UNL     1       1.300   4.935   1.181  0.00  0.00    -0.008 A 
ATOM     26  C   UNL     1       0.647   5.796   0.267  0.00  0.00    +0.043 A 
ATOM     27  C   UNL     1       1.592   6.181  -0.672  0.00  0.00    +0.024 A 
ATOM     28  N   UNL     1       2.756   5.590  -0.367  0.00  0.00    -0.352 N 
ATOM     29  H   UNL     1       3.583   5.689  -0.864  0.00  0.00    +0.166 HD
ATOM     30  C   UNL     1       1.350   7.104  -1.838  0.00  0.00    +0.064 C 
ATOM     31  C   UNL     1       0.681   4.266   2.381  0.00  0.00    +0.047 C 
BRANCH  24  32
ATOM     32  C   UNL     1       3.639   4.029   1.422  0.00  0.00    +0.356 C 
ATOM     33  O   UNL     1       3.379   3.391   2.424  0.00  0.00    -0.243 OA
BRANCH  32  34
ATOM     34  O   UNL     1       4.887   4.004   0.912  0.00  0.00    -0.460 OA
BRANCH  34  36
ATOM     35  C   UNL     1       7.215   3.291   0.890  0.00  0.00    +0.048 C 
ATOM     36  C   UNL     1       5.869   3.195   1.611  0.00  0.00    +0.229 C 
ENDBRANCH  34  36
ENDBRANCH  32  34
ENDBRANCH  24  32
ENDBRANCH  22  26
ENDBRANCH  21  22
ENDBRANCH   1  21
TORSDOF 8
