REMARK  Name = ZINC39677992
REMARK  8 active torsions:
REMARK  status: ('A' for Active; 'I' for Inactive)
REMARK    1  A    between atoms: C_1  and  C_2
REMARK    2  A    between atoms: C_7  and  C_8
REMARK    3  A    between atoms: C_8  and  C_9
REMARK    4  A    between atoms: C_13  and  C_22
REMARK    5  A    between atoms: N_24  and  C_25
REMARK    6  A    between atoms: C_25  and  C_26
REMARK    7  A    between atoms: N_29  and  C_33
REMARK    8  A    between atoms: C_33  and  C_34
REMARK                            x       y       z     vdW  Elec       q    Type
REMARK                         _______ _______ _______ _____ _____    ______ ____
ROOT
ATOM      1  C   UNL     1      -1.554   0.371   2.921  0.00  0.00    +0.220 C 
ATOM      2  O   UNL     1      -2.489   0.099   2.199  0.00  0.00    -0.275 OA
ATOM      3  N   UNL     1      -1.758   1.074   4.053  0.00  0.00    -0.300 N 
ATOM      4  C   UNL     1      -0.750   1.504   5.050  0.00  0.00    +0.121 C 
ATOM      5  C   UNL     1      -1.189   2.928   5.460  0.00  0.00    +0.100 C 
ATOM      6  C   UNL     1      -2.695   2.978   5.152  0.00  0.00    -0.004 C 
ATOM      7  C   UNL     1      -3.043   1.597   4.578  0.00  0.00    +0.115 C 
ATOM      8  C   UNL     1      -3.488   3.235   6.430  0.00  0.00    -0.010 C 
ATOM      9  C   UNL     1      -4.977   3.338   6.089  0.00  0.00    -0.082 C 
ATOM     10  N   UNL     1      -5.188   4.431   5.131  0.00  0.00    +0.379 N 
ATOM     11  C   UNL     1      -4.497   4.131   3.871  0.00  0.00    -0.082 C 
ATOM     12  C   UNL     1      -2.987   4.061   4.118  0.00  0.00    -0.010 C 
ATOM     13  H   UNL     1      -6.175   4.536   4.955  0.00  0.00    -0.086 HD
ATOM     14  H   UNL     1      -4.824   5.289   5.517  0.00  0.00    -0.086 HD
ENDROOT
BRANCH   5  15
ATOM     15  C   UNL     1      -0.945   3.150   6.930  0.00  0.00    +0.218 C 
ATOM     16  O   UNL     1      -1.008   2.217   7.703  0.00  0.00    -0.275 OA
ATOM     17  N   UNL     1      -0.655   4.385   7.387  0.00  0.00    -0.313 N 
ATOM     18  H   UNL     1      -0.605   5.130   6.769  0.00  0.00    +0.149 HD
BRANCH  17  19
ATOM     19  C   UNL     1      -0.417   4.600   8.816  0.00  0.00    +0.137 C 
BRANCH  19  20
ATOM     20  C   UNL     1      -0.112   6.079   9.065  0.00  0.00    +0.149 C 
ATOM     21  C   UNL     1       0.139   6.304  10.558  0.00  0.00    +0.118 C 
ATOM     22  N   UNL     1       0.507   7.710  10.781  0.00  0.00    -0.293 NA
ATOM     23  C   UNL     1       1.708   8.063  10.009  0.00  0.00    +0.113 C 
ATOM     24  C   UNL     1       1.441   7.819   8.521  0.00  0.00    +0.175 C 
ATOM     25  O   UNL     1       1.054   6.456   8.327  0.00  0.00    -0.372 OA
BRANCH  22  26
ATOM     26  C   UNL     1       0.702   7.983  12.211  0.00  0.00    +0.119 C 
BRANCH  26  27
ATOM     27  C   UNL     1       0.834   9.469  12.425  0.00  0.00    -0.033 A 
ATOM     28  C   UNL     1       2.079  10.067  12.373  0.00  0.00    +0.005 A 
ATOM     29  C   UNL     1       2.200  11.430  12.569  0.00  0.00    +0.000 A 
ATOM     30  C   UNL     1       1.076  12.195  12.818  0.00  0.00    +0.000 A 
ATOM     31  C   UNL     1      -0.169  11.597  12.870  0.00  0.00    +0.000 A 
ATOM     32  C   UNL     1      -0.291  10.235  12.669  0.00  0.00    +0.005 A 
ENDBRANCH  26  27
ENDBRANCH  22  26
ENDBRANCH  19  20
ENDBRANCH  17  19
ENDBRANCH   5  15
BRANCH   1  33
ATOM     33  C   UNL     1      -0.162  -0.076   2.554  0.00  0.00    +0.131 C 
BRANCH  33  40
ATOM     34  C   UNL     1      -0.070   1.349   0.042  0.00  0.00    +0.044 C 
ATOM     35  C   UNL     1      -0.162  -0.155   0.052  0.00  0.00    -0.047 A 
ATOM     36  C   UNL     1      -0.196  -0.853  -1.141  0.00  0.00    +0.003 A 
ATOM     37  C   UNL     1      -0.281  -2.233  -1.131  0.00  0.00    +0.000 A 
ATOM     38  C   UNL     1      -0.331  -2.914   0.071  0.00  0.00    +0.000 A 
ATOM     39  C   UNL     1      -0.295  -2.216   1.263  0.00  0.00    +0.004 A 
ATOM     40  C   UNL     1      -0.206  -0.837   1.254  0.00  0.00    -0.036 A 
ENDBRANCH  33  40
ENDBRANCH   1  33
TORSDOF 7
