REMARK  Name = ZINC20464084
REMARK  10 active torsions:
REMARK  status: ('A' for Active; 'I' for Inactive)
REMARK    1  A    between atoms: C_1  and  C_2
REMARK    2  A    between atoms: C_2  and  C_3
REMARK    3  A    between atoms: C_2  and  C_4
REMARK    4  A    between atoms: C_2  and  C_5
REMARK    5  A    between atoms: N_7  and  C_8
REMARK    6  A    between atoms: C_11  and  C_16
REMARK    7  A    between atoms: N_13  and  C_15
REMARK    8  A    between atoms: C_18  and  C_21
REMARK    9  A    between atoms: C_24  and  O_27
REMARK   10  A    between atoms: O_27  and  C_28
REMARK                            x       y       z     vdW  Elec       q    Type
REMARK                         _______ _______ _______ _____ _____    ______ ____
ROOT
ATOM      1  C   UNL     1      -5.963   2.333  -0.298  0.00  0.00    +0.214 A 
ATOM      2  N   UNL     1      -7.082   2.337   0.382  0.00  0.00    -0.193 NA
ATOM      3  C   UNL     1      -7.781   3.400  -0.078  0.00  0.00    +0.202 A 
ATOM      4  N   UNL     1      -7.052   3.972  -1.000  0.00  0.00    -0.056 NA
ATOM      5  O   UNL     1      -6.004   3.375  -1.133  0.00  0.00    -0.339 OA
ENDROOT
BRANCH   1   8
ATOM      6  C   UNL     1      -2.449   1.117   0.020  0.00  0.00    +0.055 C 
ATOM      7  C   UNL     1      -3.616   2.005   0.528  0.00  0.00    +0.014 C 
ATOM      8  C   UNL     1      -4.836   1.342  -0.159  0.00  0.00    +0.023 C 
ATOM      9  N   UNL     1      -4.343   0.933  -1.492  0.00  0.00    +0.387 N 
ATOM     10  C   UNL     1      -2.879   0.769  -1.421  0.00  0.00    -0.056 C 
ATOM     11  C   UNL     1      -4.991  -0.309  -1.935  0.00  0.00    -0.095 C 
ATOM     12  H   UNL     1      -4.592   1.705  -2.235  0.00  0.00    -0.081 HD
BRANCH   6  15
ATOM     13  C   UNL     1      -0.014   1.209   0.009  0.00  0.00    +0.219 C 
ATOM     14  O   UNL     1       0.002  -0.004   0.002  0.00  0.00    -0.275 OA
ATOM     15  N   UNL     1      -1.191   1.867   0.018  0.00  0.00    -0.314 N 
ATOM     16  H   UNL     1      -1.206   2.966   0.024  0.00  0.00    +0.149 HD
BRANCH  13  18
ATOM     17  C   UNL     1       2.457   1.002  -0.016  0.00  0.00    +0.020 C 
ATOM     18  C   UNL     1       1.280   1.980   0.001  0.00  0.00    +0.039 C 
ATOM     19  C   UNL     1       1.337   2.867  -1.245  0.00  0.00    +0.020 C 
ATOM     20  C   UNL     1       1.361   2.854   1.254  0.00  0.00    +0.020 C 
ENDBRANCH  13  18
ENDBRANCH   6  15
ENDBRANCH   1   8
BRANCH   3  21
ATOM     21  C   UNL     1      -9.124   3.835   0.379  0.00  0.00    +0.023 A 
ATOM     22  C   UNL     1      -9.789   3.119   1.374  0.00  0.00    +0.015 A 
ATOM     23  C   UNL     1     -11.034   3.529   1.800  0.00  0.00    +0.046 A 
ATOM     24  C   UNL     1     -11.631   4.647   1.232  0.00  0.00    +0.130 A 
ATOM     25  C   UNL     1     -10.973   5.359   0.238  0.00  0.00    +0.046 A 
ATOM     26  C   UNL     1      -9.725   4.957  -0.189  0.00  0.00    +0.015 A 
BRANCH  24  27
ATOM     27  O   UNL     1     -12.861   5.045   1.651  0.00  0.00    -0.406 OA
BRANCH  27  28
ATOM     28  C   UNL     1     -13.480   4.267   2.677  0.00  0.00    +0.575 C 
ATOM     29  F   UNL     1     -12.673   4.276   3.820  0.00  0.00    -0.133 F 
ATOM     30  F   UNL     1     -14.731   4.813   2.985  0.00  0.00    -0.133 F 
ATOM     31  F   UNL     1     -13.643   2.951   2.231  0.00  0.00    -0.133 F 
ENDBRANCH  27  28
ENDBRANCH  24  27
ENDBRANCH   3  21
TORSDOF 6
