REMARK  Name = ZINC20815430
REMARK  8 active torsions:
REMARK  status: ('A' for Active; 'I' for Inactive)
REMARK    1  A    between atoms: C_1  and  C_2
REMARK    2  A    between atoms: N_12  and  C_38
REMARK    3  A    between atoms: N_16  and  C_17
REMARK    4  A    between atoms: C_17  and  C_18
REMARK    5  A    between atoms: C_18  and  N_19
REMARK    6  A    between atoms: N_22  and  C_25
REMARK    7  A    between atoms: C_25  and  C_26
REMARK    8  A    between atoms: C_25  and  C_32
REMARK                            x       y       z     vdW  Elec       q    Type
REMARK                         _______ _______ _______ _____ _____    ______ ____
ROOT
ATOM      1  N   UNL     1      -0.736   2.125  -1.183  0.00  0.00    +0.382 N 
ATOM      2  C   UNL     1      -2.096   1.569  -1.190  0.00  0.00    -0.063 C 
ATOM      3  C   UNL     1      -2.805   1.977  -2.483  0.00  0.00    +0.067 C 
ATOM      4  N   UNL     1      -2.035   1.488  -3.636  0.00  0.00    -0.295 NA
ATOM      5  C   UNL     1      -0.674   2.044  -3.629  0.00  0.00    +0.067 C 
ATOM      6  C   UNL     1       0.035   1.636  -2.336  0.00  0.00    -0.063 C 
ATOM      7  H   UNL     1      -0.815   3.219  -1.267  0.00  0.00    -0.082 HD
ENDROOT
BRANCH   1   8
ATOM      8  C   UNL     1      -0.048   1.819   0.078  0.00  0.00    -0.057 C 
BRANCH   8   9
ATOM      9  C   UNL     1      -0.742   2.551   1.228  0.00  0.00    +0.106 C 
BRANCH   9  25
ATOM     10  C   UNL     1      -1.437   0.176   3.142  0.00  0.00    +0.065 C 
ATOM     11  C   UNL     1      -0.351   1.202   3.341  0.00  0.00    +0.035 A 
ATOM     12  C   UNL     1       0.491   1.256   4.369  0.00  0.00    +0.116 A 
ATOM     13  N   UNL     1       1.329   2.342   4.188  0.00  0.00    -0.277 N 
ATOM     14  C   UNL     1       2.386   3.061   4.725  0.00  0.00    +0.157 A 
ATOM     15  C   UNL     1       3.167   2.944   5.887  0.00  0.00    +0.280 A 
ATOM     16  O   UNL     1       2.960   2.042   6.679  0.00  0.00    -0.265 OA
ATOM     17  N   UNL     1       4.148   3.841   6.117  0.00  0.00    -0.273 N 
ATOM     18  H   UNL     1       4.766   3.759   7.023  0.00  0.00    +0.173 HD
ATOM     19  C   UNL     1       4.390   4.841   5.253  0.00  0.00    +0.331 A 
ATOM     20  O   UNL     1       5.284   5.630   5.494  0.00  0.00    -0.246 OA
ATOM     21  N   UNL     1       3.667   4.993   4.127  0.00  0.00    -0.280 N 
ATOM     22  C   UNL     1       2.644   4.103   3.835  0.00  0.00    +0.170 A 
ATOM     23  N   UNL     1       1.780   3.994   2.830  0.00  0.00    -0.193 NA
ATOM     24  C   UNL     1       0.989   2.948   3.026  0.00  0.00    +0.218 A 
ATOM     25  N   UNL     1      -0.056   2.246   2.486  0.00  0.00    -0.316 N 
ATOM     26  C   UNL     1       3.962   6.097   3.210  0.00  0.00    +0.155 C 
ENDBRANCH   9  25
ENDBRANCH   8   9
ENDBRANCH   1   8
BRANCH   4  27
ATOM     27  C   UNL     1      -2.723   1.794  -4.897  0.00  0.00    +0.117 C 
BRANCH  27  28
ATOM     28  C   UNL     1      -1.917   1.256  -6.052  0.00  0.00    -0.026 A 
ATOM     29  C   UNL     1      -1.366  -0.009  -5.979  0.00  0.00    +0.005 A 
ATOM     30  C   UNL     1      -0.632  -0.505  -7.041  0.00  0.00    +0.000 A 
ATOM     31  C   UNL     1      -0.440   0.269  -8.170  0.00  0.00    +0.000 A 
ATOM     32  C   UNL     1      -0.987   1.537  -8.240  0.00  0.00    +0.000 A 
ATOM     33  C   UNL     1      -1.726   2.030  -7.181  0.00  0.00    +0.005 A 
ENDBRANCH  27  28
BRANCH  27  34
ATOM     34  C   UNL     1      -4.087   1.154  -4.894  0.00  0.00    -0.026 A 
ATOM     35  C   UNL     1      -4.237  -0.149  -4.458  0.00  0.00    +0.005 A 
ATOM     36  C   UNL     1      -5.489  -0.736  -4.450  0.00  0.00    +0.000 A 
ATOM     37  C   UNL     1      -6.589  -0.022  -4.888  0.00  0.00    +0.000 A 
ATOM     38  C   UNL     1      -6.438   1.279  -5.329  0.00  0.00    +0.000 A 
ATOM     39  C   UNL     1      -5.186   1.867  -5.332  0.00  0.00    +0.005 A 
ENDBRANCH  27  34
ENDBRANCH   4  27
TORSDOF 6
