REMARK  Name = ZINC12429872
REMARK  5 active torsions:
REMARK  status: ('A' for Active; 'I' for Inactive)
REMARK    1  A    between atoms: C_3  and  C_6
REMARK    2  A    between atoms: C_6  and  C_8
REMARK    3  A    between atoms: C_14  and  C_15
REMARK    4  A    between atoms: C_14  and  N_47
REMARK    5  A    between atoms: C_17  and  C_20
REMARK                            x       y       z     vdW  Elec       q    Type
REMARK                         _______ _______ _______ _____ _____    ______ ____
ROOT
ATOM      1  C   UNL     1       2.564   6.885   0.015  0.00  0.00    +0.022 C 
ENDROOT
BRANCH   1   7
ATOM      2  C   UNL     1       3.756   9.010  -2.856  0.00  0.00    +0.044 C 
ATOM      3  C   UNL     1       2.508   8.930  -3.739  0.00  0.00    +0.008 C 
ATOM      4  C   UNL     1       1.910   7.524  -3.638  0.00  0.00    -0.018 C 
ATOM      5  C   UNL     1       1.585   7.218  -2.174  0.00  0.00    -0.078 C 
ATOM      6  C   UNL     1       3.378   8.661  -1.414  0.00  0.00    -0.067 C 
ATOM      7  N   UNL     1       2.831   7.288  -1.381  0.00  0.00    +0.386 N 
ATOM      8  H   UNL     1       3.521   6.645  -1.788  0.00  0.00    -0.081 HD
BRANCH   2   9
ATOM      9  C   UNL     1       4.319  10.408  -2.904  0.00  0.00    +0.171 C 
ATOM     10  O   UNL     1       4.013  11.215  -2.049  0.00  0.00    -0.291 OA
BRANCH   9  13
ATOM     11  C   UNL     1       6.643  12.089  -5.264  0.00  0.00    +0.008 A 
ATOM     12  C   UNL     1       5.825  12.001  -4.168  0.00  0.00    +0.019 A 
ATOM     13  C   UNL     1       5.201  10.778  -3.942  0.00  0.00    +0.055 A 
ATOM     14  S   UNL     1       5.813   9.798  -5.302  0.00  0.00    -0.094 S 
ATOM     15  C   UNL     1       6.803  11.000  -6.064  0.00  0.00    +0.046 A 
ENDBRANCH   9  13
ENDBRANCH   2   9
ENDBRANCH   1   7
BRANCH   1  16
ATOM     16  C   UNL     1       1.764   5.608   0.016  0.00  0.00    +0.211 A 
ATOM     17  N   UNL     1       2.244   4.389   0.004  0.00  0.00    -0.193 NA
ATOM     18  C   UNL     1       1.165   3.574   0.010  0.00  0.00    +0.202 A 
ATOM     19  N   UNL     1       0.103   4.338   0.019  0.00  0.00    -0.056 NA
ATOM     20  O   UNL     1       0.431   5.506   0.028  0.00  0.00    -0.340 OA
BRANCH  18  21
ATOM     21  C   UNL     1       1.182   2.091   0.002  0.00  0.00    +0.026 A 
ATOM     22  C   UNL     1       2.396   1.406  -0.013  0.00  0.00    +0.015 A 
ATOM     23  C   UNL     1       2.411   0.027  -0.021  0.00  0.00    +0.050 A 
ATOM     24  C   UNL     1       1.219  -0.684  -0.013  0.00  0.00    +0.166 A 
ATOM     25  C   UNL     1       0.002  -0.004   0.002  0.00  0.00    +0.167 A 
ATOM     26  C   UNL     1      -0.017   1.379   0.010  0.00  0.00    +0.061 A 
ATOM     27  O   UNL     1      -1.009  -0.921   0.007  0.00  0.00    -0.453 OA
ATOM     28  C   UNL     1      -0.400  -2.163   0.408  0.00  0.00    +0.466 C 
ATOM     29  O   UNL     1       0.969  -2.025  -0.018  0.00  0.00    -0.453 OA
ENDBRANCH  18  21
ENDBRANCH   1  16
TORSDOF 5
