REMARK  Name = ZINC11493521
REMARK  7 active torsions:
REMARK  status: ('A' for Active; 'I' for Inactive)
REMARK    1  A    between atoms: C_6  and  C_7
REMARK    2  A    between atoms: C_9  and  C_13
REMARK    3  A    between atoms: C_13  and  O_15
REMARK    4  A    between atoms: O_15  and  C_16
REMARK    5  A    between atoms: C_16  and  C_17
REMARK    6  A    between atoms: N_19  and  C_20
REMARK    7  A    between atoms: C_21  and  C_28
REMARK                            x       y       z     vdW  Elec       q    Type
REMARK                         _______ _______ _______ _____ _____    ______ ____
ROOT
ATOM      1  O   UNL     1       3.449   2.499  -0.017  0.00  0.00    -0.451 OA
ENDROOT
BRANCH   1   2
ATOM      2  C   UNL     1       2.495   1.547  -0.013  0.00  0.00    +0.358 C 
ATOM      3  O   UNL     1       2.807   0.372  -0.022  0.00  0.00    -0.243 OA
BRANCH   2   6
ATOM      4  C   UNL     1      -1.142   1.914   0.017  0.00  0.00    +0.093 A 
ATOM      5  C   UNL     1      -0.013   1.076   0.008  0.00  0.00    +0.064 A 
ATOM      6  C   UNL     1       1.075   1.929   0.002  0.00  0.00    +0.143 A 
ATOM      7  N   UNL     1       0.570   3.200   0.013  0.00  0.00    -0.270 N 
ATOM      8  H   UNL     1       1.118   4.036   0.012  0.00  0.00    +0.189 HD
ATOM      9  N   UNL     1      -0.714   3.159   0.025  0.00  0.00    -0.173 NA
BRANCH   4  15
ATOM     10  C   UNL     1      -2.871   0.116   0.009  0.00  0.00    +0.011 A 
ATOM     11  C   UNL     1      -4.190  -0.287   0.018  0.00  0.00    +0.020 A 
ATOM     12  C   UNL     1      -5.205   0.655   0.027  0.00  0.00    +0.041 A 
ATOM     13  C   UNL     1      -4.901   2.005   0.033  0.00  0.00    +0.020 A 
ATOM     14  C   UNL     1      -3.584   2.419   0.030  0.00  0.00    +0.011 A 
ATOM     15  C   UNL     1      -2.560   1.474   0.021  0.00  0.00    +0.002 A 
ATOM     16 CL   UNL     1      -6.863   0.141   0.030  0.00  0.00    -0.084 Cl
ENDBRANCH   4  15
ENDBRANCH   2   6
ENDBRANCH   1   2
BRANCH   1  17
ATOM     17  C   UNL     1       4.830   2.048  -0.033  0.00  0.00    +0.328 C 
BRANCH  17  18
ATOM     18  C   UNL     1       5.748   3.243  -0.035  0.00  0.00    +0.255 C 
ATOM     19  O   UNL     1       5.285   4.364  -0.025  0.00  0.00    -0.272 OA
ATOM     20  N   UNL     1       7.084   3.065  -0.048  0.00  0.00    -0.276 N 
ATOM     21  H   UNL     1       7.454   2.169  -0.057  0.00  0.00    +0.155 HD
BRANCH  20  22
ATOM     22  C   UNL     1       7.930   4.166  -0.051  0.00  0.00    +0.090 A 
ATOM     23  C   UNL     1       9.313   4.186  -0.058  0.00  0.00    +0.084 A 
ATOM     24  C   UNL     1       9.972   5.492  -0.063  0.00  0.00    -0.018 A 
ATOM     25  C   UNL     1       9.141   6.550  -0.050  0.00  0.00    -0.004 A 
ATOM     26  S   UNL     1       7.511   5.845  -0.037  0.00  0.00    -0.077 S 
ATOM     27  C   UNL     1       9.890   7.855  -0.053  0.00  0.00    +0.043 C 
ATOM     28  C   UNL     1      11.319   7.483  -0.507  0.00  0.00    +0.010 C 
ATOM     29  C   UNL     1      11.412   6.006  -0.072  0.00  0.00    +0.037 C 
BRANCH  23  30
ATOM     30  C   UNL     1      10.073   2.973  -0.065  0.00  0.00    +0.102 C 
ATOM     31  N   UNL     1      10.676   2.010  -0.070  0.00  0.00    -0.191 NA
ENDBRANCH  23  30
ENDBRANCH  20  22
ENDBRANCH  17  18
ENDBRANCH   1  17
TORSDOF 7
