REMARK  Name = ZINC02660895
REMARK  16 active torsions:
REMARK  status: ('A' for Active; 'I' for Inactive)
REMARK    1  A    between atoms: C_1  and  C_2
REMARK    2  A    between atoms: C_2  and  N_71
REMARK    3  A    between atoms: C_3  and  C_4
REMARK    4  A    between atoms: C_3  and  N_71
REMARK    5  A    between atoms: C_16  and  C_17
REMARK    6  A    between atoms: C_16  and  N_71
REMARK    7  A    between atoms: N_19  and  C_20
REMARK    8  A    between atoms: N_19  and  C_24
REMARK    9  A    between atoms: C_20  and  C_21
REMARK   10  A    between atoms: C_21  and  C_22
REMARK   11  A    between atoms: C_21  and  C_23
REMARK   12  A    between atoms: C_25  and  N_37
REMARK   13  A    between atoms: N_26  and  C_33
REMARK   14  A    between atoms: C_33  and  C_34
REMARK   15  A    between atoms: C_34  and  C_35
REMARK   16  A    between atoms: C_34  and  C_36
REMARK                            x       y       z     vdW  Elec       q    Type
REMARK                         _______ _______ _______ _____ _____    ______ ____
ROOT
ATOM      1  C   UNL     1       2.737   8.051  -0.300  0.00  0.00    +0.203 C 
ATOM      2  O   UNL     1       1.932   8.683   0.352  0.00  0.00    -0.277 OA
ATOM      3  N   UNL     1       3.860   8.649  -0.749  0.00  0.00    -0.266 N 
ENDROOT
BRANCH   3   4
ATOM      4  C   UNL     1       4.150   9.978  -0.373  0.00  0.00    +0.140 A 
ATOM      5  C   UNL     1       3.297  11.007  -0.716  0.00  0.00    +0.127 A 
ATOM      6  N   UNL     1       3.607  12.291  -0.335  0.00  0.00    -0.280 N 
ATOM      7  C   UNL     1       4.730  12.542   0.363  0.00  0.00    +0.331 A 
ATOM      8  O   UNL     1       4.987  13.685   0.690  0.00  0.00    -0.246 OA
ATOM      9  N   UNL     1       5.573  11.552   0.706  0.00  0.00    -0.273 N 
ATOM     10  H   UNL     1       6.403  11.766   1.222  0.00  0.00    +0.173 HD
ATOM     11  C   UNL     1       5.312  10.275   0.363  0.00  0.00    +0.277 A 
ATOM     12  O   UNL     1       6.081   9.384   0.683  0.00  0.00    -0.266 OA
BRANCH   5  13
ATOM     13  N   UNL     1       2.151  10.751  -1.430  0.00  0.00    -0.343 N 
ATOM     14  H   UNL     1       1.926   9.840  -1.676  0.00  0.00    +0.144 HD
ATOM     15  H   UNL     1       1.567  11.481  -1.687  0.00  0.00    +0.144 HD
ENDBRANCH   5  13
BRANCH   6  16
ATOM     16  C   UNL     1       2.711  13.393  -0.692  0.00  0.00    +0.131 C 
BRANCH  16  17
ATOM     17  C   UNL     1       1.674  13.586   0.417  0.00  0.00    +0.003 C 
ATOM     18  C   UNL     1       2.377  14.036   1.700  0.00  0.00    +0.009 C 
ATOM     19  C   UNL     1       0.663  14.652  -0.010  0.00  0.00    +0.009 C 
ENDBRANCH  16  17
ENDBRANCH   6  16
ENDBRANCH   3   4
BRANCH   1  20
ATOM     20  C   UNL     1       2.483   6.597  -0.606  0.00  0.00    +0.020 C 
BRANCH  20  21
ATOM     21  N   UNL     1       1.223   6.188   0.049  0.00  0.00    +0.390 N 
ATOM     22  H   UNL     1       1.189   6.597   0.991  0.00  0.00    -0.081 HD
BRANCH  21  24
ATOM     23  C   UNL     1       2.136   4.270   1.259  0.00  0.00    -0.017 C 
ATOM     24  C   UNL     1       1.167   4.716   0.162  0.00  0.00    -0.081 C 
ENDBRANCH  21  24
BRANCH  21  25
ATOM     25  C   UNL     1       0.066   6.679  -0.729  0.00  0.00    -0.003 C 
BRANCH  25  26
ATOM     26  C   UNL     1      -1.191   6.444   0.068  0.00  0.00    +0.094 A 
ATOM     27  N   UNL     1      -2.376   6.843  -0.464  0.00  0.00    -0.312 N 
ATOM     28  H   UNL     1      -2.393   7.280  -1.364  0.00  0.00    +0.170 HD
ATOM     29  C   UNL     1      -3.533   6.655   0.212  0.00  0.00    +0.259 A 
ATOM     30  O   UNL     1      -4.601   7.008  -0.253  0.00  0.00    -0.267 OA
ATOM     31  C   UNL     1      -3.449   6.013   1.532  0.00  0.00    +0.065 A 
ATOM     32  C   UNL     1      -4.582   5.768   2.306  0.00  0.00    +0.015 A 
ATOM     33  C   UNL     1      -4.446   5.157   3.533  0.00  0.00    +0.001 A 
ATOM     34  C   UNL     1      -3.193   4.781   4.000  0.00  0.00    +0.002 A 
ATOM     35  C   UNL     1      -2.062   5.009   3.249  0.00  0.00    +0.028 A 
ATOM     36  C   UNL     1      -2.174   5.626   2.001  0.00  0.00    +0.078 A 
ATOM     37  N   UNL     1      -1.087   5.870   1.228  0.00  0.00    -0.236 NA
ENDBRANCH  25  26
ENDBRANCH  21  25
ENDBRANCH  20  21
ENDBRANCH   1  20
BRANCH   3  38
ATOM     38  C   UNL     1       4.777   7.919  -1.628  0.00  0.00    +0.117 C 
BRANCH  38  39
ATOM     39  C   UNL     1       4.295   8.033  -3.076  0.00  0.00    +0.001 C 
ATOM     40  C   UNL     1       4.414   9.485  -3.541  0.00  0.00    +0.009 C 
ATOM     41  C   UNL     1       5.155   7.138  -3.971  0.00  0.00    +0.009 C 
ENDBRANCH  38  39
ENDBRANCH   3  38
TORSDOF 11
