REMARK  Name = ZINC49429325
REMARK  2 active torsions:
REMARK  status: ('A' for Active; 'I' for Inactive)
REMARK    1  A    between atoms: C_3  and  N_6
REMARK    2  A    between atoms: C_13  and  C_16
REMARK                            x       y       z     vdW  Elec       q    Type
REMARK                         _______ _______ _______ _____ _____    ______ ____
ROOT
ATOM      1  N   UNL     1       3.663   1.800  -0.028  0.00  0.00    -0.264 N 
ATOM      2  C   UNL     1       4.690   0.927  -0.038  0.00  0.00    +0.307 C 
ATOM      3  O   UNL     1       4.474  -0.267   0.054  0.00  0.00    -0.252 OA
ATOM      4  N   UNL     1       5.955   1.376  -0.150  0.00  0.00    -0.285 N 
ATOM      5  C   UNL     1       6.241   2.817  -0.141  0.00  0.00    +0.109 C 
ATOM      6  C   UNL     1       7.290   3.105   0.938  0.00  0.00    +0.020 C 
ATOM      7  C   UNL     1       8.518   2.223   0.699  0.00  0.00    +0.016 C 
ATOM      8  C   UNL     1       8.115   0.749   0.797  0.00  0.00    +0.093 C 
ATOM      9  C   UNL     1       7.076   0.435  -0.277  0.00  0.00    +0.122 C 
ATOM     10  H   UNL     1       3.837   2.754  -0.028  0.00  0.00    +0.157 HD
ENDROOT
BRANCH   8  11
ATOM     11  C   UNL     1       9.330  -0.119   0.595  0.00  0.00    +0.221 C 
ATOM     12  O   UNL     1      10.412   0.391   0.391  0.00  0.00    -0.275 OA
ATOM     13  N   UNL     1       9.215  -1.461   0.639  0.00  0.00    -0.291 N 
ATOM     14  C   UNL     1      10.383  -2.337   0.451  0.00  0.00    +0.127 C 
ATOM     15  C   UNL     1      10.577  -3.155   1.729  0.00  0.00    +0.123 C 
ATOM     16  N   UNL     1       9.312  -3.720   2.178  0.00  0.00    -0.313 N 
ATOM     17  C   UNL     1       8.111  -3.245   1.845  0.00  0.00    +0.230 C 
ATOM     18  O   UNL     1       7.129  -3.752   2.346  0.00  0.00    -0.274 OA
ATOM     19  C   UNL     1       7.918  -2.110   0.883  0.00  0.00    +0.203 C 
ATOM     20  H   UNL     1       9.345  -4.496   2.759  0.00  0.00    +0.149 HD
ENDBRANCH   8  11
BRANCH   1  23
ATOM     21  C   UNL     1      -0.017   1.349   0.000  0.00  0.00    +0.009 A 
ATOM     22  C   UNL     1       1.183   2.038  -0.008  0.00  0.00    +0.031 A 
ATOM     23  C   UNL     1       2.346   1.330  -0.018  0.00  0.00    +0.073 A 
ATOM     24  S   UNL     1       1.753  -0.354  -0.017  0.00  0.00    -0.082 S 
ATOM     25  C   UNL     1       0.002  -0.005  -0.002  0.00  0.00    +0.047 A 
ENDBRANCH   1  23
TORSDOF 2
