REMARK  Name = ZINC63993611
REMARK  15 active torsions:
REMARK  status: ('A' for Active; 'I' for Inactive)
REMARK    1  A    between atoms: C_1  and  C_2
REMARK    2  A    between atoms: C_2  and  C_3
REMARK    3  A    between atoms: C_2  and  N_4
REMARK    4  A    between atoms: N_4  and  C_5
REMARK    5  A    between atoms: N_11  and  C_27
REMARK    6  A    between atoms: C_12  and  C_23
REMARK    7  A    between atoms: C_14  and  N_16
REMARK    8  A    between atoms: C_17  and  C_19
REMARK    9  A    between atoms: C_19  and  C_20
REMARK   10  A    between atoms: C_20  and  O_21
REMARK   11  A    between atoms: O_21  and  C_22
REMARK   12  A    between atoms: C_23  and  O_25
REMARK   13  A    between atoms: O_25  and  C_26
REMARK   14  A    between atoms: C_27  and  C_28
REMARK   15  A    between atoms: C_28  and  C_29
REMARK                            x       y       z     vdW  Elec       q    Type
REMARK                         _______ _______ _______ _____ _____    ______ ____
ROOT
ATOM      1  C   UNL     1       2.203  -0.048  -0.919  0.00  0.00    +0.044 A 
ATOM      2  C   UNL     1       2.724  -0.654  -2.061  0.00  0.00    +0.033 A 
ATOM      3  C   UNL     1       4.079  -0.915  -2.108  0.00  0.00    +0.015 A 
ATOM      4  C   UNL     1       4.890  -0.577  -1.033  0.00  0.00    +0.105 A 
ATOM      5  N   UNL     1       4.351   0.001   0.040  0.00  0.00    -0.348 N 
ATOM      6  C   UNL     1       3.065   0.272   0.119  0.00  0.00    +0.107 A 
ATOM      7  N   UNL     1       6.220  -0.919  -1.269  0.00  0.00    -0.301 N 
ATOM      8  C   UNL     1       6.357  -1.537  -2.591  0.00  0.00    +0.208 C 
ATOM      9  C   UNL     1       4.936  -1.549  -3.179  0.00  0.00    +0.138 C 
ATOM     10  H   UNL     1       4.926   0.234   0.785  0.00  0.00    +0.167 HD
ENDROOT
BRANCH   9  11
ATOM     11  N   UNL     1       4.885  -0.757  -4.410  0.00  0.00    -0.306 N 
ATOM     12  C   UNL     1       3.902  -0.968  -5.308  0.00  0.00    +0.216 C 
ATOM     13  O   UNL     1       3.059  -1.814  -5.096  0.00  0.00    -0.276 OA
ATOM     14  H   UNL     1       5.559  -0.080  -4.579  0.00  0.00    +0.149 HD
BRANCH  12  15
ATOM     15  C   UNL     1       3.850  -0.153  -6.574  0.00  0.00    +0.124 C 
BRANCH  15  16
ATOM     16  C   UNL     1       2.646  -0.588  -7.412  0.00  0.00    +0.168 C 
BRANCH  16  17
ATOM     17  O   UNL     1       2.597   0.185  -8.613  0.00  0.00    -0.382 OA
ATOM     18  C   UNL     1       1.503  -0.145  -9.471  0.00  0.00    +0.194 C 
ENDBRANCH  16  17
ENDBRANCH  15  16
ENDBRANCH  12  15
ENDBRANCH   9  11
BRANCH   1  19
ATOM     19  N   UNL     1       0.835   0.238  -0.823  0.00  0.00    -0.340 N 
ATOM     20  H   UNL     1       0.240   0.011  -1.555  0.00  0.00    +0.146 HD
BRANCH  19  22
ATOM     21  C   UNL     1       0.462   2.398   0.262  0.00  0.00    +0.027 C 
ATOM     22  C   UNL     1       0.303   0.881   0.381  0.00  0.00    +0.064 C 
ATOM     23  C   UNL     1      -1.179   0.534   0.532  0.00  0.00    +0.027 C 
ENDBRANCH  19  22
ENDBRANCH   1  19
BRANCH   8  24
ATOM     24  C   UNL     1       6.882  -2.943  -2.458  0.00  0.00    +0.330 C 
ATOM     25  O   UNL     1       6.688  -3.567  -1.442  0.00  0.00    -0.249 OA
BRANCH  24  26
ATOM     26  O   UNL     1       7.565  -3.503  -3.469  0.00  0.00    -0.467 OA
ATOM     27  C   UNL     1       8.034  -4.839  -3.275  0.00  0.00    +0.280 C 
ENDBRANCH  24  26
ENDBRANCH   8  24
BRANCH   7  28
ATOM     28  C   UNL     1       7.323  -0.693  -0.332  0.00  0.00    +0.112 C 
BRANCH  28  29
ATOM     29  C   UNL     1       7.897   0.709  -0.548  0.00  0.00    +0.052 C 
BRANCH  29  30
ATOM     30  C   UNL     1       9.065   0.922   0.379  0.00  0.00    -0.040 C 
ATOM     31  C   UNL     1      10.374   0.740   0.093  0.00  0.00    -0.001 A 
ATOM     32  C   UNL     1      11.076   0.305  -1.121  0.00  0.00    +0.010 A 
ATOM     33  C   UNL     1      12.425   0.216  -1.103  0.00  0.00    +0.001 A 
ATOM     34  C   UNL     1      13.169   0.528   0.044  0.00  0.00    +0.002 A 
ATOM     35  C   UNL     1      12.596   0.935   1.196  0.00  0.00    +0.026 A 
ATOM     36  C   UNL     1      11.183   1.064   1.290  0.00  0.00    +0.043 A 
ATOM     37  N   UNL     1      10.404   1.433   2.278  0.00  0.00    -0.380 N 
ATOM     38  C   UNL     1       9.011   1.389   1.817  0.00  0.00    +0.144 C 
ATOM     39  H   UNL     1      10.698   1.694   3.164  0.00  0.00    +0.160 HD
ENDBRANCH  29  30
ENDBRANCH  28  29
ENDBRANCH   7  28
TORSDOF 11
