REMARK  Name = ZINC20806977
REMARK  7 active torsions:
REMARK  status: ('A' for Active; 'I' for Inactive)
REMARK    1  A    between atoms: C_1  and  C_2
REMARK    2  A    between atoms: C_4  and  C_8
REMARK    3  A    between atoms: C_5  and  C_7
REMARK    4  A    between atoms: C_10  and  C_31
REMARK    5  A    between atoms: C_11  and  N_30
REMARK    6  A    between atoms: N_12  and  C_20
REMARK    7  A    between atoms: C_23  and  N_27
REMARK                            x       y       z     vdW  Elec       q    Type
REMARK                         _______ _______ _______ _____ _____    ______ ____
ROOT
ATOM      1  C   UNL     1       1.161   3.564   0.018  0.00  0.00    +0.098 C 
ATOM      2  C   UNL     1       1.151   2.064   0.002  0.00  0.00    +0.077 C 
ATOM      3  C   UNL     1      -0.017   1.370   0.010  0.00  0.00    +0.107 C 
ATOM      4  N   UNL     1      -1.218   2.041   0.019  0.00  0.00    -0.259 N 
ATOM      5  C   UNL     1      -1.288   3.354  -0.363  0.00  0.00    +0.025 C 
ATOM      6  C   UNL     1      -0.179   4.122  -0.390  0.00  0.00    +0.025 C 
ATOM      7  C   UNL     1      -0.238   5.465  -0.803  0.00  0.00    +0.162 C 
ATOM      8  O   UNL     1       0.778   6.133  -0.807  0.00  0.00    -0.292 OA
ATOM      9  C   UNL     1      -1.534   6.091  -1.239  0.00  0.00    +0.080 C 
ATOM     10  C   UNL     1      -2.444   5.002  -1.817  0.00  0.00    +0.014 C 
ATOM     11  C   UNL     1      -2.632   3.914  -0.758  0.00  0.00    +0.052 C 
ENDROOT
BRANCH   1  15
ATOM     12  C   UNL     1       0.296   3.918   5.024  0.00  0.00    +0.051 C 
ATOM     13  C   UNL     1       1.008   4.147   3.716  0.00  0.00    -0.013 A 
ATOM     14  C   UNL     1       0.682   3.702   2.478  0.00  0.00    +0.015 A 
ATOM     15  C   UNL     1       1.491   4.041   1.409  0.00  0.00    -0.025 A 
ATOM     16  C   UNL     1       2.589   4.804   1.632  0.00  0.00    -0.009 A 
ATOM     17  S   UNL     1       2.498   5.077   3.394  0.00  0.00    -0.098 S 
ATOM     18  C   UNL     1       3.619   5.296   0.648  0.00  0.00    +0.052 C 
ENDBRANCH   1  15
BRANCH   4  19
ATOM     19  C   UNL     1      -2.381   1.376   0.427  0.00  0.00    +0.058 A 
ATOM     20  C   UNL     1      -2.756   1.385   1.764  0.00  0.00    +0.027 A 
ATOM     21  C   UNL     1      -3.906   0.733   2.162  0.00  0.00    +0.034 A 
ATOM     22  C   UNL     1      -4.680   0.062   1.233  0.00  0.00    +0.128 A 
ATOM     23  C   UNL     1      -4.308   0.046  -0.099  0.00  0.00    +0.054 A 
ATOM     24  C   UNL     1      -3.161   0.701  -0.505  0.00  0.00    +0.065 A 
ATOM     25 CL   UNL     1      -2.694   0.680  -2.177  0.00  0.00    -0.082 Cl
BRANCH  22  26
ATOM     26  N   UNL     1      -5.909  -0.640   1.665  0.00  0.00    +0.056 N 
ATOM     27  O   UNL     1      -6.592  -1.231   0.848  0.00  0.00    -0.126 OA
ATOM     28  O   UNL     1      -6.238  -0.626   2.838  0.00  0.00    -0.126 OA
ENDBRANCH  22  26
ENDBRANCH   4  19
BRANCH   3  29
ATOM     29  N   UNL     1       0.002  -0.004   0.002  0.00  0.00    -0.345 N 
ATOM     30  H   UNL     1      -0.943  -0.567   0.008  0.00  0.00    +0.144 HD
ATOM     31  H   UNL     1       0.962  -0.541  -0.010  0.00  0.00    +0.144 HD
ENDBRANCH   3  29
BRANCH   2  32
ATOM     32  C   UNL     1       2.393   1.352  -0.021  0.00  0.00    +0.099 C 
ATOM     33  N   UNL     1       3.378   0.787  -0.040  0.00  0.00    -0.191 NA
ENDBRANCH   2  32
TORSDOF 5
