REMARK  Name = ZINC08451186
REMARK  12 active torsions:
REMARK  status: ('A' for Active; 'I' for Inactive)
REMARK    1  A    between atoms: C_1  and  C_2
REMARK    2  A    between atoms: C_2  and  O_3
REMARK    3  A    between atoms: O_3  and  C_4
REMARK    4  A    between atoms: C_4  and  C_6
REMARK    5  A    between atoms: C_7  and  C_22
REMARK    6  A    between atoms: C_9  and  N_21
REMARK    7  A    between atoms: C_10  and  C_19
REMARK    8  A    between atoms: C_11  and  C_13
REMARK    9  A    between atoms: C_22  and  S_23
REMARK   10  A    between atoms: S_23  and  C_24
REMARK   11  A    between atoms: C_25  and  C_34
REMARK   12  A    between atoms: C_33  and  N_59
REMARK                            x       y       z     vdW  Elec       q    Type
REMARK                         _______ _______ _______ _____ _____    ______ ____
ROOT
ATOM      1  C   UNL     1      -2.401  -4.130  -1.160  0.00  0.00    +0.088 C 
ATOM      2  C   UNL     1      -1.919  -3.715   0.018  0.00  0.00    +0.128 C 
ATOM      3  O   UNL     1      -2.530  -3.990   1.179  0.00  0.00    -0.444 OA
ATOM      4  C   UNL     1      -3.417  -4.999   1.234  0.00  0.00    +0.198 C 
ATOM      5  C   UNL     1      -3.996  -5.503   0.117  0.00  0.00    +0.098 C 
ATOM      6  C   UNL     1      -3.662  -4.946  -1.240  0.00  0.00    +0.105 C 
ENDROOT
BRANCH   6   7
ATOM      7  C   UNL     1      -4.792  -4.069  -1.714  0.00  0.00    -0.032 A 
ATOM      8  C   UNL     1      -5.179  -2.954  -0.986  0.00  0.00    +0.024 A 
ATOM      9  C   UNL     1      -6.216  -2.171  -1.455  0.00  0.00    +0.111 A 
ATOM     10  N   UNL     1      -6.842  -2.478  -2.574  0.00  0.00    -0.263 NA
ATOM     11  C   UNL     1      -6.504  -3.534  -3.289  0.00  0.00    +0.111 A 
ATOM     12  C   UNL     1      -5.473  -4.361  -2.886  0.00  0.00    +0.024 A 
ENDBRANCH   6   7
BRANCH   4  13
ATOM     13  N   UNL     1      -3.745  -5.534   2.455  0.00  0.00    -0.328 N 
ATOM     14  H   UNL     1      -3.339  -5.184   3.263  0.00  0.00    +0.145 HD
ATOM     15  H   UNL     1      -4.384  -6.262   2.510  0.00  0.00    +0.145 HD
ENDBRANCH   4  13
BRANCH   1  16
ATOM     16  C   UNL     1      -1.709  -3.799  -2.351  0.00  0.00    +0.339 C 
ATOM     17  O   UNL     1      -0.996  -4.624  -2.890  0.00  0.00    -0.245 OA
BRANCH  16  18
ATOM     18  O   UNL     1      -1.840  -2.568  -2.888  0.00  0.00    -0.462 OA
BRANCH  18  20
ATOM     19  C   UNL     1      -1.386  -0.867  -4.544  0.00  0.00    +0.048 C 
ATOM     20  C   UNL     1      -1.114  -2.303  -4.090  0.00  0.00    +0.229 C 
ENDBRANCH  18  20
ENDBRANCH  16  18
ENDBRANCH   1  16
BRANCH   5  21
ATOM     21  C   UNL     1      -4.936  -6.578   0.230  0.00  0.00    +0.101 C 
ATOM     22  N   UNL     1      -5.681  -7.430   0.319  0.00  0.00    -0.191 NA
ENDBRANCH   5  21
BRANCH   2  23
ATOM     23  C   UNL     1      -0.647  -2.906   0.040  0.00  0.00    +0.150 C 
BRANCH  23  24
ATOM     24  S   UNL     1      -1.045  -1.167   0.348  0.00  0.00    -0.097 S 
BRANCH  24  25
ATOM     25  C   UNL     1       0.575  -0.474   0.322  0.00  0.00    +0.115 A 
ATOM     26  C   UNL     1       0.750   0.907   0.526  0.00  0.00    +0.084 A 
ATOM     27  C   UNL     1       2.047   1.427   0.496  0.00  0.00    +0.025 A 
ATOM     28  C   UNL     1       3.108   0.561   0.268  0.00  0.00    -0.041 A 
ATOM     29  C   UNL     1       2.860  -0.783   0.081  0.00  0.00    +0.042 A 
ATOM     30  N   UNL     1       1.621  -1.253   0.111  0.00  0.00    -0.244 NA
ATOM     31  C   UNL     1       3.984  -1.762  -0.155  0.00  0.00    +0.037 C 
ATOM     32  C   UNL     1       5.250  -1.014  -0.574  0.00  0.00    -0.073 C 
ATOM     33  C   UNL     1       4.500   1.131   0.228  0.00  0.00    -0.042 C 
ATOM     34  C   UNL     1       6.859   0.596   0.257  0.00  0.00    -0.096 C 
ATOM     35  N   UNL     1       5.490   0.058   0.415  0.00  0.00    +0.381 N 
ATOM     36  H   UNL     1       5.391  -0.330   1.361  0.00  0.00    -0.082 HD
BRANCH  26  37
ATOM     37  C   UNL     1      -0.376   1.762   0.753  0.00  0.00    +0.102 C 
ATOM     38  N   UNL     1      -1.270   2.440   0.933  0.00  0.00    -0.191 NA
ENDBRANCH  26  37
ENDBRANCH  24  25
ENDBRANCH  23  24
ENDBRANCH   2  23
TORSDOF 10
