REMARK  Name = ZINC09450912
REMARK  8 active torsions:
REMARK  status: ('A' for Active; 'I' for Inactive)
REMARK    1  A    between atoms: C_1  and  C_2
REMARK    2  A    between atoms: C_5  and  N_9
REMARK    3  A    between atoms: C_7  and  C_8
REMARK    4  A    between atoms: C_14  and  C_34
REMARK    5  A    between atoms: C_16  and  C_21
REMARK    6  A    between atoms: C_16  and  C_32
REMARK    7  A    between atoms: C_21  and  C_22
REMARK    8  A    between atoms: C_39  and  O_40
REMARK                            x       y       z     vdW  Elec       q    Type
REMARK                         _______ _______ _______ _____ _____    ______ ____
ROOT
ATOM      1  N   UNL     1       2.794   4.299  -3.490  0.00  0.00    -0.210 N 
ATOM      2  C   UNL     1       2.016   4.648  -2.414  0.00  0.00    +0.229 C 
ATOM      3  O   UNL     1       0.905   5.132  -2.431  0.00  0.00    -0.275 OA
ATOM      4  C   UNL     1       2.821   4.312  -1.243  0.00  0.00    +0.077 C 
ATOM      5  C   UNL     1       2.491   3.903   0.146  0.00  0.00    -0.023 C 
ATOM      6  C   UNL     1       4.498   2.806  -0.643  0.00  0.00    +0.052 C 
ATOM      7  C   UNL     1       3.526   3.001  -1.782  0.00  0.00    +0.086 C 
ATOM      8  C   UNL     1       3.848   3.497  -3.138  0.00  0.00    +0.229 C 
ATOM      9  O   UNL     1       4.834   3.248  -3.798  0.00  0.00    -0.275 OA
ATOM     10  N   UNL     1       3.627   3.026   0.550  0.00  0.00    +0.396 N 
ATOM     11  H   UNL     1       3.268   2.126   0.889  0.00  0.00    -0.083 HD
ATOM     12  H   UNL     1       4.168   3.481   1.296  0.00  0.00    -0.083 HD
ENDROOT
BRANCH   1  17
ATOM     13  C   UNL     1       1.757   5.991  -8.807  0.00  0.00    +0.044 C 
ATOM     14  C   UNL     1       2.033   5.542  -7.395  0.00  0.00    -0.047 A 
ATOM     15  C   UNL     1       3.121   4.732  -7.129  0.00  0.00    +0.005 A 
ATOM     16  C   UNL     1       3.376   4.319  -5.836  0.00  0.00    +0.024 A 
ATOM     17  C   UNL     1       2.538   4.717  -4.803  0.00  0.00    +0.044 A 
ATOM     18  C   UNL     1       1.443   5.526  -5.074  0.00  0.00    +0.027 A 
ATOM     19  C   UNL     1       1.196   5.941  -6.369  0.00  0.00    -0.046 A 
ATOM     20  C   UNL     1       0.011   6.824  -6.663  0.00  0.00    +0.044 C 
ENDBRANCH   1  17
BRANCH   5  21
ATOM     21  C   UNL     1       1.194   3.136   0.175  0.00  0.00    -0.019 A 
ATOM     22  C   UNL     1       1.197   1.766  -0.003  0.00  0.00    +0.005 A 
ATOM     23  C   UNL     1       0.007   1.062   0.024  0.00  0.00    +0.000 A 
ATOM     24  C   UNL     1      -1.188   1.727   0.223  0.00  0.00    +0.004 A 
ATOM     25  C   UNL     1      -1.196   3.096   0.406  0.00  0.00    +0.045 A 
ATOM     26  C   UNL     1      -0.004   3.805   0.380  0.00  0.00    +0.118 A 
BRANCH  26  27
ATOM     27  O   UNL     1      -0.010   5.153   0.555  0.00  0.00    -0.507 OA
ATOM     28  H   UNL     1      -0.098   5.656  -0.266  0.00  0.00    +0.292 HD
ENDBRANCH  26  27
ENDBRANCH   5  21
BRANCH   6  29
ATOM     29  C   UNL     1       5.062   1.408  -0.654  0.00  0.00    +0.347 C 
ATOM     30  O   UNL     1       5.195   0.819  -1.700  0.00  0.00    -0.248 OA
ATOM     31  O   UNL     1       5.418   0.819   0.498  0.00  0.00    -0.248 OA
ENDBRANCH   6  29
BRANCH   6  32
ATOM     32  C   UNL     1       5.618   3.846  -0.699  0.00  0.00    +0.037 C 
BRANCH  32  33
ATOM     33  C   UNL     1       6.488   3.716   0.524  0.00  0.00    -0.023 A 
ATOM     34  C   UNL     1       6.376   4.419   1.662  0.00  0.00    +0.087 A 
ATOM     35  N   UNL     1       7.339   4.025   2.551  0.00  0.00    -0.360 N 
ATOM     36  H   UNL     1       7.458   4.390   3.442  0.00  0.00    +0.165 HD
ATOM     37  C   UNL     1       8.114   3.034   1.992  0.00  0.00    +0.047 A 
ATOM     38  C   UNL     1       7.612   2.792   0.700  0.00  0.00    +0.003 A 
ATOM     39  C   UNL     1       8.213   1.830  -0.113  0.00  0.00    +0.010 A 
ATOM     40  C   UNL     1       9.282   1.119   0.355  0.00  0.00    +0.001 A 
ATOM     41  C   UNL     1       9.778   1.349   1.631  0.00  0.00    +0.002 A 
ATOM     42  C   UNL     1       9.203   2.298   2.448  0.00  0.00    +0.026 A 
ENDBRANCH  32  33
ENDBRANCH   6  32
TORSDOF 6
