REMARK  Name = ZINC12705233
REMARK  10 active torsions:
REMARK  status: ('A' for Active; 'I' for Inactive)
REMARK    1  A    between atoms: C_1  and  C_2
REMARK    2  A    between atoms: C_5  and  C_8
REMARK    3  A    between atoms: C_8  and  C_10
REMARK    4  A    between atoms: C_8  and  N_19
REMARK    5  A    between atoms: N_12  and  C_13
REMARK    6  A    between atoms: N_19  and  C_20
REMARK    7  A    between atoms: C_20  and  C_21
REMARK    8  A    between atoms: C_27  and  C_29
REMARK    9  A    between atoms: C_30  and  N_37
REMARK   10  A    between atoms: C_31  and  C_34
REMARK                            x       y       z     vdW  Elec       q    Type
REMARK                         _______ _______ _______ _____ _____    ______ ____
ROOT
ATOM      1  N   UNL     1       3.333  -0.870   0.154  0.00  0.00    -0.277 N 
ATOM      2  C   UNL     1       2.356  -1.476   0.857  0.00  0.00    +0.258 C 
ATOM      3  O   UNL     1       2.539  -1.773   2.023  0.00  0.00    -0.269 OA
ENDROOT
BRANCH   2   4
ATOM      4  C   UNL     1       1.073  -1.778   0.218  0.00  0.00    +0.115 A 
ATOM      5  C   UNL     1       0.096  -2.704   0.589  0.00  0.00    +0.076 A 
ATOM      6  C   UNL     1      -0.998  -2.701  -0.277  0.00  0.00    +0.155 A 
ATOM      7  N   UNL     1      -1.007  -1.875  -1.300  0.00  0.00    -0.203 NA
ATOM      8  S   UNL     1       0.342  -1.062  -1.239  0.00  0.00    +0.019 S 
BRANCH   6   9
ATOM      9  C   UNL     1      -2.132  -3.614  -0.046  0.00  0.00    +0.262 C 
ATOM     10  O   UNL     1      -2.118  -4.375   0.902  0.00  0.00    -0.269 OA
ATOM     11  N   UNL     1      -3.186  -3.605  -0.887  0.00  0.00    -0.324 N 
ATOM     12  H   UNL     1      -3.198  -2.998  -1.643  0.00  0.00    +0.145 HD
ATOM     13  H   UNL     1      -3.933  -4.206  -0.735  0.00  0.00    +0.145 HD
ENDBRANCH   6   9
BRANCH   5  14
ATOM     14  N   UNL     1       0.202  -3.535   1.696  0.00  0.00    -0.355 N 
ATOM     15  H   UNL     1      -0.511  -4.160   1.903  0.00  0.00    +0.142 HD
ATOM     16  H   UNL     1       0.988  -3.492   2.262  0.00  0.00    +0.142 HD
ENDBRANCH   5  14
ENDBRANCH   2   4
BRANCH   1  17
ATOM     17  C   UNL     1       4.615  -0.567   0.793  0.00  0.00    +0.193 C 
BRANCH  17  22
ATOM     18  C   UNL     1       4.605   4.911   2.634  0.00  0.00    +0.044 C 
ATOM     19  C   UNL     1       4.607   3.482   2.154  0.00  0.00    -0.050 A 
ATOM     20  C   UNL     1       5.140   2.486   2.951  0.00  0.00    +0.004 A 
ATOM     21  C   UNL     1       5.143   1.176   2.511  0.00  0.00    +0.006 A 
ATOM     22  C   UNL     1       4.612   0.861   1.273  0.00  0.00    -0.018 A 
ATOM     23  C   UNL     1       4.085   1.858   0.474  0.00  0.00    +0.006 A 
ATOM     24  C   UNL     1       4.078   3.168   0.916  0.00  0.00    +0.004 A 
ENDBRANCH  17  22
BRANCH  17  25
ATOM     25  C   UNL     1       5.731  -0.760  -0.202  0.00  0.00    +0.238 C 
ATOM     26  O   UNL     1       5.813  -0.034  -1.169  0.00  0.00    -0.273 OA
ATOM     27  N   UNL     1       6.636  -1.742  -0.016  0.00  0.00    -0.311 N 
ATOM     28  H   UNL     1       6.570  -2.323   0.757  0.00  0.00    +0.149 HD
BRANCH  27  29
ATOM     29  C   UNL     1       7.720  -1.929  -0.984  0.00  0.00    +0.073 C 
ATOM     30  C   UNL     1       7.227  -2.803  -2.139  0.00  0.00    +0.022 C 
ATOM     31  C   UNL     1       8.360  -3.000  -3.149  0.00  0.00    +0.002 C 
ATOM     32  C   UNL     1       9.543  -3.683  -2.461  0.00  0.00    +0.000 C 
ATOM     33  C   UNL     1      10.036  -2.809  -1.306  0.00  0.00    +0.002 C 
ATOM     34  C   UNL     1       8.904  -2.613  -0.296  0.00  0.00    +0.022 C 
ENDBRANCH  27  29
ENDBRANCH  17  25
ENDBRANCH   1  17
BRANCH   1  35
ATOM     35  C   UNL     1       3.112  -0.514  -1.250  0.00  0.00    +0.144 C 
BRANCH  35  36
ATOM     36  C   UNL     1       3.358  -1.720  -2.119  0.00  0.00    -0.030 A 
ATOM     37  C   UNL     1       4.174  -1.617  -3.229  0.00  0.00    +0.005 A 
ATOM     38  C   UNL     1       4.404  -2.724  -4.024  0.00  0.00    +0.000 A 
ATOM     39  C   UNL     1       3.809  -3.933  -3.714  0.00  0.00    +0.000 A 
ATOM     40  C   UNL     1       2.988  -4.035  -2.607  0.00  0.00    +0.000 A 
ATOM     41  C   UNL     1       2.762  -2.928  -1.809  0.00  0.00    +0.005 A 
ENDBRANCH  35  36
ENDBRANCH   1  35
TORSDOF 9
