REMARK  Name = ZINC23245585
REMARK  7 active torsions:
REMARK  status: ('A' for Active; 'I' for Inactive)
REMARK    1  A    between atoms: C_3  and  C_16
REMARK    2  A    between atoms: C_5  and  S_7
REMARK    3  A    between atoms: S_7  and  N_10
REMARK    4  A    between atoms: C_19  and  S_21
REMARK    5  A    between atoms: S_21  and  C_22
REMARK    6  A    between atoms: C_25  and  N_30
REMARK    7  A    between atoms: C_27  and  C_28
REMARK                            x       y       z     vdW  Elec       q    Type
REMARK                         _______ _______ _______ _____ _____    ______ ____
ROOT
ATOM      1  C   UNL     1       2.371   4.597  -0.354  0.00  0.00    +0.249 A 
ATOM      2  N   UNL     1       3.598   4.076  -0.136  0.00  0.00    -0.106 NA
ATOM      3  N   UNL     1       4.442   5.038   0.001  0.00  0.00    -0.100 NA
ATOM      4  C   UNL     1       3.789   6.215  -0.115  0.00  0.00    +0.282 A 
ATOM      5  O   UNL     1       2.488   5.938  -0.338  0.00  0.00    -0.411 OA
ENDROOT
BRANCH   1   8
ATOM      6  C   UNL     1      -1.189   3.822  -0.965  0.00  0.00    +0.003 A 
ATOM      7  C   UNL     1      -0.043   4.538  -0.770  0.00  0.00    +0.013 A 
ATOM      8  C   UNL     1       1.176   3.864  -0.557  0.00  0.00    +0.040 A 
ATOM      9  C   UNL     1       1.197   2.455  -0.549  0.00  0.00    +0.041 A 
ATOM     10  C   UNL     1       0.038   1.759  -0.747  0.00  0.00    +0.106 A 
ATOM     11  C   UNL     1      -1.155   2.434  -0.961  0.00  0.00    +0.028 A 
BRANCH  10  12
ATOM     12  S   UNL     1       0.061  -0.003  -0.738  0.00  0.00    +0.061 S 
ATOM     13  O   UNL     1      -1.068  -0.427  -1.490  0.00  0.00    -0.153 OA
ATOM     14  O   UNL     1       1.387  -0.394  -1.067  0.00  0.00    -0.153 OA
BRANCH  12  15
ATOM     15  N   UNL     1      -0.202  -0.487   0.824  0.00  0.00    -0.177 NA
ATOM     16  C   UNL     1       0.925  -0.696   1.743  0.00  0.00    +0.109 C 
ATOM     17  C   UNL     1       0.681   0.135   3.012  0.00  0.00    +0.017 C 
ATOM     18  C   UNL     1      -0.684  -0.230   3.599  0.00  0.00    +0.003 C 
ATOM     19  C   UNL     1      -1.782   0.103   2.587  0.00  0.00    +0.017 C 
ATOM     20  C   UNL     1      -1.567  -0.723   1.315  0.00  0.00    +0.109 C 
ENDBRANCH  12  15
ENDBRANCH  10  12
ENDBRANCH   1   8
BRANCH   4  21
ATOM     21  S   UNL     1       4.486   7.774  -0.001  0.00  0.00    -0.028 S 
BRANCH  21  22
ATOM     22  C   UNL     1       6.189   7.339   0.131  0.00  0.00    +0.035 A 
ATOM     23  C   UNL     1       6.837   7.405   1.367  0.00  0.00    +0.019 A 
ATOM     24  C   UNL     1       8.167   7.059   1.466  0.00  0.00    +0.034 A 
ATOM     25  C   UNL     1       8.875   6.653   0.343  0.00  0.00    +0.127 A 
ATOM     26  C   UNL     1       8.254   6.586  -0.890  0.00  0.00    +0.052 A 
ATOM     27  C   UNL     1       6.907   6.927  -1.011  0.00  0.00    +0.068 A 
BRANCH  25  28
ATOM     28  N   UNL     1      10.306   6.291   0.466  0.00  0.00    +0.056 N 
ATOM     29  O   UNL     1      10.981   5.906  -0.597  0.00  0.00    -0.126 OA
ATOM     30  O   UNL     1      10.902   6.353   1.638  0.00  0.00    -0.126 OA
ENDBRANCH  25  28
BRANCH  27  31
ATOM     31  C   UNL     1       6.258   6.859  -2.286  0.00  0.00    +0.100 C 
ATOM     32  N   UNL     1       5.744   6.805  -3.297  0.00  0.00    -0.191 NA
ENDBRANCH  27  31
ENDBRANCH  21  22
ENDBRANCH   4  21
TORSDOF 7
