REMARK  Name = ZINC39485954
REMARK  7 active torsions:
REMARK  status: ('A' for Active; 'I' for Inactive)
REMARK    1  A    between atoms: C_1  and  C_2
REMARK    2  A    between atoms: C_2  and  C_3
REMARK    3  A    between atoms: C_2  and  C_4
REMARK    4  A    between atoms: C_6  and  C_10
REMARK    5  A    between atoms: N_12  and  C_13
REMARK    6  A    between atoms: N_12  and  C_14
REMARK    7  A    between atoms: C_14  and  C_15
REMARK                            x       y       z     vdW  Elec       q    Type
REMARK                         _______ _______ _______ _____ _____    ______ ____
ROOT
ATOM      1  C   UNL     1      -4.314  -0.769  -1.353  0.00  0.00    +0.240 C 
ATOM      2  O   UNL     1      -4.811   0.220  -0.858  0.00  0.00    -0.273 OA
ATOM      3  N   UNL     1      -4.622  -1.117  -2.618  0.00  0.00    -0.300 N 
ATOM      4  C   UNL     1      -4.021  -2.312  -3.216  0.00  0.00    +0.132 C 
ENDROOT
BRANCH   1   7
ATOM      5  C   UNL     1      -1.412  -0.526   0.013  0.00  0.00    +0.126 C 
ATOM      6  C   UNL     1      -1.918  -1.291  -0.930  0.00  0.00    +0.048 C 
ATOM      7  C   UNL     1      -3.352  -1.609  -0.553  0.00  0.00    +0.204 C 
ATOM      8  N   UNL     1      -3.398  -1.245   0.886  0.00  0.00    -0.140 NA
ATOM      9  O   UNL     1      -2.305  -0.265   0.997  0.00  0.00    -0.410 OA
ATOM     10  H   UNL     1      -4.286  -0.829   1.126  0.00  0.00    +0.168 HD
BRANCH   5  12
ATOM     11  C   UNL     1      -0.019   1.526   0.010  0.00  0.00    +0.015 C 
ATOM     12  C   UNL     1       0.002  -0.004   0.002  0.00  0.00    +0.051 C 
ATOM     13  C   UNL     1       0.742  -0.511   1.242  0.00  0.00    +0.015 C 
ENDBRANCH   5  12
ENDBRANCH   1   7
BRANCH   3  14
ATOM     14  C   UNL     1      -5.557  -0.300  -3.396  0.00  0.00    +0.140 C 
BRANCH  14  15
ATOM     15  C   UNL     1      -4.782   0.781  -4.152  0.00  0.00    +0.173 C 
ATOM     16  C   UNL     1      -5.727   1.752  -4.814  0.00  0.00    -0.019 C 
ATOM     17  C   UNL     1      -5.455   2.934  -4.252  0.00  0.00    +0.065 C 
ATOM     18  C   UNL     1      -6.178   4.209  -4.625  0.00  0.00    +0.057 C 
ATOM     19  C   UNL     1      -6.885   3.993  -5.968  0.00  0.00    +0.006 C 
ATOM     20  C   UNL     1      -7.711   2.705  -5.915  0.00  0.00    +0.005 C 
ATOM     21  C   UNL     1      -6.762   1.499  -5.870  0.00  0.00    +0.035 C 
ATOM     22  N   UNL     1      -4.469   2.796  -3.338  0.00  0.00    -0.158 NA
ATOM     23  N   UNL     1      -4.033   1.641  -3.216  0.00  0.00    -0.178 NA
ENDBRANCH  14  15
ENDBRANCH   3  14
TORSDOF 4
