REMARK  Name = ZINC15140977
REMARK  6 active torsions:
REMARK  status: ('A' for Active; 'I' for Inactive)
REMARK    1  A    between atoms: C_3  and  N_11
REMARK    2  A    between atoms: C_6  and  C_7
REMARK    3  A    between atoms: C_15  and  S_18
REMARK    4  A    between atoms: S_18  and  C_19
REMARK    5  A    between atoms: N_24  and  C_25
REMARK    6  A    between atoms: C_25  and  C_26
REMARK                            x       y       z     vdW  Elec       q    Type
REMARK                         _______ _______ _______ _____ _____    ______ ____
ROOT
ATOM      1  N   UNL     1      -2.035   3.017   5.141  0.00  0.00    -0.177 N 
ATOM      2  C   UNL     1      -3.160   3.673   4.797  0.00  0.00    +0.293 A 
ATOM      3  O   UNL     1      -3.418   3.876   3.620  0.00  0.00    -0.264 OA
ATOM      4  C   UNL     1      -4.034   4.121   5.798  0.00  0.00    +0.122 A 
ATOM      5  C   UNL     1      -3.718   3.877   7.123  0.00  0.00    +0.058 A 
ATOM      6  C   UNL     1      -2.527   3.186   7.436  0.00  0.00    +0.150 A 
ATOM      7  N   UNL     1      -1.735   2.775   6.486  0.00  0.00    -0.169 NA
ATOM      8 CL   UNL     1      -5.491   4.968   5.380  0.00  0.00    -0.077 Cl
ENDROOT
BRANCH   1  11
ATOM      9  C   UNL     1       0.851   1.450   3.505  0.00  0.00    +0.017 A 
ATOM     10  C   UNL     1      -0.002   1.893   4.502  0.00  0.00    +0.049 A 
ATOM     11  C   UNL     1      -1.163   2.570   4.147  0.00  0.00    +0.158 A 
ATOM     12  N   UNL     1      -1.450   2.795   2.874  0.00  0.00    -0.235 NA
ATOM     13  C   UNL     1      -0.654   2.390   1.904  0.00  0.00    +0.125 A 
ATOM     14  C   UNL     1       0.516   1.711   2.184  0.00  0.00    +0.073 A 
BRANCH  14  15
ATOM     15  C   UNL     1       1.417   1.253   1.066  0.00  0.00    +0.419 C 
ATOM     16  F   UNL     1       0.863   1.627  -0.163  0.00  0.00    -0.166 F 
ATOM     17  F   UNL     1       1.549  -0.139   1.114  0.00  0.00    -0.166 F 
ATOM     18  F   UNL     1       2.676   1.845   1.210  0.00  0.00    -0.166 F 
ENDBRANCH  14  15
ENDBRANCH   1  11
BRANCH   5  19
ATOM     19  S   UNL     1      -4.791   4.425   8.409  0.00  0.00    -0.058 S 
BRANCH  19  20
ATOM     20  C   UNL     1      -5.313   2.871   9.055  0.00  0.00    +0.165 A 
ATOM     21  N   UNL     1      -5.057   1.655   8.615  0.00  0.00    -0.133 NA
ATOM     22  N   UNL     1      -5.567   0.564   9.280  0.00  0.00    -0.125 NA
ATOM     23  C   UNL     1      -6.320   0.741  10.349  0.00  0.00    +0.182 A 
ATOM     24  S   UNL     1      -6.338   2.523  10.476  0.00  0.00    -0.024 S 
ATOM     25  N   UNL     1      -6.934  -0.205  11.160  0.00  0.00    -0.320 N 
ATOM     26  H   UNL     1      -7.464   0.079  11.921  0.00  0.00    +0.148 HD
BRANCH  25  27
ATOM     27  C   UNL     1      -6.782  -1.632  10.865  0.00  0.00    +0.135 C 
BRANCH  27  28
ATOM     28  C   UNL     1      -7.552  -2.452  11.902  0.00  0.00    +0.135 C 
ATOM     29  C   UNL     1      -7.305  -3.962  11.685  0.00  0.00    +0.035 C 
ATOM     30  C   UNL     1      -8.669  -4.615  12.000  0.00  0.00    +0.031 C 
ATOM     31  C   UNL     1      -9.580  -3.423  12.369  0.00  0.00    +0.160 C 
ATOM     32  O   UNL     1      -8.975  -2.282  11.722  0.00  0.00    -0.375 OA
ENDBRANCH  27  28
ENDBRANCH  25  27
ENDBRANCH  19  20
ENDBRANCH   5  19
TORSDOF 6
