REMARK  Name = ZINC37129849
REMARK  3 active torsions:
REMARK  status: ('A' for Active; 'I' for Inactive)
REMARK    1  A    between atoms: C_2  and  C_7
REMARK    2  A    between atoms: C_7  and  N_8
REMARK    3  A    between atoms: N_8  and  C_9
REMARK                            x       y       z     vdW  Elec       q    Type
REMARK                         _______ _______ _______ _____ _____    ______ ____
ROOT
ATOM      1  C   UNL     1       1.242   5.401   1.655  0.00  0.00    +0.044 A 
ATOM      2  C   UNL     1       1.238   6.307   0.604  0.00  0.00    +0.051 A 
ATOM      3  C   UNL     1       1.258   7.667   0.868  0.00  0.00    +0.069 A 
ATOM      4  C   UNL     1       1.282   8.122   2.188  0.00  0.00    +0.068 A 
ATOM      5  C   UNL     1       1.286   7.212   3.234  0.00  0.00    +0.045 A 
ATOM      6  C   UNL     1       1.261   5.857   2.969  0.00  0.00    +0.041 A 
ATOM      7 BR   UNL     1       1.259   4.617   4.397  0.00  0.00    -0.048 Br
ATOM      8  N   UNL     1       1.297   9.516   2.133  0.00  0.00    -0.306 N 
ATOM      9  H   UNL     1       1.315  10.114   2.897  0.00  0.00    +0.170 HD
ATOM     10  C   UNL     1       1.283   9.889   0.840  0.00  0.00    +0.325 A 
ATOM     11  O   UNL     1       1.291  11.039   0.442  0.00  0.00    -0.247 OA
ATOM     12  N   UNL     1       1.260   8.797   0.052  0.00  0.00    -0.306 N 
ATOM     13  H   UNL     1       1.246   8.797  -0.917  0.00  0.00    +0.170 HD
ENDROOT
BRANCH   1  14
ATOM     14  N   UNL     1       1.222   4.027   1.393  0.00  0.00    -0.339 N 
ATOM     15  H   UNL     1       1.221   3.393   2.127  0.00  0.00    +0.146 HD
BRANCH  14  16
ATOM     16  C   UNL     1       1.203   3.545   0.009  0.00  0.00    +0.137 C 
BRANCH  16  18
ATOM     17  C   UNL     1      -0.016   1.352   0.009  0.00  0.00    +0.028 A 
ATOM     18  C   UNL     1       1.184   2.038   0.002  0.00  0.00    -0.022 A 
ATOM     19  C   UNL     1       2.343   1.336  -0.013  0.00  0.00    +0.051 A 
ATOM     20  S   UNL     1       1.754  -0.349  -0.017  0.00  0.00    -0.090 S 
ATOM     21  C   UNL     1       0.002  -0.004   0.002  0.00  0.00    +0.055 A 
ATOM     22 BR   UNL     1      -1.450  -1.215   0.010  0.00  0.00    -0.043 Br
ENDBRANCH  16  18
ENDBRANCH  14  16
ENDBRANCH   1  14
TORSDOF 3
