REMARK  Name = ZINC20686953
REMARK  16 active torsions:
REMARK  status: ('A' for Active; 'I' for Inactive)
REMARK    1  A    between atoms: C_1  and  C_2
REMARK    2  A    between atoms: C_2  and  O_3
REMARK    3  A    between atoms: O_3  and  C_4
REMARK    4  A    between atoms: C_7  and  C_13
REMARK    5  A    between atoms: C_9  and  O_10
REMARK    6  A    between atoms: O_10  and  C_11
REMARK    7  A    between atoms: C_11  and  C_12
REMARK    8  A    between atoms: C_13  and  C_14
REMARK    9  A    between atoms: C_14  and  N_15
REMARK   10  A    between atoms: C_16  and  C_26
REMARK   11  A    between atoms: N_28  and  C_29
REMARK   12  A    between atoms: C_29  and  C_30
REMARK   13  A    between atoms: C_30  and  C_31
REMARK   14  A    between atoms: C_31  and  N_32
REMARK   15  A    between atoms: C_33  and  C_41
REMARK   16  A    between atoms: C_38  and  C_40
REMARK                            x       y       z     vdW  Elec       q    Type
REMARK                         _______ _______ _______ _____ _____    ______ ____
ROOT
ATOM      1  N   UNL     1       0.665   0.544  -2.745  0.00  0.00    -0.282 N 
ATOM      2  C   UNL     1      -0.053   0.009  -3.907  0.00  0.00    +0.193 C 
ATOM      3  C   UNL     1       0.997  -0.571  -4.822  0.00  0.00    -0.006 A 
ATOM      4  C   UNL     1       0.939  -1.201  -6.044  0.00  0.00    +0.007 A 
ATOM      5  C   UNL     1       2.103  -1.640  -6.651  0.00  0.00    +0.000 A 
ATOM      6  C   UNL     1       3.326  -1.447  -6.033  0.00  0.00    +0.001 A 
ATOM      7  C   UNL     1       3.396  -0.817  -4.808  0.00  0.00    +0.013 A 
ATOM      8  C   UNL     1       2.226  -0.371  -4.189  0.00  0.00    +0.042 A 
ATOM      9  C   UNL     1       1.981   0.321  -2.909  0.00  0.00    +0.248 C 
ATOM     10  O   UNL     1       2.844   0.642  -2.116  0.00  0.00    -0.270 OA
ENDROOT
BRANCH   2  11
ATOM     11  C   UNL     1      -1.014  -1.067  -3.471  0.00  0.00    +0.238 C 
ATOM     12  O   UNL     1      -1.099  -1.365  -2.299  0.00  0.00    -0.273 OA
ATOM     13  N   UNL     1      -1.780  -1.697  -4.384  0.00  0.00    -0.314 N 
ATOM     14  H   UNL     1      -1.703  -1.426  -5.447  0.00  0.00    +0.149 HD
BRANCH  13  15
ATOM     15  C   UNL     1      -2.715  -2.742  -3.959  0.00  0.00    +0.102 C 
BRANCH  15  16
ATOM     16  C   UNL     1      -3.455  -3.290  -5.181  0.00  0.00    +0.000 C 
BRANCH  16  17
ATOM     17  C   UNL     1      -4.431  -4.382  -4.738  0.00  0.00    -0.077 C 
BRANCH  17  18
ATOM     18  N   UNL     1      -5.224  -4.827  -5.891  0.00  0.00    +0.383 N 
ATOM     19  C   UNL     1      -6.350  -5.668  -5.463  0.00  0.00    -0.071 C 
ATOM     20  C   UNL     1      -7.234  -5.992  -6.670  0.00  0.00    -0.016 C 
ATOM     21  C   UNL     1      -6.400  -6.722  -7.726  0.00  0.00    -0.003 C 
ATOM     22  C   UNL     1      -5.207  -5.846  -8.119  0.00  0.00    -0.016 C 
ATOM     23  C   UNL     1      -4.382  -5.526  -6.871  0.00  0.00    -0.071 C 
ATOM     24  C   UNL     1      -3.860  -6.827  -6.258  0.00  0.00    -0.013 C 
ATOM     25  C   UNL     1      -7.174  -4.920  -4.414  0.00  0.00    -0.013 C 
ATOM     26  H   UNL     1      -5.640  -3.935  -6.383  0.00  0.00    -0.081 HD
ENDBRANCH  17  18
ENDBRANCH  16  17
ENDBRANCH  15  16
ENDBRANCH  13  15
ENDBRANCH   2  11
BRANCH   1  27
ATOM     27  C   UNL     1       0.050   1.209  -1.594  0.00  0.00    +0.114 C 
BRANCH  27  28
ATOM     28  C   UNL     1      -0.030   2.714  -1.856  0.00  0.00    +0.054 C 
BRANCH  28  32
ATOM     29  C   UNL     1      -1.832   4.652   1.503  0.00  0.00    +0.162 A 
ATOM     30  C   UNL     1      -2.620   4.192   0.460  0.00  0.00    +0.050 A 
ATOM     31  C   UNL     1      -2.034   3.571  -0.627  0.00  0.00    +0.007 A 
ATOM     32  C   UNL     1      -0.663   3.397  -0.671  0.00  0.00    -0.042 A 
ATOM     33  C   UNL     1       0.128   3.854   0.366  0.00  0.00    +0.053 A 
ATOM     34  C   UNL     1      -0.452   4.482   1.456  0.00  0.00    +0.162 A 
BRANCH  29  35
ATOM     35  O   UNL     1      -2.407   5.268   2.571  0.00  0.00    -0.489 OA
BRANCH  35  37
ATOM     36  C   UNL     1      -4.289   6.120   3.825  0.00  0.00    +0.048 C 
ATOM     37  C   UNL     1      -3.829   5.408   2.552  0.00  0.00    +0.226 C 
ENDBRANCH  35  37
ENDBRANCH  29  35
BRANCH  34  38
ATOM     38  O   UNL     1       0.325   4.932   2.477  0.00  0.00    -0.489 OA
BRANCH  38  39
ATOM     39  C   UNL     1       1.734   4.722   2.360  0.00  0.00    +0.226 C 
ATOM     40  C   UNL     1       2.438   5.290   3.595  0.00  0.00    +0.048 C 
ENDBRANCH  38  39
ENDBRANCH  34  38
ENDBRANCH  28  32
ENDBRANCH  27  28
ENDBRANCH   1  27
TORSDOF 12
