REMARK  Name = ZINC39915874
REMARK  13 active torsions:
REMARK  status: ('A' for Active; 'I' for Inactive)
REMARK    1  A    between atoms: C_1  and  C_2
REMARK    2  A    between atoms: C_2  and  C_3
REMARK    3  A    between atoms: C_2  and  O_4
REMARK    4  A    between atoms: O_4  and  C_5
REMARK    5  A    between atoms: C_10  and  C_11
REMARK    6  A    between atoms: C_11  and  N_12
REMARK    7  A    between atoms: C_20  and  S_21
REMARK    8  A    between atoms: S_21  and  C_22
REMARK    9  A    between atoms: C_24  and  O_37
REMARK   10  A    between atoms: C_26  and  O_36
REMARK   11  A    between atoms: C_28  and  O_35
REMARK   12  A    between atoms: C_30  and  C_33
REMARK   13  A    between atoms: C_33  and  O_34
REMARK                            x       y       z     vdW  Elec       q    Type
REMARK                         _______ _______ _______ _____ _____    ______ ____
ROOT
ATOM      1  N   UNL     1      -4.577  -0.013   0.577  0.00  0.00    -0.314 N 
ATOM      2  C   UNL     1      -3.928   0.823   1.471  0.00  0.00    +0.070 A 
ATOM      3  C   UNL     1      -2.692   0.786   2.099  0.00  0.00    +0.028 A 
ATOM      4  C   UNL     1      -2.328   1.801   2.959  0.00  0.00    +0.002 A 
ATOM      5  C   UNL     1      -3.190   2.859   3.202  0.00  0.00    +0.002 A 
ATOM      6  C   UNL     1      -4.421   2.913   2.588  0.00  0.00    +0.030 A 
ATOM      7  C   UNL     1      -4.805   1.893   1.713  0.00  0.00    +0.090 A 
ATOM      8  N   UNL     1      -5.923   1.669   0.975  0.00  0.00    -0.222 NA
ATOM      9  C   UNL     1      -5.790   0.552   0.302  0.00  0.00    +0.173 A 
ENDROOT
BRANCH   1  10
ATOM     10  C   UNL     1      -4.057  -1.267   0.026  0.00  0.00    +0.163 C 
BRANCH  10  16
ATOM     11  C   UNL     1      -1.965  -0.607  -1.189  0.00  0.00    +0.126 A 
ATOM     12  C   UNL     1      -1.269  -0.349  -2.361  0.00  0.00    +0.046 A 
ATOM     13  C   UNL     1      -1.908  -0.460  -3.581  0.00  0.00    +0.004 A 
ATOM     14  C   UNL     1      -3.240  -0.827  -3.634  0.00  0.00    +0.001 A 
ATOM     15  C   UNL     1      -3.936  -1.084  -2.468  0.00  0.00    +0.009 A 
ATOM     16  C   UNL     1      -3.300  -0.980  -1.245  0.00  0.00    +0.014 A 
BRANCH  11  17
ATOM     17  O   UNL     1      -1.339  -0.499   0.012  0.00  0.00    -0.489 OA
BRANCH  17  19
ATOM     18  C   UNL     1       0.295   1.276  -0.139  0.00  0.00    +0.051 C 
ATOM     19  C   UNL     1       0.065  -0.231  -0.010  0.00  0.00    +0.167 C 
ATOM     20  C   UNL     1       0.701  -0.734   1.288  0.00  0.00    +0.051 C 
ENDBRANCH  17  19
ENDBRANCH  11  17
ENDBRANCH  10  16
ENDBRANCH   1  10
BRANCH   9  21
ATOM     21  S   UNL     1      -6.996  -0.122  -0.791  0.00  0.00    -0.054 S 
BRANCH  21  22
ATOM     22  C   UNL     1      -8.360   1.073  -0.731  0.00  0.00    +0.214 C 
ATOM     23  C   UNL     1      -9.582   0.489  -1.444  0.00  0.00    +0.185 C 
ATOM     24  C   UNL     1     -10.709   1.527  -1.441  0.00  0.00    +0.177 C 
ATOM     25  C   UNL     1     -10.207   2.812  -2.106  0.00  0.00    +0.176 C 
ATOM     26  C   UNL     1      -8.960   3.306  -1.367  0.00  0.00    +0.176 C 
ATOM     27  O   UNL     1      -7.963   2.283  -1.380  0.00  0.00    -0.355 OA
BRANCH  25  28
ATOM     28  O   UNL     1      -9.880   2.547  -3.472  0.00  0.00    -0.386 OA
ATOM     29  H   UNL     1     -10.624   2.225  -3.999  0.00  0.00    +0.210 HD
ENDBRANCH  25  28
BRANCH  24  30
ATOM     30  O   UNL     1     -11.830   1.018  -2.167  0.00  0.00    -0.386 OA
ATOM     31  H   UNL     1     -12.195   0.200  -1.803  0.00  0.00    +0.210 HD
ENDBRANCH  24  30
BRANCH  23  32
ATOM     32  O   UNL     1     -10.015  -0.689  -0.762  0.00  0.00    -0.386 OA
ATOM     33  H   UNL     1      -9.348  -1.388  -0.722  0.00  0.00    +0.210 HD
ENDBRANCH  23  32
BRANCH  26  34
ATOM     34  C   UNL     1      -8.417   4.556  -2.062  0.00  0.00    +0.190 C 
BRANCH  34  35
ATOM     35  O   UNL     1      -7.325   5.085  -1.307  0.00  0.00    -0.392 OA
ATOM     36  H   UNL     1      -6.930   5.880  -1.690  0.00  0.00    +0.210 HD
ENDBRANCH  34  35
ENDBRANCH  26  34
ENDBRANCH  21  22
ENDBRANCH   9  21
TORSDOF 11
