REMARK  Name = ZINC33143963
REMARK  10 active torsions:
REMARK  status: ('A' for Active; 'I' for Inactive)
REMARK    1  A    between atoms: C_1  and  C_2
REMARK    2  A    between atoms: C_2  and  C_3
REMARK    3  A    between atoms: C_3  and  C_4
REMARK    4  A    between atoms: C_8  and  S_10
REMARK    5  A    between atoms: S_10  and  C_11
REMARK    6  A    between atoms: C_11  and  C_12
REMARK    7  A    between atoms: N_14  and  C_15
REMARK    8  A    between atoms: C_16  and  C_31
REMARK    9  A    between atoms: N_19  and  C_20
REMARK   10  A    between atoms: C_20  and  C_21
REMARK                            x       y       z     vdW  Elec       q    Type
REMARK                         _______ _______ _______ _____ _____    ______ ____
ROOT
ATOM      1  C   UNL     1       6.175  -2.399   1.308  0.00  0.00    +0.229 C 
ATOM      2  O   UNL     1       7.283  -2.188   0.863  0.00  0.00    -0.275 OA
ATOM      3  N   UNL     1       6.023  -3.179   2.397  0.00  0.00    -0.270 N 
ATOM      4  H   UNL     1       5.136  -3.348   2.752  0.00  0.00    +0.156 HD
ENDROOT
BRANCH   3   5
ATOM      5  C   UNL     1       7.134  -3.739   3.009  0.00  0.00    +0.123 A 
ATOM      6  C   UNL     1       8.128  -3.046   3.690  0.00  0.00    +0.095 A 
ATOM      7  C   UNL     1       9.074  -4.059   4.152  0.00  0.00    -0.007 A 
ATOM      8  C   UNL     1       8.609  -5.253   3.735  0.00  0.00    +0.025 A 
ATOM      9  N   UNL     1       7.441  -5.063   3.054  0.00  0.00    -0.329 N 
ATOM     10  C   UNL     1       9.306  -6.565   4.009  0.00  0.00    +0.054 C 
ATOM     11  C   UNL     1      10.752  -6.270   4.424  0.00  0.00    +0.006 C 
ATOM     12  C   UNL     1      10.761  -5.212   5.531  0.00  0.00    +0.005 C 
ATOM     13  C   UNL     1      10.338  -3.859   4.945  0.00  0.00    +0.038 C 
BRANCH   6  14
ATOM     14  C   UNL     1       8.209  -1.631   3.897  0.00  0.00    +0.103 C 
ATOM     15  N   UNL     1       8.273  -0.509   4.061  0.00  0.00    -0.191 NA
ENDBRANCH   6  14
BRANCH   9  16
ATOM     16  C   UNL     1       6.636  -6.130   2.454  0.00  0.00    +0.154 C 
BRANCH  16  17
ATOM     17  C   UNL     1       7.195  -6.475   1.072  0.00  0.00    +0.138 C 
ATOM     18  C   UNL     1       6.414  -7.664   0.458  0.00  0.00    +0.035 C 
ATOM     19  C   UNL     1       6.654  -7.424  -1.057  0.00  0.00    +0.031 C 
ATOM     20  C   UNL     1       6.685  -5.883  -1.143  0.00  0.00    +0.160 C 
ATOM     21  O   UNL     1       6.991  -5.381   0.164  0.00  0.00    -0.375 OA
ENDBRANCH  16  17
ENDBRANCH   9  16
ENDBRANCH   3   5
BRANCH   1  22
ATOM     22  C   UNL     1       4.967  -1.788   0.644  0.00  0.00    +0.173 C 
BRANCH  22  23
ATOM     23  S   UNL     1       5.496  -0.801  -0.783  0.00  0.00    -0.078 S 
BRANCH  23  28
ATOM     24  C   UNL     1       1.689  -0.010  -1.325  0.00  0.00    +0.049 A 
ATOM     25  C   UNL     1       1.665   0.797  -2.426  0.00  0.00    +0.093 A 
ATOM     26  C   UNL     1       2.879   1.129  -3.053  0.00  0.00    +0.252 A 
ATOM     27  N   UNL     1       4.029   0.637  -2.542  0.00  0.00    -0.302 N 
ATOM     28  C   UNL     1       3.991  -0.164  -1.441  0.00  0.00    +0.170 A 
ATOM     29  N   UNL     1       2.848  -0.466  -0.857  0.00  0.00    -0.228 NA
ATOM     30  O   UNL     1       2.894   1.847  -4.039  0.00  0.00    -0.268 OA
ATOM     31  H   UNL     1       4.878   0.853  -2.959  0.00  0.00    +0.171 HD
BRANCH  24  32
ATOM     32  C   UNL     1       0.401  -0.381  -0.636  0.00  0.00    +0.055 C 
BRANCH  32  34
ATOM     33  C   UNL     1      -1.397  -2.106  -0.464  0.00  0.00    +0.004 C 
ATOM     34  C   UNL     1      -0.089  -1.730  -1.164  0.00  0.00    +0.003 C 
ENDBRANCH  32  34
ENDBRANCH  24  32
ENDBRANCH  23  28
ENDBRANCH  22  23
ENDBRANCH   1  22
TORSDOF 9
