REMARK  Name = ZINC12411966
REMARK  3 active torsions:
REMARK  status: ('A' for Active; 'I' for Inactive)
REMARK    1  A    between atoms: C_1  and  C_2
REMARK    2  A    between atoms: C_2  and  N_3
REMARK    3  A    between atoms: N_13  and  C_18
REMARK                            x       y       z     vdW  Elec       q    Type
REMARK                         _______ _______ _______ _____ _____    ______ ____
ROOT
ATOM      1  N   UNL     1      -0.365   5.687  -0.642  0.00  0.00    -0.271 NA
ATOM      2  C   UNL     1       0.900   5.829   0.096  0.00  0.00    +0.200 C 
ATOM      3  N   UNL     1       1.432   4.507   0.457  0.00  0.00    -0.250 N 
ATOM      4  C   UNL     1       0.524   3.458   0.951  0.00  0.00    +0.210 C 
ATOM      5  C   UNL     1       1.085   2.326   0.004  0.00  0.00    +0.205 C 
ATOM      6  N   UNL     1       2.457   2.507   0.253  0.00  0.00    -0.277 N 
ATOM      7  C   UNL     1       2.620   3.885   0.327  0.00  0.00    +0.306 C 
ATOM      8  O   UNL     1       3.693   4.455   0.279  0.00  0.00    -0.253 OA
ATOM      9  N   UNL     1      -0.018   1.461   0.010  0.00  0.00    -0.260 N 
ATOM     10  C   UNL     1      -1.131   2.286   0.019  0.00  0.00    +0.309 C 
ATOM     11  O   UNL     1      -2.267   1.909  -0.194  0.00  0.00    -0.252 OA
ATOM     12  N   UNL     1      -0.799   3.542   0.310  0.00  0.00    -0.250 N 
ATOM     13  C   UNL     1      -1.384   4.846   0.011  0.00  0.00    +0.200 C 
ATOM     14  H   UNL     1       3.120   1.634   0.342  0.00  0.00    +0.152 HD
ENDROOT
BRANCH   9  15
ATOM     15  C   UNL     1       0.002  -0.004   0.002  0.00  0.00    +0.079 C 
ATOM     16  C   UNL     1      -0.724  -0.517  -1.243  0.00  0.00    +0.022 C 
ATOM     17  C   UNL     1      -0.703  -2.047  -1.252  0.00  0.00    +0.002 C 
ATOM     18  C   UNL     1      -1.406  -2.573   0.002  0.00  0.00    +0.000 C 
ATOM     19  C   UNL     1      -0.679  -2.060   1.247  0.00  0.00    +0.002 C 
ATOM     20  C   UNL     1      -0.700  -0.530   1.255  0.00  0.00    +0.022 C 
ENDBRANCH   9  15
BRANCH   1  22
ATOM     21  C   UNL     1       0.218   7.928  -1.441  0.00  0.00    +0.020 C 
ATOM     22  C   UNL     1      -0.917   7.001  -0.999  0.00  0.00    +0.084 C 
ENDBRANCH   1  22
TORSDOF 2
