REMARK  Name = ZINC39968339
REMARK  11 active torsions:
REMARK  status: ('A' for Active; 'I' for Inactive)
REMARK    1  A    between atoms: C_1  and  C_2
REMARK    2  A    between atoms: C_7  and  C_12
REMARK    3  A    between atoms: C_15  and  S_20
REMARK    4  A    between atoms: N_16  and  C_17
REMARK    5  A    between atoms: C_17  and  C_18
REMARK    6  A    between atoms: C_17  and  C_19
REMARK    7  A    between atoms: S_20  and  C_21
REMARK    8  A    between atoms: C_21  and  C_22
REMARK    9  A    between atoms: N_24  and  C_25
REMARK   10  A    between atoms: C_28  and  N_31
REMARK   11  A    between atoms: C_32  and  C_34
REMARK                            x       y       z     vdW  Elec       q    Type
REMARK                         _______ _______ _______ _____ _____    ______ ____
ROOT
ATOM      1  C   UNL     1      -1.319  -4.983   0.119  0.00  0.00    +0.166 A 
ATOM      2  N   UNL     1      -2.380  -4.691  -0.598  0.00  0.00    -0.128 NA
ATOM      3  N   UNL     1      -2.991  -5.769  -0.937  0.00  0.00    -0.122 NA
ATOM      4  C   UNL     1      -2.360  -6.816  -0.458  0.00  0.00    +0.193 A 
ATOM      5  N   UNL     1      -1.270  -6.353   0.226  0.00  0.00    -0.299 N 
ENDROOT
BRANCH   1  11
ATOM      6  C   UNL     1      -1.881   0.684   3.586  0.00  0.00    +0.008 C 
ATOM      7  C   UNL     1      -1.553  -0.397   2.554  0.00  0.00    -0.009 C 
ATOM      8  C   UNL     1      -2.435  -1.624   2.798  0.00  0.00    +0.008 C 
ATOM      9  C   UNL     1      -2.297  -2.606   1.634  0.00  0.00    +0.037 C 
ATOM     10  C   UNL     1      -0.817  -2.900   1.410  0.00  0.00    -0.026 A 
ATOM     11  C   UNL     1      -0.357  -4.020   0.696  0.00  0.00    +0.030 A 
ATOM     12  C   UNL     1       0.987  -4.213   0.541  0.00  0.00    +0.057 A 
ATOM     13  S   UNL     1       1.663  -2.804   1.406  0.00  0.00    -0.101 S 
ATOM     14  C   UNL     1       0.131  -2.066   1.907  0.00  0.00    -0.006 A 
ATOM     15  C   UNL     1      -0.080  -0.810   2.692  0.00  0.00    +0.046 C 
ENDBRANCH   1  11
BRANCH   5  16
ATOM     16  C   UNL     1      -0.261  -7.150   0.928  0.00  0.00    +0.085 C 
ATOM     17  C   UNL     1      -0.946  -8.034   1.973  0.00  0.00    +0.030 C 
ATOM     18  C   UNL     1       0.483  -8.032  -0.077  0.00  0.00    +0.030 C 
ENDBRANCH   5  16
BRANCH   4  19
ATOM     19  S   UNL     1      -2.826  -8.502  -0.665  0.00  0.00    -0.077 S 
BRANCH  19  20
ATOM     20  C   UNL     1      -4.336  -8.421  -1.667  0.00  0.00    +0.173 C 
BRANCH  20  21
ATOM     21  C   UNL     1      -4.846  -9.816  -1.920  0.00  0.00    +0.227 C 
ATOM     22  O   UNL     1      -4.250 -10.771  -1.470  0.00  0.00    -0.275 OA
ATOM     23  N   UNL     1      -5.966 -10.002  -2.648  0.00  0.00    -0.285 N 
ATOM     24  H   UNL     1      -6.402  -9.245  -3.069  0.00  0.00    +0.155 HD
BRANCH  23  25
ATOM     25  C   UNL     1      -6.499 -11.289  -2.795  0.00  0.00    +0.034 A 
ATOM     26  C   UNL     1      -7.132 -11.647  -3.978  0.00  0.00    +0.025 A 
ATOM     27  C   UNL     1      -7.658 -12.915  -4.124  0.00  0.00    +0.025 A 
ATOM     28  C   UNL     1      -7.554 -13.832  -3.086  0.00  0.00    +0.033 A 
ATOM     29  C   UNL     1      -6.921 -13.474  -1.903  0.00  0.00    +0.025 A 
ATOM     30  C   UNL     1      -6.390 -12.208  -1.760  0.00  0.00    +0.025 A 
BRANCH  28  31
ATOM     31  N   UNL     1      -8.088 -15.119  -3.234  0.00  0.00    -0.286 N 
ATOM     32  C   UNL     1      -8.600 -15.762  -2.166  0.00  0.00    +0.214 C 
ATOM     33  O   UNL     1      -8.686 -15.193  -1.098  0.00  0.00    -0.276 OA
ATOM     34  C   UNL     1      -9.065 -17.190  -2.297  0.00  0.00    +0.109 C 
ATOM     35  H   UNL     1      -8.089 -15.547  -4.104  0.00  0.00    +0.155 HD
ENDBRANCH  28  31
ENDBRANCH  23  25
ENDBRANCH  20  21
ENDBRANCH  19  20
ENDBRANCH   4  19
TORSDOF 7
