REMARK  Name = ZINC04809569
REMARK  3 active torsions:
REMARK  status: ('A' for Active; 'I' for Inactive)
REMARK    1  A    between atoms: C_6  and  S_7
REMARK    2  A    between atoms: S_7  and  N_10
REMARK    3  A    between atoms: C_14  and  C_16
REMARK                            x       y       z     vdW  Elec       q    Type
REMARK                         _______ _______ _______ _____ _____    ______ ____
ROOT
ATOM      1  S   UNL     1      -2.202   1.234   1.719  0.00  0.00    +0.062 S 
ATOM      2  O   UNL     1      -2.593   2.284   2.593  0.00  0.00    -0.153 OA
ATOM      3  O   UNL     1      -2.930   0.911   0.543  0.00  0.00    -0.153 OA
ENDROOT
BRANCH   1   9
ATOM      4  C   UNL     1      -2.281  -1.469   2.088  0.00  0.00    +0.029 A 
ATOM      5  C   UNL     1      -2.227  -2.621   2.851  0.00  0.00    +0.016 A 
ATOM      6  C   UNL     1      -2.041  -2.537   4.218  0.00  0.00    +0.013 A 
ATOM      7  C   UNL     1      -1.904  -1.301   4.822  0.00  0.00    +0.016 A 
ATOM      8  C   UNL     1      -1.952  -0.149   4.059  0.00  0.00    +0.029 A 
ATOM      9  C   UNL     1      -2.139  -0.234   2.692  0.00  0.00    +0.106 A 
ATOM     10  I   UNL     1      -1.969  -4.282   5.375  0.00  0.00    -0.044 I 
ENDBRANCH   1   9
BRANCH   1  11
ATOM     11  N   UNL     1      -0.653   1.570   1.240  0.00  0.00    -0.163 NA
ATOM     12  C   UNL     1       0.312   2.406   1.977  0.00  0.00    +0.110 C 
ATOM     13  C   UNL     1       1.704   1.923   1.496  0.00  0.00    +0.019 C 
ATOM     14  C   UNL     1       1.431   1.630  -0.003  0.00  0.00    +0.033 C 
ATOM     15  C   UNL     1      -0.013   1.086   0.008  0.00  0.00    +0.192 C 
BRANCH  15  16
ATOM     16  C   UNL     1      -0.761   1.595  -1.197  0.00  0.00    +0.374 C 
ATOM     17  O   UNL     1      -1.740   2.288  -1.051  0.00  0.00    -0.245 OA
ATOM     18  O   UNL     1      -0.341   1.277  -2.432  0.00  0.00    -0.245 OA
ENDBRANCH  15  16
ENDBRANCH   1  11
TORSDOF 3
