REMARK  Name = ZINC39500919
REMARK  14 active torsions:
REMARK  status: ('A' for Active; 'I' for Inactive)
REMARK    1  A    between atoms: C_1  and  C_2
REMARK    2  A    between atoms: C_7  and  C_8
REMARK    3  A    between atoms: N_10  and  C_11
REMARK    4  A    between atoms: C_16  and  C_26
REMARK    5  A    between atoms: C_20  and  C_22
REMARK    6  A    between atoms: C_22  and  O_24
REMARK    7  A    between atoms: O_24  and  C_25
REMARK    8  A    between atoms: C_26  and  N_27
REMARK    9  A    between atoms: N_27  and  C_28
REMARK   10  A    between atoms: N_27  and  C_29
REMARK   11  A    between atoms: C_29  and  C_30
REMARK   12  A    between atoms: C_30  and  C_31
REMARK   13  A    between atoms: C_32  and  C_38
REMARK   14  A    between atoms: C_35  and  C_37
REMARK                            x       y       z     vdW  Elec       q    Type
REMARK                         _______ _______ _______ _____ _____    ______ ____
ROOT
ATOM      1  C   UNL     1       0.600   0.092   4.892  0.00  0.00    +0.130 C 
ATOM      2  C   UNL     1      -0.776   0.222   5.496  0.00  0.00    +0.006 A 
ATOM      3  C   UNL     1      -1.753   1.163   5.160  0.00  0.00    +0.010 A 
ATOM      4  C   UNL     1      -2.976   1.132   5.806  0.00  0.00    +0.022 A 
ATOM      5  C   UNL     1      -3.221   0.177   6.771  0.00  0.00    +0.026 A 
ATOM      6  N   UNL     1      -2.286  -0.701   7.083  0.00  0.00    -0.247 NA
ATOM      7  C   UNL     1      -1.106  -0.695   6.494  0.00  0.00    +0.103 A 
ATOM      8  S   UNL     1       0.335  -1.711   6.737  0.00  0.00    -0.089 S 
ATOM      9  C   UNL     1       1.557  -0.690   5.819  0.00  0.00    +0.186 C 
ENDROOT
BRANCH   1  12
ATOM     10  C   UNL     1       0.263   0.082   2.479  0.00  0.00    +0.245 C 
ATOM     11  O   UNL     1       0.141   1.291   2.521  0.00  0.00    -0.270 OA
ATOM     12  N   UNL     1       0.495  -0.611   3.611  0.00  0.00    -0.303 N 
ATOM     13  H   UNL     1       0.592  -1.576   3.578  0.00  0.00    +0.150 HD
BRANCH  10  20
ATOM     14  C   UNL     1      -0.511   1.543   0.105  0.00  0.00    +0.044 C 
ATOM     15  C   UNL     1      -0.216   0.067   0.034  0.00  0.00    -0.038 A 
ATOM     16  C   UNL     1      -0.307  -0.600  -1.170  0.00  0.00    +0.004 A 
ATOM     17  C   UNL     1      -0.036  -1.955  -1.236  0.00  0.00    +0.000 A 
ATOM     18  C   UNL     1       0.329  -2.650  -0.097  0.00  0.00    +0.001 A 
ATOM     19  C   UNL     1       0.424  -1.996   1.113  0.00  0.00    +0.013 A 
ATOM     20  C   UNL     1       0.157  -0.627   1.186  0.00  0.00    +0.040 A 
ENDBRANCH  10  20
ENDBRANCH   1  12
BRANCH   9  21
ATOM     21  C   UNL     1       2.506  -1.552   5.028  0.00  0.00    +0.322 C 
ATOM     22  O   UNL     1       3.519  -1.076   4.573  0.00  0.00    -0.250 OA
BRANCH  21  23
ATOM     23  O   UNL     1       2.227  -2.850   4.828  0.00  0.00    -0.467 OA
ATOM     24  C   UNL     1       3.171  -3.608   4.069  0.00  0.00    +0.280 C 
ENDBRANCH  21  23
ENDBRANCH   9  21
BRANCH   5  25
ATOM     25  C   UNL     1      -4.556   0.136   7.470  0.00  0.00    -0.023 C 
BRANCH  25  26
ATOM     26  N   UNL     1      -5.434  -0.828   6.793  0.00  0.00    +0.382 N 
ATOM     27  C   UNL     1      -4.878  -2.181   6.937  0.00  0.00    -0.096 C 
ATOM     28  H   UNL     1      -5.499  -0.594   5.814  0.00  0.00    -0.082 HD
BRANCH  26  29
ATOM     29  C   UNL     1      -6.772  -0.781   7.398  0.00  0.00    -0.074 C 
BRANCH  29  30
ATOM     30  C   UNL     1      -7.718  -1.693   6.614  0.00  0.00    +0.016 C 
BRANCH  30  31
ATOM     31  C   UNL     1      -9.090  -1.645   7.235  0.00  0.00    -0.023 C 
ATOM     32  C   UNL     1     -10.126  -0.880   6.882  0.00  0.00    +0.061 C 
ATOM     33  N   UNL     1     -11.193  -1.120   7.677  0.00  0.00    -0.159 NA
ATOM     34  N   UNL     1     -11.001  -1.974   8.547  0.00  0.00    -0.180 NA
ATOM     35  C   UNL     1      -9.618  -2.459   8.403  0.00  0.00    +0.153 C 
ATOM     36  C   UNL     1      -8.812  -2.172   9.671  0.00  0.00    +0.039 C 
ATOM     37  C   UNL     1     -10.109   0.115   5.751  0.00  0.00    +0.067 C 
ENDBRANCH  30  31
ENDBRANCH  29  30
ENDBRANCH  26  29
ENDBRANCH  25  26
ENDBRANCH   5  25
TORSDOF 9
