REMARK  Name = ZINC64435510
REMARK  3 active torsions:
REMARK  status: ('A' for Active; 'I' for Inactive)
REMARK    1  A    between atoms: C_6  and  C_11
REMARK    2  A    between atoms: C_15  and  C_20
REMARK    3  A    between atoms: C_20  and  N_21
REMARK                            x       y       z     vdW  Elec       q    Type
REMARK                         _______ _______ _______ _____ _____    ______ ____
ROOT
ATOM      1  C   UNL     1       3.821  -2.335   1.168  0.00  0.00    +0.178 C 
ATOM      2  N   UNL     1       3.177  -1.891   2.433  0.00  0.00    -0.266 N 
ATOM      3  N   UNL     1       2.080  -2.609   2.804  0.00  0.00    -0.226 N 
ATOM      4  C   UNL     1       0.979  -2.433   3.623  0.00  0.00    +0.135 A 
ATOM      5  N   UNL     1       0.284  -3.531   3.603  0.00  0.00    -0.134 NA
ATOM      6  N   UNL     1       0.841  -4.393   2.827  0.00  0.00    -0.121 NA
ATOM      7  C   UNL     1       1.912  -3.877   2.309  0.00  0.00    +0.210 A 
ATOM      8  S   UNL     1       3.284  -4.100   1.194  0.00  0.00    -0.058 S 
ATOM      9  H   UNL     1       3.850  -1.843   3.183  0.00  0.00    +0.168 HD
ENDROOT
BRANCH   1  15
ATOM     10  C   UNL     1       0.025   1.738   0.178  0.00  0.00    +0.001 A 
ATOM     11  C   UNL     1       1.191   2.516   0.161  0.00  0.00    +0.002 A 
ATOM     12  C   UNL     1       2.427   1.977   0.101  0.00  0.00    +0.026 A 
ATOM     13  C   UNL     1       2.594   0.566   0.050  0.00  0.00    +0.043 A 
ATOM     14  N   UNL     1       3.667  -0.184  -0.013  0.00  0.00    -0.375 N 
ATOM     15  C   UNL     1       3.253  -1.592  -0.044  0.00  0.00    +0.135 C 
ATOM     16  C   UNL     1       1.742  -1.580   0.011  0.00  0.00    +0.010 C 
ATOM     17  C   UNL     1       1.379  -0.279   0.066  0.00  0.00    -0.004 A 
ATOM     18  C   UNL     1       0.072   0.387   0.133  0.00  0.00    +0.010 A 
ATOM     19  H   UNL     1       4.582   0.137  -0.035  0.00  0.00    +0.160 HD
ENDBRANCH   1  15
BRANCH   4  20
ATOM     20  C   UNL     1       0.644  -1.186   4.401  0.00  0.00    +0.000 C 
BRANCH  20  21
ATOM     21  N   UNL     1       1.372  -1.196   5.677  0.00  0.00    +0.384 N 
ATOM     22  C   UNL     1       0.927  -2.360   6.467  0.00  0.00    -0.078 C 
ATOM     23  C   UNL     1       2.026  -2.725   7.433  0.00  0.00    -0.019 C 
ATOM     24  C   UNL     1       1.790  -2.097   8.819  0.00  0.00    -0.002 C 
ATOM     25  C   UNL     1       1.268  -0.650   8.711  0.00  0.00    -0.002 C 
ATOM     26  C   UNL     1       1.970   0.134   7.631  0.00  0.00    -0.019 C 
ATOM     27  C   UNL     1       1.161   0.024   6.322  0.00  0.00    -0.078 C 
ATOM     28  H   UNL     1       2.358  -1.294   5.486  0.00  0.00    -0.081 HD
ENDBRANCH  20  21
ENDBRANCH   4  20
TORSDOF 3
