REMARK  Name = ZINC66814487
REMARK  6 active torsions:
REMARK  status: ('A' for Active; 'I' for Inactive)
REMARK    1  A    between atoms: C_3  and  S_17
REMARK    2  A    between atoms: C_6  and  N_7
REMARK    3  A    between atoms: N_7  and  S_8
REMARK    4  A    between atoms: S_8  and  C_11
REMARK    5  A    between atoms: S_17  and  C_20
REMARK    6  A    between atoms: C_20  and  C_21
REMARK                            x       y       z     vdW  Elec       q    Type
REMARK                         _______ _______ _______ _____ _____    ______ ____
ROOT
ATOM      1  C   UNL     1      -0.017   1.385   0.010  0.00  0.00    +0.028 A 
ATOM      2  C   UNL     1       1.171   2.090   0.002  0.00  0.00    +0.029 A 
ATOM      3  C   UNL     1       2.377   1.415  -0.013  0.00  0.00    +0.088 A 
ATOM      4  C   UNL     1       2.400   0.032  -0.021  0.00  0.00    +0.029 A 
ATOM      5  C   UNL     1       1.216  -0.679  -0.014  0.00  0.00    +0.028 A 
ATOM      6  C   UNL     1       0.002  -0.004   0.002  0.00  0.00    +0.074 A 
ENDROOT
BRANCH   3   7
ATOM      7  S   UNL     1       3.890   2.319  -0.024  0.00  0.00    -0.001 S 
ATOM      8  O   UNL     1       4.828   1.448  -0.641  0.00  0.00    -0.169 OA
ATOM      9  O   UNL     1       3.562   3.567  -0.618  0.00  0.00    -0.169 OA
BRANCH   7  10
ATOM     10  C   UNL     1       4.308   2.549   1.726  0.00  0.00    +0.203 C 
BRANCH  10  11
ATOM     11  C   UNL     1       5.618   3.330   1.839  0.00  0.00    +0.140 C 
ATOM     12  C   UNL     1       6.012   3.508   3.327  0.00  0.00    +0.035 C 
ATOM     13  C   UNL     1       7.549   3.693   3.205  0.00  0.00    +0.031 C 
ATOM     14  C   UNL     1       7.896   2.778   2.010  0.00  0.00    +0.160 C 
ATOM     15  O   UNL     1       6.696   2.585   1.250  0.00  0.00    -0.375 OA
ENDBRANCH  10  11
ENDBRANCH   7  10
ENDBRANCH   3   7
BRANCH   6  16
ATOM     16  N   UNL     1      -1.197  -0.720   0.010  0.00  0.00    -0.098 NA
BRANCH  16  17
ATOM     17  S   UNL     1      -1.172  -2.376   0.001  0.00  0.00    +0.095 S 
ATOM     18  O   UNL     1      -0.628  -2.767  -1.252  0.00  0.00    -0.148 OA
ATOM     19  O   UNL     1      -0.603  -2.781   1.239  0.00  0.00    -0.148 OA
BRANCH  17  20
ATOM     20  C   UNL     1      -2.848  -2.922   0.015  0.00  0.00    +0.147 A 
ATOM     21  C   UNL     1      -3.595  -3.170   1.115  0.00  0.00    +0.133 A 
ATOM     22  N   UNL     1      -4.817  -3.566   0.701  0.00  0.00    -0.283 N 
ATOM     23  H   UNL     1      -5.562  -3.811   1.273  0.00  0.00    +0.188 HD
ATOM     24  N   UNL     1      -4.820  -3.563  -0.699  0.00  0.00    -0.180 NA
ATOM     25  C   UNL     1      -3.641  -3.171  -1.110  0.00  0.00    +0.163 A 
ENDBRANCH  17  20
ENDBRANCH  16  17
ENDBRANCH   6  16
TORSDOF 6
