REMARK  Name = ZINC40149174
REMARK  6 active torsions:
REMARK  status: ('A' for Active; 'I' for Inactive)
REMARK    1  A    between atoms: C_1  and  N_2
REMARK    2  A    between atoms: C_3  and  C_27
REMARK    3  A    between atoms: N_5  and  C_8
REMARK    4  A    between atoms: C_8  and  N_9
REMARK    5  A    between atoms: C_12  and  C_15
REMARK    6  A    between atoms: C_15  and  N_16
REMARK                            x       y       z     vdW  Elec       q    Type
REMARK                         _______ _______ _______ _____ _____    ______ ____
ROOT
ATOM      1  N   UNL     1       1.549  -3.849  -1.363  0.00  0.00    +0.393 N 
ATOM      2  C   UNL     1       2.152  -2.913  -2.320  0.00  0.00    -0.076 C 
ATOM      3  C   UNL     1       2.073  -3.499  -3.731  0.00  0.00    -0.014 C 
ATOM      4  C   UNL     1       2.831  -4.829  -3.769  0.00  0.00    +0.003 C 
ATOM      5  C   UNL     1       2.242  -5.771  -2.716  0.00  0.00    -0.014 C 
ATOM      6  C   UNL     1       2.315  -5.101  -1.342  0.00  0.00    -0.076 C 
ATOM      7  H   UNL     1       0.598  -4.042  -1.639  0.00  0.00    -0.079 HD
ENDROOT
BRANCH   1   8
ATOM      8  C   UNL     1       1.557  -3.249  -0.022  0.00  0.00    +0.072 C 
BRANCH   8  13
ATOM      9  C   UNL     1      -0.018   1.461   0.010  0.00  0.00    +0.152 C 
ATOM     10  N   UNL     1       0.002  -0.004   0.002  0.00  0.00    -0.310 N 
ATOM     11  C   UNL     1      -1.100  -0.823   0.003  0.00  0.00    +0.136 A 
ATOM     12  N   UNL     1      -0.705  -2.055  -0.006  0.00  0.00    -0.157 NA
ATOM     13  N   UNL     1       0.696  -2.064  -0.012  0.00  0.00    -0.258 N 
ATOM     14  C   UNL     1       1.106  -0.778  -0.013  0.00  0.00    +0.176 A 
ATOM     15  S   UNL     1       2.728  -0.231  -0.026  0.00  0.00    -0.011 S 
BRANCH  11  16
ATOM     16  C   UNL     1      -2.535  -0.362   0.012  0.00  0.00    +0.079 C 
ATOM     17  C   UNL     1      -2.994  -0.124   1.460  0.00  0.00    +0.035 C 
ATOM     18  C   UNL     1      -4.533   0.035   1.506  0.00  0.00    +0.166 C 
ATOM     19  S   UNL     1      -5.085  -0.959   0.061  0.00  0.00    -0.030 S 
ATOM     20  O   UNL     1      -5.724  -0.101  -0.874  0.00  0.00    -0.174 OA
ATOM     21  O   UNL     1      -5.767  -2.115   0.528  0.00  0.00    -0.174 OA
ATOM     22  C   UNL     1      -3.444  -1.460  -0.609  0.00  0.00    +0.177 C 
ENDBRANCH  11  16
ENDBRANCH   8  13
ENDBRANCH   1   8
BRANCH   4  23
ATOM     23  C   UNL     1       2.689  -5.459  -5.156  0.00  0.00    +0.120 C 
BRANCH  23  24
ATOM     24  N   UNL     1       3.512  -6.670  -5.229  0.00  0.00    -0.234 N 
ATOM     25  C   UNL     1       4.798  -6.694  -5.623  0.00  0.00    +0.254 C 
ATOM     26  O   UNL     1       5.451  -5.731  -5.971  0.00  0.00    -0.270 OA
ATOM     27  C   UNL     1       5.282  -8.089  -5.563  0.00  0.00    +0.049 A 
ATOM     28  C   UNL     1       6.491  -8.706  -5.844  0.00  0.00    +0.014 A 
ATOM     29  C   UNL     1       6.618 -10.076  -5.676  0.00  0.00    +0.001 A 
ATOM     30  C   UNL     1       5.548 -10.830  -5.232  0.00  0.00    +0.001 A 
ATOM     31  C   UNL     1       4.333 -10.226  -4.947  0.00  0.00    +0.014 A 
ATOM     32  C   UNL     1       4.191  -8.857  -5.110  0.00  0.00    +0.049 A 
ATOM     33  C   UNL     1       3.082  -7.902  -4.905  0.00  0.00    +0.254 C 
ATOM     34  O   UNL     1       1.968  -8.184  -4.512  0.00  0.00    -0.270 OA
ENDBRANCH  23  24
ENDBRANCH   4  23
TORSDOF 5
