REMARK  Name = ZINC13502567
REMARK  6 active torsions:
REMARK  status: ('A' for Active; 'I' for Inactive)
REMARK    1  A    between atoms: C_4  and  C_7
REMARK    2  A    between atoms: N_9  and  N_10
REMARK    3  A    between atoms: C_11  and  C_13
REMARK    4  A    between atoms: C_13  and  S_14
REMARK    5  A    between atoms: S_14  and  C_15
REMARK    6  A    between atoms: C_20  and  C_31
REMARK                            x       y       z     vdW  Elec       q    Type
REMARK                         _______ _______ _______ _____ _____    ______ ____
ROOT
ATOM      1  C   UNL     1       3.701   6.711   0.003  0.00  0.00    +0.198 A 
ATOM      2  N   UNL     1       4.857   6.089  -0.012  0.00  0.00    -0.122 NA
ATOM      3  N   UNL     1       5.824   6.940  -0.017  0.00  0.00    -0.128 NA
ATOM      4  C   UNL     1       5.338   8.157  -0.005  0.00  0.00    +0.173 A 
ATOM      5  N   UNL     1       3.964   8.053   0.002  0.00  0.00    -0.257 N 
ATOM      6  C   UNL     1       3.184   9.172   0.022  0.00  0.00    +0.122 A 
ATOM      7  N   UNL     1       3.708  10.365   0.024  0.00  0.00    -0.226 NA
ATOM      8  C   UNL     1       5.023  10.565   0.011  0.00  0.00    +0.114 A 
ATOM      9  C   UNL     1       5.944   9.507  -0.005  0.00  0.00    +0.056 A 
ATOM     10  C   UNL     1       7.317   9.857  -0.018  0.00  0.00    -0.024 A 
ATOM     11  C   UNL     1       7.630  11.173  -0.014  0.00  0.00    -0.004 A 
ATOM     12  S   UNL     1       6.064  12.004   0.008  0.00  0.00    -0.073 S 
ATOM     13  C   UNL     1       8.996  11.785  -0.025  0.00  0.00    +0.043 C 
ATOM     14  C   UNL     1      10.018  10.695   0.328  0.00  0.00    +0.005 C 
ATOM     15  C   UNL     1       9.719   9.451  -0.514  0.00  0.00    +0.005 C 
ATOM     16  C   UNL     1       8.420   8.800  -0.037  0.00  0.00    +0.037 C 
ENDROOT
BRANCH   6  17
ATOM     17  C   UNL     1       1.684   9.026   0.037  0.00  0.00    +0.056 C 
ATOM     18  C   UNL     1       0.849  10.293  -0.154  0.00  0.00    +0.012 C 
ATOM     19  C   UNL     1       0.926   9.627   1.222  0.00  0.00    +0.012 C 
ENDBRANCH   6  17
BRANCH   1  20
ATOM     20  S   UNL     1       2.108   5.958   0.014  0.00  0.00    -0.076 S 
BRANCH  20  21
ATOM     21  C   UNL     1       2.464   4.179   0.001  0.00  0.00    +0.174 C 
BRANCH  21  23
ATOM     22  N   UNL     1       1.187   2.061   0.002  0.00  0.00    -0.234 N 
ATOM     23  C   UNL     1       1.169   3.408   0.009  0.00  0.00    +0.239 C 
ATOM     24  O   UNL     1       0.111   4.000   0.022  0.00  0.00    -0.273 OA
ATOM     25  H   UNL     1       2.034   1.587  -0.009  0.00  0.00    +0.173 HD
BRANCH  22  28
ATOM     26  C   UNL     1       0.002  -0.004   0.002  0.00  0.00    +0.232 C 
ATOM     27  O   UNL     1       1.060  -0.596  -0.011  0.00  0.00    -0.274 OA
ATOM     28  N   UNL     1      -0.016   1.344   0.009  0.00  0.00    -0.234 N 
ATOM     29  H   UNL     1      -0.863   1.817   0.016  0.00  0.00    +0.173 HD
BRANCH  26  33
ATOM     30  C   UNL     1      -3.102  -2.707   1.266  0.00  0.00    +0.000 C 
ATOM     31  C   UNL     1      -2.307  -3.058   0.008  0.00  0.00    +0.001 C 
ATOM     32  C   UNL     1      -0.993  -2.276  -0.001  0.00  0.00    +0.013 C 
ATOM     33  C   UNL     1      -1.293  -0.775   0.010  0.00  0.00    +0.076 C 
ATOM     34  C   UNL     1      -2.088  -0.423   1.269  0.00  0.00    +0.013 C 
ATOM     35  C   UNL     1      -3.402  -1.206   1.277  0.00  0.00    +0.001 C 
ENDBRANCH  26  33
ENDBRANCH  22  28
ENDBRANCH  21  23
ENDBRANCH  20  21
ENDBRANCH   1  20
TORSDOF 6
