REMARK  Name = ZINC13479762
REMARK  7 active torsions:
REMARK  status: ('A' for Active; 'I' for Inactive)
REMARK    1  A    between atoms: C_4  and  C_7
REMARK    2  A    between atoms: C_7  and  N_8
REMARK    3  A    between atoms: C_15  and  C_27
REMARK    4  A    between atoms: C_17  and  C_23
REMARK    5  A    between atoms: C_17  and  C_25
REMARK    6  A    between atoms: C_18  and  N_22
REMARK    7  A    between atoms: C_19  and  C_20
REMARK                            x       y       z     vdW  Elec       q    Type
REMARK                         _______ _______ _______ _____ _____    ______ ____
ROOT
ATOM      1  N   UNL     1      -2.994   4.115  -1.333  0.00  0.00    +0.385 N 
ATOM      2  C   UNL     1      -3.308   2.850  -2.020  0.00  0.00    -0.050 C 
ATOM      3  C   UNL     1      -3.591   3.172  -3.466  0.00  0.00    -0.040 C 
ATOM      4  C   UNL     1      -4.148   4.324  -3.792  0.00  0.00    -0.032 C 
ATOM      5  C   UNL     1      -4.577   5.342  -2.775  0.00  0.00    +0.017 C 
ATOM      6  C   UNL     1      -4.155   5.008  -1.361  0.00  0.00    -0.069 C 
ATOM      7  C   UNL     1      -4.052   6.709  -3.218  0.00  0.00    +0.100 C 
ATOM      8  C   UNL     1      -4.697   7.078  -4.554  0.00  0.00    +0.191 C 
ATOM      9  C   UNL     1      -4.566   5.973  -5.558  0.00  0.00    +0.054 C 
ATOM     10  C   UNL     1      -4.322   4.681  -5.222  0.00  0.00    +0.074 C 
ATOM     11  H   UNL     1      -2.166   4.608  -1.863  0.00  0.00    -0.081 HD
ENDROOT
BRANCH   7  12
ATOM     12  C   UNL     1      -2.555   6.646  -3.381  0.00  0.00    +0.111 A 
ATOM     13  C   UNL     1      -1.659   7.394  -2.712  0.00  0.00    +0.045 A 
ATOM     14  C   UNL     1      -0.379   7.007  -3.172  0.00  0.00    +0.041 A 
ATOM     15  C   UNL     1      -0.570   6.052  -4.100  0.00  0.00    +0.195 A 
ATOM     16  O   UNL     1      -1.890   5.837  -4.222  0.00  0.00    -0.467 OA
ENDBRANCH   7  12
BRANCH   9  17
ATOM     17  N   UNL     1      -4.700   6.283  -6.883  0.00  0.00    -0.358 N 
ATOM     18  H   UNL     1      -4.610   5.494  -7.644  0.00  0.00    +0.142 HD
ATOM     19  H   UNL     1      -4.899   7.321  -7.187  0.00  0.00    +0.142 HD
ENDBRANCH   9  17
BRANCH  10  20
ATOM     20  C   UNL     1      -4.234   3.673  -6.236  0.00  0.00    +0.101 C 
ATOM     21  N   UNL     1      -4.164   2.874  -7.040  0.00  0.00    -0.191 NA
ENDBRANCH  10  20
BRANCH   8  22
ATOM     22  C   UNL     1      -6.125   7.362  -4.336  0.00  0.00    +0.091 C 
ATOM     23  N   UNL     1      -7.227   7.580  -4.167  0.00  0.00    -0.194 NA
ENDBRANCH   8  22
BRANCH   8  24
ATOM     24  C   UNL     1      -4.045   8.287  -5.084  0.00  0.00    +0.091 C 
ATOM     25  N   UNL     1      -3.542   9.220  -5.492  0.00  0.00    -0.194 NA
ENDBRANCH   8  24
BRANCH   1  26
ATOM     26  C   UNL     1      -2.553   3.869   0.047  0.00  0.00    -0.043 C 
BRANCH  26  30
ATOM     27  C   UNL     1       1.175   1.783   0.000  0.00  0.00    +0.000 A 
ATOM     28  C   UNL     1      -0.013   1.076   0.008  0.00  0.00    +0.000 A 
ATOM     29  C   UNL     1      -1.219   1.751   0.017  0.00  0.00    +0.002 A 
ATOM     30  C   UNL     1      -1.238   3.133   0.030  0.00  0.00    -0.064 A 
ATOM     31  C   UNL     1      -0.050   3.840   0.022  0.00  0.00    +0.002 A 
ATOM     32  C   UNL     1       1.156   3.165   0.008  0.00  0.00    +0.000 A 
ENDBRANCH  26  30
ENDBRANCH   1  26
TORSDOF 7
