REMARK  Name = ZINC12864322
REMARK  7 active torsions:
REMARK  status: ('A' for Active; 'I' for Inactive)
REMARK    1  A    between atoms: C_1  and  C_2
REMARK    2  A    between atoms: N_5  and  C_8
REMARK    3  A    between atoms: C_8  and  C_9
REMARK    4  A    between atoms: N_21  and  C_22
REMARK    5  A    between atoms: C_22  and  C_23
REMARK    6  A    between atoms: C_23  and  C_25
REMARK    7  A    between atoms: C_23  and  N_31
REMARK                            x       y       z     vdW  Elec       q    Type
REMARK                         _______ _______ _______ _____ _____    ______ ____
ROOT
ATOM      1  C   UNL     1      -3.643   6.338  -2.268  0.00  0.00    +0.116 A 
ATOM      2  N   UNL     1      -3.121   5.473  -3.119  0.00  0.00    -0.219 NA
ATOM      3  C   UNL     1      -2.356   4.468  -2.721  0.00  0.00    +0.131 A 
ATOM      4  C   UNL     1      -2.087   4.314  -1.334  0.00  0.00    +0.051 A 
ATOM      5  C   UNL     1      -1.273   3.283  -0.668  0.00  0.00    -0.025 A 
ATOM      6  C   UNL     1      -1.171   3.360   0.668  0.00  0.00    -0.004 A 
ATOM      7  S   UNL     1      -2.137   4.782   1.126  0.00  0.00    -0.073 S 
ATOM      8  C   UNL     1      -2.676   5.272  -0.489  0.00  0.00    +0.114 A 
ATOM      9  N   UNL     1      -3.428   6.245  -0.970  0.00  0.00    -0.227 NA
ATOM     10  C   UNL     1      -0.311   2.263   1.237  0.00  0.00    +0.043 C 
ATOM     11  C   UNL     1       0.477   1.720   0.024  0.00  0.00    +0.010 C 
ATOM     12  C   UNL     1      -0.465   2.073  -1.144  0.00  0.00    +0.037 C 
ATOM     13  N   UNL     1      -1.825   3.582  -3.642  0.00  0.00    -0.327 N 
ATOM     14  H   UNL     1      -1.190   2.751  -3.302  0.00  0.00    +0.148 HD
ENDROOT
BRANCH   1  15
ATOM     15  C   UNL     1      -4.506   7.457  -2.792  0.00  0.00    -0.001 C 
BRANCH  15  20
ATOM     16  C   UNL     1     -10.080   6.333  -2.216  0.00  0.00    +0.007 C 
ATOM     17  C   UNL     1      -8.675   6.904  -2.019  0.00  0.00    -0.018 C 
ATOM     18  C   UNL     1      -8.234   7.629  -3.294  0.00  0.00    -0.016 C 
ATOM     19  C   UNL     1      -6.804   8.145  -3.113  0.00  0.00    -0.078 C 
ATOM     20  N   UNL     1      -5.907   7.017  -2.835  0.00  0.00    +0.384 N 
ATOM     21  C   UNL     1      -6.282   6.334  -1.590  0.00  0.00    -0.078 C 
ATOM     22  C   UNL     1      -7.696   5.763  -1.726  0.00  0.00    -0.016 C 
ATOM     23  H   UNL     1      -6.011   6.295  -3.658  0.00  0.00    -0.081 HD
ENDBRANCH  15  20
ENDBRANCH   1  15
BRANCH  13  24
ATOM     24  C   UNL     1      -2.109   3.752  -5.069  0.00  0.00    +0.122 C 
BRANCH  24  25
ATOM     25  C   UNL     1      -1.295   2.737  -5.875  0.00  0.00    +0.079 C 
BRANCH  25  26
ATOM     26  N   UNL     1       0.133   2.907  -5.576  0.00  0.00    -0.293 NA
ATOM     27  C   UNL     1       0.656   4.138  -6.187  0.00  0.00    +0.113 C 
ATOM     28  C   UNL     1       2.128   4.306  -5.802  0.00  0.00    +0.175 C 
ATOM     29  O   UNL     1       2.858   3.146  -6.210  0.00  0.00    -0.377 OA
ATOM     30  C   UNL     1       2.376   1.929  -5.633  0.00  0.00    +0.175 C 
ATOM     31  C   UNL     1       0.906   1.737  -6.017  0.00  0.00    +0.113 C 
ENDBRANCH  25  26
BRANCH  25  32
ATOM     32  C   UNL     1      -1.534   2.963  -7.369  0.00  0.00    +0.035 C 
ATOM     33  C   UNL     1      -3.047   2.937  -7.697  0.00  0.00    +0.035 C 
ATOM     34  C   UNL     1      -3.133   2.151  -9.020  0.00  0.00    +0.160 C 
ATOM     35  O   UNL     1      -1.790   1.822  -9.410  0.00  0.00    -0.379 OA
ATOM     36  C   UNL     1      -1.001   1.769  -8.201  0.00  0.00    +0.165 C 
ENDBRANCH  25  32
ENDBRANCH  24  25
ENDBRANCH  13  24
TORSDOF 6
