REMARK  Name = ZINC04498792
REMARK  4 active torsions:
REMARK  status: ('A' for Active; 'I' for Inactive)
REMARK    1  A    between atoms: C_6  and  C_7
REMARK    2  A    between atoms: N_9  and  N_10
REMARK    3  A    between atoms: C_11  and  C_12
REMARK    4  A    between atoms: C_15  and  S_17
REMARK                            x       y       z     vdW  Elec       q    Type
REMARK                         _______ _______ _______ _____ _____    ______ ____
ROOT
ATOM      1  C   UNL     1       0.422  -4.048  -0.325  0.00  0.00    +0.263 C 
ATOM      2  O   UNL     1      -0.550  -4.757  -0.502  0.00  0.00    -0.268 OA
ATOM      3  N   UNL     1       0.263  -2.726  -0.114  0.00  0.00    -0.203 N 
ATOM      4  H   UNL     1       1.038  -2.161   0.028  0.00  0.00    +0.178 HD
ENDROOT
BRANCH   1  10
ATOM      5  C   UNL     1       2.896  -3.823  -0.145  0.00  0.00    +0.014 A 
ATOM      6  C   UNL     1       4.158  -4.378  -0.155  0.00  0.00    +0.016 A 
ATOM      7  C   UNL     1       4.318  -5.737  -0.373  0.00  0.00    +0.018 A 
ATOM      8  C   UNL     1       3.213  -6.546  -0.575  0.00  0.00    +0.016 A 
ATOM      9  C   UNL     1       1.946  -6.004  -0.560  0.00  0.00    +0.014 A 
ATOM     10  C   UNL     1       1.777  -4.635  -0.342  0.00  0.00    +0.038 A 
ATOM     11 BR   UNL     1       6.053  -6.489  -0.393  0.00  0.00    -0.050 Br
ENDBRANCH   1  10
BRANCH   3  12
ATOM     12  N   UNL     1      -1.023  -2.169  -0.098  0.00  0.00    -0.184 NA
ATOM     13  C   UNL     1      -1.181  -0.905   0.168  0.00  0.00    +0.176 C 
BRANCH  13  14
ATOM     14  C   UNL     1      -0.036  -0.099   0.602  0.00  0.00    +0.150 A 
ATOM     15  C   UNL     1      -0.035   1.252   0.797  0.00  0.00    +0.053 A 
ATOM     16  C   UNL     1       1.265   1.600   1.208  0.00  0.00    +0.073 A 
ATOM     17  C   UNL     1       1.987   0.462   1.246  0.00  0.00    +0.273 A 
ATOM     18  O   UNL     1       1.199  -0.562   0.879  0.00  0.00    -0.435 OA
BRANCH  17  19
ATOM     19  S   UNL     1       3.685   0.338   1.699  0.00  0.00    +0.173 S 
ATOM     20  O   UNL     1       4.184  -0.845   1.091  0.00  0.00    -0.137 OA
ATOM     21  O   UNL     1       4.262   1.616   1.466  0.00  0.00    -0.137 OA
ATOM     22  O   UNL     1       3.733   0.107   3.203  0.00  0.00    -0.040 OA
ENDBRANCH  17  19
ENDBRANCH  13  14
ENDBRANCH   3  12
TORSDOF 4
