REMARK  Name = ZINC06322086
REMARK  6 active torsions:
REMARK  status: ('A' for Active; 'I' for Inactive)
REMARK    1  A    between atoms: C_1  and  C_2
REMARK    2  A    between atoms: C_5  and  C_33
REMARK    3  A    between atoms: C_9  and  C_14
REMARK    4  A    between atoms: C_14  and  C_16
REMARK    5  A    between atoms: C_14  and  N_66
REMARK    6  A    between atoms: N_20  and  C_21
REMARK                            x       y       z     vdW  Elec       q    Type
REMARK                         _______ _______ _______ _____ _____    ______ ____
ROOT
ATOM      1  C   UNL     1       3.592   1.631   3.726  0.00  0.00    +0.039 C 
ENDROOT
BRANCH   1  10
ATOM      2  C   UNL     1       0.151   1.267  -0.166  0.00  0.00    +0.044 C 
ATOM      3  C   UNL     1      -0.613   1.654   1.073  0.00  0.00    -0.041 A 
ATOM      4  C   UNL     1      -1.965   1.845   1.014  0.00  0.00    +0.004 A 
ATOM      5  C   UNL     1      -2.680   2.196   2.151  0.00  0.00    +0.005 A 
ATOM      6  C   UNL     1      -2.038   2.372   3.358  0.00  0.00    -0.026 A 
ATOM      7  C   UNL     1      -0.662   2.189   3.442  0.00  0.00    +0.052 A 
ATOM      8  C   UNL     1       0.058   1.827   2.288  0.00  0.00    +0.002 A 
ATOM      9  C   UNL     1       1.506   1.637   2.386  0.00  0.00    +0.018 A 
ATOM     10  C   UNL     1       2.103   1.819   3.590  0.00  0.00    +0.011 A 
ATOM     11  C   UNL     1       1.335   2.183   4.717  0.00  0.00    +0.251 A 
ATOM     12  O   UNL     1       1.892   2.341   5.790  0.00  0.00    -0.268 OA
ATOM     13  N   UNL     1       0.005   2.359   4.637  0.00  0.00    -0.322 N 
ATOM     14  H   UNL     1      -0.493   2.608   5.431  0.00  0.00    +0.169 HD
ATOM     15  C   UNL     1      -2.826   2.761   4.583  0.00  0.00    +0.046 C 
ENDBRANCH   1  10
BRANCH   1  22
ATOM     16  C   UNL     1       5.317   0.628   5.113  0.00  0.00    -0.077 C 
ATOM     17  C   UNL     1       5.683  -0.518   6.017  0.00  0.00    -0.019 C 
ATOM     18  C   UNL     1       6.109  -1.716   5.141  0.00  0.00    -0.002 C 
ATOM     19  C   UNL     1       4.962  -2.421   4.579  0.00  0.00    -0.002 C 
ATOM     20  C   UNL     1       4.112  -1.515   3.664  0.00  0.00    -0.019 C 
ATOM     21  C   UNL     1       3.251  -0.636   4.531  0.00  0.00    -0.077 C 
ATOM     22  N   UNL     1       3.841   0.710   4.846  0.00  0.00    +0.389 N 
ATOM     23  H   UNL     1       3.379   1.077   5.686  0.00  0.00    -0.080 HD
ENDBRANCH   1  22
BRANCH   1  24
ATOM     24  C   UNL     1       4.239   2.955   4.043  0.00  0.00    +0.143 A 
ATOM     25  N   UNL     1       4.249   3.563   5.204  0.00  0.00    -0.115 NA
ATOM     26  N   UNL     1       4.900   4.666   5.071  0.00  0.00    -0.023 NA
ATOM     27  N   UNL     1       5.306   4.778   3.854  0.00  0.00    -0.044 NA
ATOM     28  N   UNL     1       4.923   3.741   3.190  0.00  0.00    -0.227 N 
BRANCH  28  29
ATOM     29  C   UNL     1       5.180   3.470   1.774  0.00  0.00    +0.111 C 
ATOM     30  C   UNL     1       6.690   3.407   1.533  0.00  0.00    +0.027 C 
ATOM     31  C   UNL     1       6.959   3.124   0.053  0.00  0.00    +0.002 C 
ATOM     32  C   UNL     1       6.352   4.241  -0.798  0.00  0.00    +0.000 C 
ATOM     33  C   UNL     1       4.843   4.304  -0.557  0.00  0.00    +0.002 C 
ATOM     34  C   UNL     1       4.574   4.587   0.922  0.00  0.00    +0.027 C 
ENDBRANCH  28  29
ENDBRANCH   1  24
TORSDOF 4
