REMARK  Name = ZINC27044476
REMARK  8 active torsions:
REMARK  status: ('A' for Active; 'I' for Inactive)
REMARK    1  A    between atoms: C_1  and  C_2
REMARK    2  A    between atoms: C_4  and  C_7
REMARK    3  A    between atoms: C_7  and  C_9
REMARK    4  A    between atoms: C_7  and  N_10
REMARK    5  A    between atoms: N_10  and  C_11
REMARK    6  A    between atoms: C_18  and  C_20
REMARK    7  A    between atoms: C_20  and  C_21
REMARK    8  A    between atoms: C_20  and  C_22
REMARK                            x       y       z     vdW  Elec       q    Type
REMARK                         _______ _______ _______ _____ _____    ______ ____
ROOT
ATOM      1  C   UNL     1      -0.453   7.540   1.901  0.00  0.00    +0.030 A 
ATOM      2  C   UNL     1      -1.161   7.541   0.701  0.00  0.00    +0.026 A 
ATOM      3  C   UNL     1      -1.501   6.352   0.091  0.00  0.00    +0.050 A 
ATOM      4  C   UNL     1      -1.138   5.146   0.672  0.00  0.00    +0.155 A 
ATOM      5  C   UNL     1      -0.426   5.138   1.880  0.00  0.00    +0.111 A 
ATOM      6  C   UNL     1      -0.085   6.345   2.492  0.00  0.00    +0.054 A 
ATOM      7  N   UNL     1      -0.217   3.831   2.197  0.00  0.00    -0.213 NA
ATOM      8  C   UNL     1      -0.749   3.086   1.275  0.00  0.00    +0.199 A 
ATOM      9  O   UNL     1      -1.314   3.851   0.328  0.00  0.00    -0.439 OA
ENDROOT
BRANCH   8  10
ATOM     10  C   UNL     1      -0.729   1.579   1.267  0.00  0.00    +0.069 C 
ATOM     11  C   UNL     1      -0.013   1.086   0.008  0.00  0.00    +0.017 C 
ATOM     12  C   UNL     1      -2.164   1.050   1.278  0.00  0.00    +0.017 C 
ENDBRANCH   8  10
BRANCH   1  13
ATOM     13  N   UNL     1      -0.113   8.752   2.510  0.00  0.00    -0.333 N 
ATOM     14  H   UNL     1       0.446   8.754   3.458  0.00  0.00    +0.147 HD
BRANCH  13  15
ATOM     15  C   UNL     1      -0.502  10.020   1.887  0.00  0.00    +0.156 C 
ATOM     16  C   UNL     1      -1.929  10.378   2.305  0.00  0.00    +0.038 C 
BRANCH  15  20
ATOM     17  C   UNL     1       2.599  13.950   1.999  0.00  0.00    +0.091 C 
ATOM     18  C   UNL     1       1.752  12.767   2.394  0.00  0.00    +0.169 A 
ATOM     19  N   UNL     1       0.999  12.017   1.570  0.00  0.00    -0.195 NA
ATOM     20  C   UNL     1       0.441  11.108   2.332  0.00  0.00    +0.247 A 
ATOM     21  O   UNL     1       0.862  11.335   3.580  0.00  0.00    -0.336 OA
ATOM     22  N   UNL     1       1.616  12.285   3.593  0.00  0.00    -0.062 NA
ENDBRANCH  15  20
ENDBRANCH  13  15
ENDBRANCH   1  13
TORSDOF 4
