REMARK  Name = ZINC00499798
REMARK  3 active torsions:
REMARK  status: ('A' for Active; 'I' for Inactive)
REMARK    1  A    between atoms: C_1  and  C_2
REMARK    2  A    between atoms: N_16  and  N_17
REMARK    3  A    between atoms: C_18  and  C_19
REMARK                            x       y       z     vdW  Elec       q    Type
REMARK                         _______ _______ _______ _____ _____    ______ ____
ROOT
ATOM      1  C   UNL     1      -2.501   3.957   0.314  0.00  0.00    +0.088 C 
ATOM      2  C   UNL     1      -1.185   3.240   0.156  0.00  0.00    +0.132 A 
ATOM      3  N   UNL     1      -0.082   3.935   0.153  0.00  0.00    -0.230 NA
ATOM      4  C   UNL     1       1.115   3.339   0.015  0.00  0.00    +0.104 A 
ATOM      5  C   UNL     1       2.498   3.834  -0.026  0.00  0.00    +0.026 A 
ATOM      6  C   UNL     1       3.068   5.105   0.062  0.00  0.00    +0.012 A 
ATOM      7  C   UNL     1       4.425   5.248  -0.011  0.00  0.00    +0.001 A 
ATOM      8  C   UNL     1       5.243   4.138  -0.175  0.00  0.00    +0.002 A 
ATOM      9  C   UNL     1       4.701   2.876  -0.265  0.00  0.00    +0.026 A 
ATOM     10  C   UNL     1       3.320   2.706  -0.192  0.00  0.00    +0.049 A 
ATOM     11  N   UNL     1       2.514   1.589  -0.250  0.00  0.00    -0.349 N 
ATOM     12  H   UNL     1       2.832   0.680  -0.362  0.00  0.00    +0.166 HD
ATOM     13  C   UNL     1       1.187   1.955  -0.127  0.00  0.00    +0.133 A 
ATOM     14  C   UNL     1      -0.019   1.218  -0.122  0.00  0.00    +0.298 A 
ATOM     15  O   UNL     1      -0.009   0.004  -0.243  0.00  0.00    -0.263 OA
ATOM     16  N   UNL     1      -1.183   1.888   0.016  0.00  0.00    -0.181 N 
ENDROOT
BRANCH  16  17
ATOM     17  N   UNL     1      -2.395   1.186   0.020  0.00  0.00    -0.170 NA
ATOM     18  C   UNL     1      -2.668   0.368   0.991  0.00  0.00    +0.144 C 
BRANCH  18  19
ATOM     19  C   UNL     1      -3.889  -0.455   0.940  0.00  0.00    +0.030 A 
ATOM     20  C   UNL     1      -4.184  -1.340   1.980  0.00  0.00    +0.012 A 
ATOM     21  C   UNL     1      -5.332  -2.103   1.928  0.00  0.00    +0.001 A 
ATOM     22  C   UNL     1      -6.186  -2.004   0.843  0.00  0.00    +0.003 A 
ATOM     23  C   UNL     1      -5.900  -1.135  -0.194  0.00  0.00    +0.039 A 
ATOM     24  C   UNL     1      -4.757  -0.359  -0.154  0.00  0.00    +0.132 A 
ATOM     25  F   UNL     1      -4.478   0.489  -1.168  0.00  0.00    -0.205 F 
ENDBRANCH  18  19
ENDBRANCH  16  17
TORSDOF 2
