REMARK  Name = ZINC38659652
REMARK  16 active torsions:
REMARK  status: ('A' for Active; 'I' for Inactive)
REMARK    1  A    between atoms: C_1  and  C_2
REMARK    2  A    between atoms: C_2  and  C_3
REMARK    3  A    between atoms: C_6  and  O_9
REMARK    4  A    between atoms: O_9  and  C_10
REMARK    5  A    between atoms: C_10  and  C_12
REMARK    6  A    between atoms: C_10  and  C_13
REMARK    7  A    between atoms: C_13  and  O_15
REMARK    8  A    between atoms: O_15  and  C_16
REMARK    9  A    between atoms: C_23  and  N_40
REMARK   10  A    between atoms: C_24  and  C_38
REMARK   11  A    between atoms: C_25  and  C_27
REMARK   12  A    between atoms: C_30  and  O_35
REMARK   13  A    between atoms: C_31  and  O_33
REMARK   14  A    between atoms: O_33  and  C_34
REMARK   15  A    between atoms: O_35  and  C_36
REMARK   16  A    between atoms: C_36  and  C_37
REMARK                            x       y       z     vdW  Elec       q    Type
REMARK                         _______ _______ _______ _____ _____    ______ ____
ROOT
ATOM      1  C   UNL     1       2.966  -4.421   8.136  0.00  0.00    +0.135 A 
ATOM      2  C   UNL     1       4.141  -4.862   7.544  0.00  0.00    +0.047 A 
ATOM      3  C   UNL     1       4.929  -5.796   8.187  0.00  0.00    +0.012 A 
ATOM      4  C   UNL     1       4.551  -6.297   9.421  0.00  0.00    +0.008 A 
ATOM      5  C   UNL     1       3.377  -5.860  10.016  0.00  0.00    +0.138 A 
ATOM      6  C   UNL     1       2.587  -4.915   9.373  0.00  0.00    +0.093 A 
ATOM      7  O   UNL     1       2.990  -6.338  11.224  0.00  0.00    -0.441 OA
ATOM      8  C   UNL     1       3.503  -7.492  11.683  0.00  0.00    +0.199 C 
ATOM      9  C   UNL     1       4.654  -8.010  11.194  0.00  0.00    +0.098 C 
ATOM     10  C   UNL     1       5.423  -7.315  10.105  0.00  0.00    +0.098 C 
ENDROOT
BRANCH  10  11
ATOM     11  C   UNL     1       6.622  -6.624  10.703  0.00  0.00    -0.031 A 
ATOM     12  C   UNL     1       6.446  -5.641  11.659  0.00  0.00    +0.008 A 
ATOM     13  C   UNL     1       7.542  -5.005  12.210  0.00  0.00    +0.050 A 
ATOM     14  C   UNL     1       8.821  -5.352  11.805  0.00  0.00    +0.162 A 
ATOM     15  C   UNL     1       8.998  -6.342  10.843  0.00  0.00    +0.162 A 
ATOM     16  C   UNL     1       7.895  -6.979  10.298  0.00  0.00    +0.054 A 
BRANCH  15  17
ATOM     17  O   UNL     1      10.251  -6.686  10.443  0.00  0.00    -0.491 OA
ATOM     18  C   UNL     1      10.357  -7.710   9.452  0.00  0.00    +0.277 C 
ENDBRANCH  15  17
BRANCH  14  19
ATOM     19  O   UNL     1       9.900  -4.726  12.346  0.00  0.00    -0.489 OA
BRANCH  19  20
ATOM     20  C   UNL     1       9.643  -3.720  13.328  0.00  0.00    +0.226 C 
ATOM     21  C   UNL     1      10.969  -3.134  13.817  0.00  0.00    +0.048 C 
ENDBRANCH  19  20
ENDBRANCH  14  19
ENDBRANCH  10  11
BRANCH   8  22
ATOM     22  N   UNL     1       2.840  -8.165  12.679  0.00  0.00    -0.328 N 
ATOM     23  H   UNL     1       2.014  -7.807  13.040  0.00  0.00    +0.145 HD
ATOM     24  H   UNL     1       3.197  -9.000  13.021  0.00  0.00    +0.145 HD
ENDBRANCH   8  22
BRANCH   9  25
ATOM     25  C   UNL     1       5.150  -9.244  11.725  0.00  0.00    +0.101 C 
ATOM     26  N   UNL     1       5.543 -10.223  12.146  0.00  0.00    -0.191 NA
ENDBRANCH   9  25
BRANCH   1  27
ATOM     27  O   UNL     1       2.189  -3.501   7.504  0.00  0.00    -0.423 OA
BRANCH  27  28
ATOM     28  C   UNL     1       1.570  -3.870   6.371  0.00  0.00    +0.353 C 
ATOM     29  O   UNL     1       1.632  -5.016   5.995  0.00  0.00    -0.246 OA
BRANCH  28  30
ATOM     30  C   UNL     1       0.798  -2.854   5.569  0.00  0.00    +0.279 C 
ATOM     31  C   UNL     1       1.761  -1.798   5.022  0.00  0.00    +0.064 C 
BRANCH  30  32
ATOM     32  O   UNL     1       0.140  -3.506   4.482  0.00  0.00    -0.478 OA
BRANCH  32  36
ATOM     33  C   UNL     1      -3.153  -1.609   2.876  0.00  0.00    -0.047 A 
ATOM     34  C   UNL     1      -2.515  -1.071   3.979  0.00  0.00    +0.007 A 
ATOM     35  C   UNL     1      -1.413  -1.704   4.519  0.00  0.00    +0.046 A 
ATOM     36  C   UNL     1      -0.945  -2.881   3.953  0.00  0.00    +0.122 A 
ATOM     37  C   UNL     1      -1.586  -3.420   2.847  0.00  0.00    +0.046 A 
ATOM     38  C   UNL     1      -2.692  -2.785   2.314  0.00  0.00    +0.007 A 
BRANCH  33  40
ATOM     39  C   UNL     1      -5.625  -1.436   2.966  0.00  0.00    +0.009 C 
ATOM     40  C   UNL     1      -4.355  -0.915   2.289  0.00  0.00    +0.032 C 
ENDBRANCH  33  40
ENDBRANCH  32  36
ENDBRANCH  30  32
ENDBRANCH  28  30
ENDBRANCH  27  28
ENDBRANCH   1  27
TORSDOF 12
