REMARK  Name = ZINC61452084
REMARK  8 active torsions:
REMARK  status: ('A' for Active; 'I' for Inactive)
REMARK    1  A    between atoms: C_1  and  O_2
REMARK    2  A    between atoms: O_2  and  C_3
REMARK    3  A    between atoms: C_5  and  O_20
REMARK    4  A    between atoms: C_7  and  O_9
REMARK    5  A    between atoms: O_9  and  C_10
REMARK    6  A    between atoms: C_11  and  N_19
REMARK    7  A    between atoms: C_13  and  C_17
REMARK    8  A    between atoms: O_20  and  C_21
REMARK                            x       y       z     vdW  Elec       q    Type
REMARK                         _______ _______ _______ _____ _____    ______ ____
ROOT
ATOM      1  C   UNL     1       0.720  -4.582  -1.220  0.00  0.00    +0.165 A 
ATOM      2  C   UNL     1       1.480  -4.937  -0.104  0.00  0.00    +0.070 A 
ATOM      3  C   UNL     1       0.902  -5.663   0.922  0.00  0.00    +0.045 A 
ATOM      4  C   UNL     1      -0.441  -6.039   0.838  0.00  0.00    +0.055 A 
ATOM      5  C   UNL     1      -1.195  -5.680  -0.282  0.00  0.00    +0.037 A 
ATOM      6  C   UNL     1      -0.615  -4.951  -1.300  0.00  0.00    +0.059 A 
ATOM      7  I   UNL     1      -1.751  -4.407  -2.974  0.00  0.00    -0.040 I 
ENDROOT
BRANCH   2   8
ATOM      8  N   UNL     1       2.825  -4.559  -0.024  0.00  0.00    -0.355 N 
ATOM      9  H   UNL     1       3.229  -4.051  -0.743  0.00  0.00    +0.142 HD
ATOM     10  H   UNL     1       3.352  -4.806   0.752  0.00  0.00    +0.142 HD
ENDBRANCH   2   8
BRANCH   4  11
ATOM     11  C   UNL     1      -1.044  -6.791   1.897  0.00  0.00    +0.099 C 
ATOM     12  N   UNL     1      -1.522  -7.388   2.737  0.00  0.00    -0.191 NA
ENDBRANCH   4  11
BRANCH   1  13
ATOM     13  O   UNL     1       1.288  -3.869  -2.227  0.00  0.00    -0.420 OA
BRANCH  13  18
ATOM     14  C   UNL     1       0.603  -0.605  -1.051  0.00  0.00    +0.326 A 
ATOM     15  N   UNL     1       1.146   0.131  -2.014  0.00  0.00    -0.141 NA
ATOM     16  C   UNL     1       1.735  -0.458  -3.047  0.00  0.00    +0.326 A 
ATOM     17  N   UNL     1       1.783  -1.782  -3.118  0.00  0.00    -0.141 NA
ATOM     18  C   UNL     1       1.240  -2.518  -2.155  0.00  0.00    +0.332 A 
ATOM     19  N   UNL     1       0.655  -1.929  -1.119  0.00  0.00    -0.141 NA
BRANCH  14  21
ATOM     20  C   UNL     1      -0.017   1.425   0.010  0.00  0.00    +0.280 C 
ATOM     21  O   UNL     1       0.002  -0.004   0.002  0.00  0.00    -0.466 OA
ENDBRANCH  14  21
BRANCH  16  22
ATOM     22  O   UNL     1       2.288   0.292  -4.029  0.00  0.00    -0.466 OA
ATOM     23  C   UNL     1       2.200   1.712  -3.888  0.00  0.00    +0.280 C 
ENDBRANCH  16  22
ENDBRANCH  13  18
ENDBRANCH   1  13
TORSDOF 6
