REMARK  Name = ZINC04641125
REMARK  11 active torsions:
REMARK  status: ('A' for Active; 'I' for Inactive)
REMARK    1  A    between atoms: C_1  and  C_2
REMARK    2  A    between atoms: C_5  and  N_8
REMARK    3  A    between atoms: C_11  and  C_18
REMARK    4  A    between atoms: C_18  and  C_41
REMARK    5  A    between atoms: N_19  and  C_20
REMARK    6  A    between atoms: C_20  and  C_21
REMARK    7  A    between atoms: C_21  and  C_22
REMARK    8  A    between atoms: C_23  and  C_40
REMARK    9  A    between atoms: C_29  and  O_32
REMARK   10  A    between atoms: O_32  and  C_33
REMARK   11  A    between atoms: C_33  and  C_34
REMARK                            x       y       z     vdW  Elec       q    Type
REMARK                         _______ _______ _______ _____ _____    ______ ____
ROOT
ATOM      1  C   UNL     1       1.284   1.702   2.398  0.00  0.00    +0.064 C 
ATOM      2  N   UNL     1       0.982   0.782   1.541  0.00  0.00    -0.286 NA
ENDROOT
BRANCH   1   6
ATOM      3  N   UNL     1       2.135  -0.923   4.516  0.00  0.00    -0.193 N 
ATOM      4  C   UNL     1       1.163  -0.129   4.019  0.00  0.00    +0.245 C 
ATOM      5  O   UNL     1       0.077  -0.578   3.720  0.00  0.00    -0.274 OA
ATOM      6  C   UNL     1       1.479   1.345   3.849  0.00  0.00    +0.210 C 
ATOM      7  C   UNL     1       2.872   1.783   4.260  0.00  0.00    +0.238 C 
ATOM      8  O   UNL     1       3.221   2.940   4.162  0.00  0.00    -0.274 OA
ATOM      9  N   UNL     1       3.708   0.837   4.737  0.00  0.00    -0.238 N 
ATOM     10  C   UNL     1       3.338  -0.443   4.851  0.00  0.00    +0.319 C 
ATOM     11  O   UNL     1       4.155  -1.228   5.291  0.00  0.00    -0.251 OA
ATOM     12  H   UNL     1       4.605   1.094   5.005  0.00  0.00    +0.159 HD
BRANCH   3  17
ATOM     13  C   UNL     1       1.087  -6.458   5.205  0.00  0.00    +0.044 C 
ATOM     14  C   UNL     1       1.365  -4.989   5.022  0.00  0.00    -0.050 A 
ATOM     15  C   UNL     1       2.034  -4.548   3.895  0.00  0.00    +0.005 A 
ATOM     16  C   UNL     1       2.290  -3.201   3.724  0.00  0.00    +0.024 A 
ATOM     17  C   UNL     1       1.876  -2.290   4.687  0.00  0.00    +0.045 A 
ATOM     18  C   UNL     1       1.211  -2.736   5.820  0.00  0.00    +0.024 A 
ATOM     19  C   UNL     1       0.953  -4.083   5.982  0.00  0.00    +0.005 A 
ENDBRANCH   3  17
ENDBRANCH   1   6
BRANCH   1  20
ATOM     20  C   UNL     1       1.437   3.102   1.955  0.00  0.00    -0.003 A 
ATOM     21  C   UNL     1       0.371   3.996   2.075  0.00  0.00    +0.010 A 
ATOM     22  C   UNL     1       0.523   5.304   1.665  0.00  0.00    +0.001 A 
ATOM     23  C   UNL     1       1.725   5.728   1.124  0.00  0.00    +0.000 A 
ATOM     24  C   UNL     1       2.783   4.845   0.997  0.00  0.00    +0.001 A 
ATOM     25  C   UNL     1       2.647   3.536   1.409  0.00  0.00    +0.010 A 
ENDBRANCH   1  20
BRANCH   2  26
ATOM     26  C   UNL     1       0.853   1.118   0.121  0.00  0.00    +0.146 C 
BRANCH  26  27
ATOM     27  C   UNL     1       1.963   0.423  -0.671  0.00  0.00    +0.060 C 
BRANCH  27  28
ATOM     28  C   UNL     1       1.830   0.768  -2.131  0.00  0.00    -0.018 A 
ATOM     29  C   UNL     1       2.400   1.808  -2.761  0.00  0.00    +0.017 A 
ATOM     30  N   UNL     1       2.054   1.800  -4.084  0.00  0.00    -0.358 N 
ATOM     31  H   UNL     1       2.345   2.452  -4.740  0.00  0.00    +0.166 HD
ATOM     32  C   UNL     1       1.230   0.725  -4.346  0.00  0.00    +0.047 A 
ATOM     33  C   UNL     1       1.060   0.030  -3.135  0.00  0.00    +0.007 A 
ATOM     34  C   UNL     1       0.259  -1.113  -3.094  0.00  0.00    +0.056 A 
ATOM     35  C   UNL     1      -0.353  -1.560  -4.248  0.00  0.00    +0.122 A 
ATOM     36  C   UNL     1      -0.178  -0.873  -5.446  0.00  0.00    +0.048 A 
ATOM     37  C   UNL     1       0.606   0.259  -5.497  0.00  0.00    +0.030 A 
ATOM     38  C   UNL     1       3.290   2.833  -2.106  0.00  0.00    +0.063 C 
BRANCH  35  39
ATOM     39  O   UNL     1      -1.129  -2.676  -4.215  0.00  0.00    -0.487 OA
BRANCH  39  40
ATOM     40  C   UNL     1      -1.732  -3.084  -5.444  0.00  0.00    +0.264 C 
BRANCH  40  41
ATOM     41  C   UNL     1      -2.549  -4.329  -5.215  0.00  0.00    -0.010 A 
ATOM     42  C   UNL     1      -1.967  -5.574  -5.362  0.00  0.00    +0.007 A 
ATOM     43  C   UNL     1      -2.715  -6.717  -5.146  0.00  0.00    +0.000 A 
ATOM     44  C   UNL     1      -4.048  -6.614  -4.794  0.00  0.00    +0.000 A 
ATOM     45  C   UNL     1      -4.631  -5.369  -4.653  0.00  0.00    +0.000 A 
ATOM     46  C   UNL     1      -3.882  -4.226  -4.863  0.00  0.00    +0.007 A 
ENDBRANCH  40  41
ENDBRANCH  39  40
ENDBRANCH  35  39
ENDBRANCH  27  28
ENDBRANCH  26  27
ENDBRANCH   2  26
TORSDOF 9
