REMARK  Name = ZINC39727295
REMARK  8 active torsions:
REMARK  status: ('A' for Active; 'I' for Inactive)
REMARK    1  A    between atoms: C_1  and  C_2
REMARK    2  A    between atoms: C_4  and  S_9
REMARK    3  A    between atoms: C_5  and  C_8
REMARK    4  A    between atoms: S_9  and  N_12
REMARK    5  A    between atoms: N_15  and  C_18
REMARK    6  A    between atoms: C_18  and  C_20
REMARK    7  A    between atoms: C_18  and  C_26
REMARK    8  A    between atoms: C_26  and  C_28
REMARK                            x       y       z     vdW  Elec       q    Type
REMARK                         _______ _______ _______ _____ _____    ______ ____
ROOT
ATOM      1  C   UNL     1      -3.071  -2.647  -6.338  0.00  0.00    +0.159 C 
ENDROOT
BRANCH   1   5
ATOM      2  N   UNL     1      -3.302  -1.006  -2.482  0.00  0.00    -0.174 NA
ATOM      3  C   UNL     1      -2.211  -0.530  -3.347  0.00  0.00    +0.125 C 
ATOM      4  C   UNL     1      -2.572  -0.842  -4.803  0.00  0.00    +0.102 C 
ATOM      5  N   UNL     1      -2.887  -2.272  -4.930  0.00  0.00    -0.286 NA
ATOM      6  C   UNL     1      -4.066  -2.631  -4.131  0.00  0.00    +0.102 C 
ATOM      7  C   UNL     1      -3.762  -2.393  -2.643  0.00  0.00    +0.125 C 
BRANCH   2   8
ATOM      8  S   UNL     1      -3.989  -0.008  -1.353  0.00  0.00    +0.061 S 
ATOM      9  O   UNL     1      -5.291  -0.517  -1.100  0.00  0.00    -0.153 OA
ATOM     10  O   UNL     1      -3.765   1.323  -1.798  0.00  0.00    -0.153 OA
BRANCH   8  13
ATOM     11  C   UNL     1      -1.725   1.889   0.343  0.00  0.00    +0.047 C 
ATOM     12  C   UNL     1      -1.699   0.362   0.421  0.00  0.00    +0.196 C 
ATOM     13  C   UNL     1      -3.073  -0.202   0.139  0.00  0.00    +0.134 C 
ATOM     14  C   UNL     1      -3.462  -0.862   1.209  0.00  0.00    +0.061 C 
ATOM     15  N   UNL     1      -2.501  -0.815   2.202  0.00  0.00    -0.268 N 
ATOM     16  O   UNL     1      -1.383  -0.064   1.755  0.00  0.00    -0.265 OA
ATOM     17  C   UNL     1      -4.783  -1.576   1.336  0.00  0.00    +0.067 C 
ATOM     18  H   UNL     1      -2.578  -1.234   3.074  0.00  0.00    +0.194 HD
ENDBRANCH   8  13
ENDBRANCH   2   8
ENDBRANCH   1   5
BRANCH   1  19
ATOM     19  C   UNL     1      -1.861  -2.225  -7.133  0.00  0.00    -0.023 A 
ATOM     20  C   UNL     1      -0.593  -2.515  -6.667  0.00  0.00    +0.005 A 
ATOM     21  C   UNL     1       0.516  -2.127  -7.395  0.00  0.00    +0.000 A 
ATOM     22  C   UNL     1       0.357  -1.451  -8.590  0.00  0.00    +0.000 A 
ATOM     23  C   UNL     1      -0.912  -1.161  -9.056  0.00  0.00    +0.000 A 
ATOM     24  C   UNL     1      -2.021  -1.552  -8.330  0.00  0.00    +0.005 A 
ENDBRANCH   1  19
BRANCH   1  25
ATOM     25  C   UNL     1      -3.243  -4.141  -6.441  0.00  0.00    +0.183 C 
ATOM     26  O   UNL     1      -2.807  -4.864  -5.569  0.00  0.00    -0.290 OA
BRANCH  25  27
ATOM     27  C   UNL     1      -3.912  -4.698  -7.552  0.00  0.00    +0.025 C 
ATOM     28  C   UNL     1      -4.157  -6.038  -7.794  0.00  0.00    +0.006 A 
ATOM     29  C   UNL     1      -3.850  -7.218  -7.076  0.00  0.00    +0.010 A 
ATOM     30  C   UNL     1      -4.219  -8.425  -7.559  0.00  0.00    +0.001 A 
ATOM     31  C   UNL     1      -4.912  -8.572  -8.772  0.00  0.00    +0.002 A 
ATOM     32  C   UNL     1      -5.253  -7.510  -9.534  0.00  0.00    +0.026 A 
ATOM     33  C   UNL     1      -4.888  -6.157  -9.079  0.00  0.00    +0.043 A 
ATOM     34  N   UNL     1      -5.086  -4.981  -9.603  0.00  0.00    -0.380 N 
ATOM     35  C   UNL     1      -4.516  -3.956  -8.724  0.00  0.00    +0.152 C 
ATOM     36  H   UNL     1      -5.543  -4.811 -10.441  0.00  0.00    +0.160 HD
ENDBRANCH  25  27
ENDBRANCH   1  25
TORSDOF 6
