REMARK  Name = ZINC20564061
REMARK  6 active torsions:
REMARK  status: ('A' for Active; 'I' for Inactive)
REMARK    1  A    between atoms: C_1  and  C_2
REMARK    2  A    between atoms: C_4  and  C_32
REMARK    3  A    between atoms: N_5  and  C_26
REMARK    4  A    between atoms: C_14  and  C_17
REMARK    5  A    between atoms: N_19  and  C_20
REMARK    6  A    between atoms: C_20  and  C_21
REMARK                            x       y       z     vdW  Elec       q    Type
REMARK                         _______ _______ _______ _____ _____    ______ ____
ROOT
ATOM      1  C   UNL     1       3.728   7.026   1.173  0.00  0.00    +0.068 C 
ATOM      2  C   UNL     1       2.437   6.897   0.406  0.00  0.00    +0.072 A 
ATOM      3  C   UNL     1       1.933   5.622   0.073  0.00  0.00    +0.049 A 
ATOM      4  C   UNL     1       2.314   4.312   0.262  0.00  0.00    +0.051 A 
ATOM      5  N   UNL     1       1.385   3.525  -0.309  0.00  0.00    -0.236 N 
ATOM      6  N   UNL     1       0.382   4.314  -0.886  0.00  0.00    -0.163 NA
ATOM      7  C   UNL     1       0.662   5.580  -0.679  0.00  0.00    +0.137 A 
ATOM      8  C   UNL     1       0.055   6.871  -1.002  0.00  0.00    +0.172 A 
ATOM      9  N   UNL     1       0.676   7.966  -0.605  0.00  0.00    -0.132 NA
ATOM     10  N   UNL     1       1.776   7.967   0.045  0.00  0.00    -0.152 NA
ATOM     11  N   UNL     1      -1.137   6.942  -1.704  0.00  0.00    -0.312 N 
ATOM     12  C   UNL     1      -2.191   6.172  -1.030  0.00  0.00    +0.107 C 
ATOM     13  C   UNL     1      -3.448   6.153  -1.904  0.00  0.00    +0.031 C 
ATOM     14  C   UNL     1      -3.916   7.590  -2.148  0.00  0.00    +0.078 C 
ATOM     15  C   UNL     1      -2.783   8.383  -2.806  0.00  0.00    +0.031 C 
ATOM     16  C   UNL     1      -1.546   8.338  -1.907  0.00  0.00    +0.107 C 
ATOM     17  C   UNL     1       3.553   3.844   0.981  0.00  0.00    +0.066 C 
ENDROOT
BRANCH   5  18
ATOM     18  C   UNL     1       1.419   2.125  -0.328  0.00  0.00    +0.066 A 
ATOM     19  C   UNL     1       0.238   1.399  -0.245  0.00  0.00    +0.028 A 
ATOM     20  C   UNL     1       0.274   0.019  -0.265  0.00  0.00    +0.002 A 
ATOM     21  C   UNL     1       1.485  -0.641  -0.368  0.00  0.00    +0.000 A 
ATOM     22  C   UNL     1       2.663   0.078  -0.451  0.00  0.00    +0.002 A 
ATOM     23  C   UNL     1       2.633   1.459  -0.431  0.00  0.00    +0.028 A 
ENDBRANCH   5  18
BRANCH  14  24
ATOM     24  C   UNL     1      -5.118   7.580  -3.057  0.00  0.00    +0.217 C 
ATOM     25  O   UNL     1      -5.074   8.151  -4.127  0.00  0.00    -0.276 OA
ATOM     26  N   UNL     1      -6.242   6.938  -2.682  0.00  0.00    -0.308 N 
ATOM     27  H   UNL     1      -6.281   6.420  -1.712  0.00  0.00    +0.149 HD
BRANCH  26  28
ATOM     28  C   UNL     1      -7.410   6.928  -3.566  0.00  0.00    +0.178 C 
BRANCH  28  29
ATOM     29  C   UNL     1      -8.524   6.148  -2.917  0.00  0.00    +0.122 A 
ATOM     30  C   UNL     1      -9.470   6.654  -2.106  0.00  0.00    +0.046 A 
ATOM     31  C   UNL     1     -10.306   5.577  -1.730  0.00  0.00    +0.041 A 
ATOM     32  C   UNL     1      -9.820   4.477  -2.333  0.00  0.00    +0.195 A 
ATOM     33  O   UNL     1      -8.744   4.830  -3.056  0.00  0.00    -0.466 OA
ENDBRANCH  28  29
ENDBRANCH  26  28
ENDBRANCH  14  24
TORSDOF 4
