REMARK  Name = ZINC09344870
REMARK  15 active torsions:
REMARK  status: ('A' for Active; 'I' for Inactive)
REMARK    1  A    between atoms: C_1  and  C_2
REMARK    2  A    between atoms: C_2  and  C_3
REMARK    3  A    between atoms: C_3  and  C_4
REMARK    4  A    between atoms: C_4  and  N_5
REMARK    5  A    between atoms: N_5  and  C_6
REMARK    6  A    between atoms: N_5  and  S_7
REMARK    7  A    between atoms: S_7  and  C_10
REMARK    8  A    between atoms: C_13  and  C_16
REMARK    9  A    between atoms: N_18  and  C_19
REMARK   10  A    between atoms: C_19  and  C_20
REMARK   11  A    between atoms: C_20  and  N_68
REMARK   12  A    between atoms: C_21  and  C_22
REMARK   13  A    between atoms: C_21  and  N_68
REMARK   14  A    between atoms: C_23  and  C_24
REMARK   15  A    between atoms: C_23  and  N_68
REMARK                            x       y       z     vdW  Elec       q    Type
REMARK                         _______ _______ _______ _____ _____    ______ ____
ROOT
ATOM      1  C   UNL     1      -3.349   3.123   4.744  0.00  0.00    +0.252 C 
ATOM      2  O   UNL     1      -2.658   2.717   3.831  0.00  0.00    -0.270 OA
ATOM      3  N   UNL     1      -3.030   4.273   5.370  0.00  0.00    -0.248 N 
ATOM      4  C   UNL     1      -2.000   5.062   4.888  0.00  0.00    +0.168 A 
ATOM      5  N   UNL     1      -1.285   4.906   3.797  0.00  0.00    -0.224 NA
ATOM      6  C   UNL     1      -0.301   5.762   3.446  0.00  0.00    +0.080 A 
ATOM      7  C   UNL     1       0.536   5.710   2.307  0.00  0.00    +0.029 A 
ATOM      8  C   UNL     1       1.493   6.668   2.098  0.00  0.00    +0.002 A 
ATOM      9  C   UNL     1       1.677   7.716   2.988  0.00  0.00    +0.001 A 
ATOM     10  C   UNL     1       0.877   7.798   4.113  0.00  0.00    +0.017 A 
ATOM     11  C   UNL     1      -0.085   6.843   4.330  0.00  0.00    +0.041 A 
ATOM     12  S   UNL     1      -1.308   6.554   5.587  0.00  0.00    -0.052 S 
ENDROOT
BRANCH   1  16
ATOM     13  C   UNL     1      -6.771   0.921   5.960  0.00  0.00    +0.106 A 
ATOM     14  C   UNL     1      -6.087   1.695   6.881  0.00  0.00    +0.029 A 
ATOM     15  C   UNL     1      -4.971   2.409   6.494  0.00  0.00    +0.015 A 
ATOM     16  C   UNL     1      -4.540   2.357   5.167  0.00  0.00    +0.037 A 
ATOM     17  C   UNL     1      -5.238   1.579   4.242  0.00  0.00    +0.015 A 
ATOM     18  C   UNL     1      -6.349   0.866   4.644  0.00  0.00    +0.029 A 
BRANCH  13  19
ATOM     19  S   UNL     1      -8.191   0.008   6.465  0.00  0.00    +0.061 S 
ATOM     20  O   UNL     1      -8.976  -0.199   5.298  0.00  0.00    -0.153 OA
ATOM     21  O   UNL     1      -8.701   0.656   7.622  0.00  0.00    -0.153 OA
BRANCH  19  22
ATOM     22  N   UNL     1      -7.665  -1.485   6.952  0.00  0.00    -0.180 NA
ATOM     23  C   UNL     1      -7.292  -1.710   8.351  0.00  0.00    +0.131 C 
BRANCH  22  24
ATOM     24  C   UNL     1      -7.572  -2.581   5.984  0.00  0.00    +0.109 C 
BRANCH  24  25
ATOM     25  C   UNL     1      -6.146  -2.660   5.438  0.00  0.00    +0.017 C 
BRANCH  25  27
ATOM     26  C   UNL     1      -4.622  -3.884   3.881  0.00  0.00    +0.004 C 
ATOM     27  C   UNL     1      -6.049  -3.805   4.428  0.00  0.00    -0.002 C 
ENDBRANCH  25  27
ENDBRANCH  24  25
ENDBRANCH  22  24
ENDBRANCH  19  22
ENDBRANCH  13  19
ENDBRANCH   1  16
BRANCH   3  28
ATOM     28  C   UNL     1      -3.774   4.689   6.562  0.00  0.00    +0.097 C 
BRANCH  28  29
ATOM     29  C   UNL     1      -2.984   4.308   7.815  0.00  0.00    -0.059 C 
BRANCH  29  30
ATOM     30  N   UNL     1      -3.809   4.597   9.007  0.00  0.00    +0.380 N 
ATOM     31  H   UNL     1      -4.703   4.099   8.921  0.00  0.00    -0.082 HD
BRANCH  30  32
ATOM     32  C   UNL     1      -3.115   4.131  10.226  0.00  0.00    -0.082 C 
ATOM     33  C   UNL     1      -4.077   4.235  11.411  0.00  0.00    -0.017 C 
ENDBRANCH  30  32
BRANCH  30  34
ATOM     34  C   UNL     1      -4.073   6.048   9.099  0.00  0.00    -0.082 C 
ATOM     35  C   UNL     1      -2.762   6.835   9.068  0.00  0.00    -0.017 C 
ENDBRANCH  30  34
ENDBRANCH  29  30
ENDBRANCH  28  29
ENDBRANCH   3  28
TORSDOF 11
