REMARK  Name = ZINC00871818
REMARK  5 active torsions:
REMARK  status: ('A' for Active; 'I' for Inactive)
REMARK    1  A    between atoms: C_1  and  C_2
REMARK    2  A    between atoms: C_9  and  C_18
REMARK    3  A    between atoms: C_21  and  O_27
REMARK    4  A    between atoms: C_22  and  N_24
REMARK    5  A    between atoms: O_27  and  C_28
REMARK                            x       y       z     vdW  Elec       q    Type
REMARK                         _______ _______ _______ _____ _____    ______ ____
ROOT
ATOM      1  C   UNL     1      -4.832   1.591  -0.085  0.00  0.00    +0.045 C 
ATOM      2  C   UNL     1      -3.747   1.786   0.942  0.00  0.00    -0.029 A 
ATOM      3  C   UNL     1      -4.080   2.131   2.235  0.00  0.00    +0.006 A 
ATOM      4  C   UNL     1      -3.084   2.311   3.176  0.00  0.00    +0.020 A 
ATOM      5  C   UNL     1      -1.760   2.148   2.821  0.00  0.00    +0.046 A 
ATOM      6  C   UNL     1      -1.413   1.803   1.520  0.00  0.00    -0.001 A 
ATOM      7  C   UNL     1      -2.411   1.619   0.579  0.00  0.00    +0.036 A 
ATOM      8  N   UNL     1      -2.131   1.262  -0.740  0.00  0.00    -0.336 N 
ATOM      9  C   UNL     1      -0.792   1.673  -1.171  0.00  0.00    +0.105 C 
ATOM     10  C   UNL     1       0.251   1.077  -0.222  0.00  0.00    +0.029 C 
ATOM     11  C   UNL     1       0.043   1.645   1.198  0.00  0.00    +0.050 C 
ATOM     12  C   UNL     1       0.730   2.991   1.161  0.00  0.00    -0.023 C 
ATOM     13  C   UNL     1       1.601   3.035   0.185  0.00  0.00    -0.030 C 
ATOM     14  C   UNL     1       1.626   1.718  -0.565  0.00  0.00    +0.033 C 
ATOM     15 CL   UNL     1      -0.516   2.376   4.010  0.00  0.00    -0.083 Cl
ATOM     16  H   UNL     1      -2.837   1.616  -1.368  0.00  0.00    +0.147 HD
ENDROOT
BRANCH   9  17
ATOM     17  C   UNL     1      -0.708   3.177  -1.130  0.00  0.00    -0.025 A 
ATOM     18  C   UNL     1      -1.598   3.897  -0.354  0.00  0.00    +0.009 A 
ATOM     19  C   UNL     1      -1.523   5.276  -0.314  0.00  0.00    +0.048 A 
ATOM     20  C   UNL     1      -0.554   5.938  -1.053  0.00  0.00    +0.150 A 
ATOM     21  C   UNL     1       0.338   5.214  -1.831  0.00  0.00    +0.168 A 
ATOM     22  C   UNL     1       0.262   3.835  -1.863  0.00  0.00    +0.042 A 
BRANCH  21  23
ATOM     23  N   UNL     1       1.373   5.918  -2.621  0.00  0.00    +0.060 N 
ATOM     24  O   UNL     1       2.156   5.281  -3.303  0.00  0.00    -0.126 OA
ATOM     25  O   UNL     1       1.442   7.133  -2.588  0.00  0.00    -0.126 OA
ENDBRANCH  21  23
BRANCH  20  26
ATOM     26  O   UNL     1      -0.478   7.295  -1.016  0.00  0.00    -0.493 OA
ATOM     27  C   UNL     1      -1.428   7.975  -0.193  0.00  0.00    +0.277 C 
ENDBRANCH  20  26
ENDBRANCH   9  17
TORSDOF 3
