REMARK  Name = ZINC12723715
REMARK  5 active torsions:
REMARK  status: ('A' for Active; 'I' for Inactive)
REMARK    1  A    between atoms: C_1  and  C_2
REMARK    2  A    between atoms: C_2  and  C_4
REMARK    3  A    between atoms: C_2  and  S_13
REMARK    4  A    between atoms: N_9  and  C_10
REMARK    5  A    between atoms: S_13  and  C_14
REMARK                            x       y       z     vdW  Elec       q    Type
REMARK                         _______ _______ _______ _____ _____    ______ ____
ROOT
ATOM      1  C   UNL     1      -7.511   0.728  -0.535  0.00  0.00    +0.192 A 
ATOM      2  N   UNL     1      -7.296  -0.506  -0.093  0.00  0.00    -0.207 NA
ATOM      3  C   UNL     1      -8.193  -1.468  -0.230  0.00  0.00    +0.129 A 
ATOM      4  C   UNL     1      -9.425  -1.181  -0.881  0.00  0.00    +0.051 A 
ATOM      5  C   UNL     1     -10.550  -2.082  -1.147  0.00  0.00    -0.025 A 
ATOM      6  C   UNL     1     -11.614  -1.558  -1.787  0.00  0.00    -0.004 A 
ATOM      7  S   UNL     1     -11.193   0.140  -2.074  0.00  0.00    -0.073 S 
ATOM      8  C   UNL     1      -9.583   0.145  -1.330  0.00  0.00    +0.115 A 
ATOM      9  N   UNL     1      -8.641   1.051  -1.150  0.00  0.00    -0.214 NA
ATOM     10  C   UNL     1     -12.879  -2.264  -2.173  0.00  0.00    +0.043 C 
ATOM     11  C   UNL     1     -12.644  -3.777  -2.061  0.00  0.00    +0.005 C 
ATOM     12  C   UNL     1     -11.974  -4.072  -0.715  0.00  0.00    +0.005 C 
ATOM     13  C   UNL     1     -10.537  -3.548  -0.726  0.00  0.00    +0.037 C 
ATOM     14  N   UNL     1      -7.934  -2.739   0.249  0.00  0.00    -0.343 N 
ATOM     15  H   UNL     1      -8.467  -3.490  -0.055  0.00  0.00    +0.144 HD
ATOM     16  H   UNL     1      -7.218  -2.879   0.889  0.00  0.00    +0.144 HD
ENDROOT
BRANCH   1  17
ATOM     17  S   UNL     1      -6.269   1.956  -0.308  0.00  0.00    -0.073 S 
BRANCH  17  19
ATOM     18  C   UNL     1      -5.552   0.537   1.913  0.00  0.00    +0.029 C 
ATOM     19  C   UNL     1      -5.012   0.978   0.551  0.00  0.00    +0.137 C 
BRANCH  19  20
ATOM     20  C   UNL     1      -3.773   1.812   0.748  0.00  0.00    +0.233 C 
ATOM     21  O   UNL     1      -3.855   3.021   0.782  0.00  0.00    -0.274 OA
ATOM     22  N   UNL     1      -2.573   1.214   0.885  0.00  0.00    -0.239 N 
ATOM     23  C   UNL     1      -1.464   1.961   1.061  0.00  0.00    +0.306 C 
ATOM     24  O   UNL     1      -1.547   3.173   1.095  0.00  0.00    -0.252 OA
ATOM     25  N   UNL     1      -0.264   1.363   1.199  0.00  0.00    -0.296 N 
ATOM     26  H   UNL     1      -2.507   0.247   0.858  0.00  0.00    +0.159 HD
ATOM     27  H   UNL     1      -0.198   0.396   1.172  0.00  0.00    +0.151 HD
BRANCH  25  28
ATOM     28  C   UNL     1       0.941   2.175   1.384  0.00  0.00    +0.075 C 
ATOM     29  C   UNL     1       2.185   1.785   0.583  0.00  0.00    +0.024 C 
ATOM     30  C   UNL     1       2.131   1.522   2.090  0.00  0.00    +0.024 C 
ENDBRANCH  25  28
ENDBRANCH  19  20
ENDBRANCH  17  19
ENDBRANCH   1  17
TORSDOF 4
