REMARK  Name = ZINC36551022
REMARK  7 active torsions:
REMARK  status: ('A' for Active; 'I' for Inactive)
REMARK    1  A    between atoms: C_1  and  C_2
REMARK    2  A    between atoms: C_2  and  N_3
REMARK    3  A    between atoms: C_14  and  C_16
REMARK    4  A    between atoms: C_27  and  S_32
REMARK    5  A    between atoms: S_32  and  N_35
REMARK    6  A    between atoms: N_35  and  C_36
REMARK    7  A    between atoms: C_36  and  C_37
REMARK                            x       y       z     vdW  Elec       q    Type
REMARK                         _______ _______ _______ _____ _____    ______ ____
ROOT
ATOM      1  C   UNL     1       6.066  -1.699  -2.421  0.00  0.00    +0.105 C 
ATOM      2  C   UNL     1       6.781  -0.428  -2.773  0.00  0.00    +0.029 C 
ATOM      3  C   UNL     1       8.018  -0.679  -3.659  0.00  0.00    +0.033 C 
ATOM      4  C   UNL     1       8.939   0.477  -3.331  0.00  0.00    -0.030 C 
ATOM      5  C   UNL     1       8.589   1.048  -2.207  0.00  0.00    -0.023 C 
ATOM      6  C   UNL     1       7.402   0.336  -1.607  0.00  0.00    +0.049 C 
ATOM      7  C   UNL     1       7.905  -0.563  -0.512  0.00  0.00    -0.018 A 
ATOM      8  C   UNL     1       8.752  -0.023   0.445  0.00  0.00    +0.034 A 
ATOM      9  C   UNL     1       9.249  -0.811   1.464  0.00  0.00    +0.106 A 
ATOM     10  C   UNL     1       8.906  -2.149   1.537  0.00  0.00    +0.030 A 
ATOM     11  C   UNL     1       8.062  -2.693   0.592  0.00  0.00    +0.025 A 
ATOM     12  C   UNL     1       7.555  -1.899  -0.433  0.00  0.00    +0.031 A 
ATOM     13  N   UNL     1       6.670  -2.448  -1.340  0.00  0.00    -0.336 N 
ATOM     14  H   UNL     1       6.469  -3.394  -1.260  0.00  0.00    +0.147 HD
ENDROOT
BRANCH   1  26
ATOM     15  N   UNL     1       0.688  -0.476  -1.203  0.00  0.00    -0.340 N 
ATOM     16  C   UNL     1       0.070  -0.736  -2.414  0.00  0.00    +0.050 A 
ATOM     17  C   UNL     1      -1.255  -0.642  -2.829  0.00  0.00    +0.026 A 
ATOM     18  C   UNL     1      -1.597  -0.971  -4.123  0.00  0.00    +0.002 A 
ATOM     19  C   UNL     1      -0.631  -1.397  -5.022  0.00  0.00    +0.001 A 
ATOM     20  C   UNL     1       0.686  -1.497  -4.629  0.00  0.00    +0.010 A 
ATOM     21  C   UNL     1       1.046  -1.168  -3.324  0.00  0.00    +0.008 A 
ATOM     22  C   UNL     1       2.329  -1.162  -2.597  0.00  0.00    +0.008 A 
ATOM     23  C   UNL     1       2.046  -0.721  -1.296  0.00  0.00    +0.050 A 
ATOM     24  C   UNL     1       3.083  -0.609  -0.375  0.00  0.00    +0.027 A 
ATOM     25  C   UNL     1       4.373  -0.926  -0.745  0.00  0.00    +0.007 A 
ATOM     26  C   UNL     1       4.650  -1.357  -2.033  0.00  0.00    -0.026 A 
ATOM     27  C   UNL     1       3.635  -1.483  -2.957  0.00  0.00    +0.016 A 
BRANCH  15  29
ATOM     28  C   UNL     1      -0.019   1.526   0.010  0.00  0.00    +0.027 C 
ATOM     29  C   UNL     1       0.002  -0.004   0.002  0.00  0.00    +0.119 C 
ENDBRANCH  15  29
ENDBRANCH   1  26
BRANCH   9  30
ATOM     30  S   UNL     1      10.323  -0.111   2.672  0.00  0.00    +0.058 S 
ATOM     31  O   UNL     1      11.087  -1.184   3.207  0.00  0.00    -0.153 OA
ATOM     32  O   UNL     1      10.926   1.026   2.071  0.00  0.00    -0.153 OA
BRANCH  30  33
ATOM     33  N   UNL     1       9.372   0.453   3.905  0.00  0.00    -0.187 NA
ATOM     34  H   UNL     1       9.334   1.404   4.091  0.00  0.00    +0.148 HD
BRANCH  33  35
ATOM     35  C   UNL     1       8.588  -0.484   4.713  0.00  0.00    +0.137 C 
BRANCH  35  36
ATOM     36  C   UNL     1       8.107   0.217   5.985  0.00  0.00    +0.134 C 
ATOM     37  C   UNL     1       7.383  -0.794   6.899  0.00  0.00    +0.035 C 
ATOM     38  C   UNL     1       6.204   0.049   7.455  0.00  0.00    +0.031 C 
ATOM     39  C   UNL     1       5.891   0.955   6.237  0.00  0.00    +0.160 C 
ATOM     40  O   UNL     1       7.170   1.246   5.647  0.00  0.00    -0.375 OA
ENDBRANCH  35  36
ENDBRANCH  33  35
ENDBRANCH  30  33
ENDBRANCH   9  30
TORSDOF 6
