REMARK  Name = ZINC12579832
REMARK  2 active torsions:
REMARK  status: ('A' for Active; 'I' for Inactive)
REMARK    1  A    between atoms: C_4  and  C_7
REMARK    2  A    between atoms: C_25  and  C_26
REMARK                            x       y       z     vdW  Elec       q    Type
REMARK                         _______ _______ _______ _____ _____    ______ ____
ROOT
ATOM      1  C   UNL     1       4.953   0.029  -1.379  0.00  0.00    +0.069 C 
ATOM      2  N   UNL     1       3.844   0.528  -0.940  0.00  0.00    -0.183 NA
ATOM      3  N   UNL     1       3.266  -0.214   0.075  0.00  0.00    -0.181 N 
ATOM      4  C   UNL     1       3.978  -1.511   0.176  0.00  0.00    +0.138 C 
ATOM      5  C   UNL     1       5.247  -1.266  -0.649  0.00  0.00    +0.086 C 
ATOM      6  C   UNL     1       4.279  -1.722   1.637  0.00  0.00    +0.017 A 
ATOM      7  C   UNL     1       5.232  -2.658   1.999  0.00  0.00    +0.009 A 
ATOM      8  C   UNL     1       5.516  -2.886   3.331  0.00  0.00    +0.001 A 
ATOM      9  C   UNL     1       4.843  -2.175   4.308  0.00  0.00    +0.004 A 
ATOM     10  C   UNL     1       3.898  -1.237   3.952  0.00  0.00    +0.046 A 
ATOM     11  C   UNL     1       3.612  -0.993   2.609  0.00  0.00    +0.131 A 
ATOM     12  O   UNL     1       2.689  -0.033   2.333  0.00  0.00    -0.442 OA
ATOM     13  C   UNL     1       2.198   0.117   1.010  0.00  0.00    +0.325 C 
ATOM     14  N   UNL     1       0.991  -0.669   0.771  0.00  0.00    -0.247 N 
ATOM     15  C   UNL     1      -0.117  -0.018   0.446  0.00  0.00    +0.255 C 
ATOM     16  O   UNL     1      -1.150  -0.625   0.238  0.00  0.00    -0.269 OA
ATOM     17  C   UNL     1      -0.082   1.455   0.340  0.00  0.00    +0.077 C 
ATOM     18  C   UNL     1      -1.085   2.304   0.020  0.00  0.00    +0.029 C 
ATOM     19  S   UNL     1       1.622   1.833   0.733  0.00  0.00    -0.030 S 
ATOM     20  H   UNL     1       0.999  -1.636   0.848  0.00  0.00    +0.155 HD
ENDROOT
BRANCH   1  24
ATOM     21  C   UNL     1       7.390   1.750  -4.397  0.00  0.00    +0.000 A 
ATOM     22  C   UNL     1       6.221   2.383  -4.012  0.00  0.00    +0.001 A 
ATOM     23  C   UNL     1       5.424   1.829  -3.032  0.00  0.00    +0.010 A 
ATOM     24  C   UNL     1       5.800   0.627  -2.428  0.00  0.00    -0.002 A 
ATOM     25  C   UNL     1       6.984  -0.003  -2.817  0.00  0.00    +0.010 A 
ATOM     26  C   UNL     1       7.768   0.559  -3.803  0.00  0.00    +0.001 A 
ENDBRANCH   1  24
BRANCH  18  27
ATOM     27  C   UNL     1      -0.885   3.757   0.137  0.00  0.00    -0.006 A 
ATOM     28  C   UNL     1       0.271   4.271   0.744  0.00  0.00    +0.011 A 
ATOM     29  C   UNL     1       0.410   5.644   0.828  0.00  0.00    +0.020 A 
ATOM     30  C   UNL     1      -0.584   6.460   0.317  0.00  0.00    +0.111 A 
ATOM     31  N   UNL     1      -1.661   5.949  -0.249  0.00  0.00    -0.263 NA
ATOM     32  C   UNL     1      -1.840   4.650  -0.359  0.00  0.00    +0.118 A 
ENDBRANCH  18  27
TORSDOF 2
