REMARK  Name = ZINC11461307
REMARK  10 active torsions:
REMARK  status: ('A' for Active; 'I' for Inactive)
REMARK    1  A    between atoms: C_4  and  S_9
REMARK    2  A    between atoms: C_5  and  C_7
REMARK    3  A    between atoms: S_9  and  C_10
REMARK    4  A    between atoms: C_15  and  C_16
REMARK    5  A    between atoms: C_16  and  O_18
REMARK    6  A    between atoms: O_18  and  C_19
REMARK    7  A    between atoms: C_19  and  C_20
REMARK    8  A    between atoms: N_22  and  C_23
REMARK    9  A    between atoms: C_23  and  C_24
REMARK   10  A    between atoms: N_26  and  C_27
REMARK                            x       y       z     vdW  Elec       q    Type
REMARK                         _______ _______ _______ _____ _____    ______ ____
ROOT
ATOM      1  C   UNL     1      -1.507   3.838   2.459  0.00  0.00    +0.328 C 
ENDROOT
BRANCH   1   2
ATOM      2  C   UNL     1      -0.712   3.487   1.227  0.00  0.00    +0.251 C 
ATOM      3  O   UNL     1      -0.185   4.364   0.576  0.00  0.00    -0.272 OA
ATOM      4  N   UNL     1      -0.586   2.200   0.850  0.00  0.00    -0.304 N 
ATOM      5  H   UNL     1      -1.006   1.498   1.372  0.00  0.00    +0.149 HD
BRANCH   4   6
ATOM      6  C   UNL     1       0.187   1.859  -0.347  0.00  0.00    +0.200 C 
BRANCH   6   7
ATOM      7  C   UNL     1       0.173   0.365  -0.546  0.00  0.00    +0.234 C 
ATOM      8  O   UNL     1      -0.424  -0.345   0.235  0.00  0.00    -0.274 OA
ATOM      9  N   UNL     1       0.824  -0.181  -1.592  0.00  0.00    -0.282 N 
ATOM     10  H   UNL     1       1.242   0.390  -2.255  0.00  0.00    +0.155 HD
BRANCH   9  11
ATOM     11  C   UNL     1       0.896  -1.575  -1.721  0.00  0.00    +0.072 A 
ATOM     12  C   UNL     1      -0.164  -2.367  -1.304  0.00  0.00    +0.029 A 
ATOM     13  C   UNL     1      -0.094  -3.741  -1.437  0.00  0.00    +0.043 A 
ATOM     14  C   UNL     1       1.037  -4.330  -1.976  0.00  0.00    +0.161 A 
ATOM     15  C   UNL     1       2.101  -3.543  -2.389  0.00  0.00    +0.195 A 
ATOM     16  C   UNL     1       2.032  -2.165  -2.262  0.00  0.00    +0.182 A 
ATOM     17  F   UNL     1       3.068  -1.397  -2.665  0.00  0.00    -0.200 F 
ATOM     18  F   UNL     1       3.204  -4.119  -2.914  0.00  0.00    -0.199 F 
ATOM     19  F   UNL     1       1.104  -5.673  -2.099  0.00  0.00    -0.202 F 
ENDBRANCH   9  11
ENDBRANCH   6   7
ENDBRANCH   4   6
ENDBRANCH   1   2
BRANCH   1  20
ATOM     20  O   UNL     1      -1.493   5.277   2.650  0.00  0.00    -0.452 OA
BRANCH  20  21
ATOM     21  C   UNL     1      -2.163   5.758   3.716  0.00  0.00    +0.341 C 
ATOM     22  O   UNL     1      -2.743   4.997   4.464  0.00  0.00    -0.245 OA
BRANCH  21  28
ATOM     23  C   UNL     1      -2.890   7.715   5.082  0.00  0.00    +0.027 A 
ATOM     24  C   UNL     1      -2.910   9.086   5.314  0.00  0.00    +0.016 A 
ATOM     25  C   UNL     1      -2.248   9.941   4.458  0.00  0.00    +0.001 A 
ATOM     26  C   UNL     1      -1.559   9.444   3.362  0.00  0.00    +0.001 A 
ATOM     27  C   UNL     1      -1.523   8.088   3.119  0.00  0.00    +0.016 A 
ATOM     28  C   UNL     1      -2.193   7.208   3.973  0.00  0.00    +0.073 A 
BRANCH  23  29
ATOM     29  S   UNL     1      -3.734   6.620   6.175  0.00  0.00    -0.087 S 
BRANCH  29  33
ATOM     30  C   UNL     1      -5.905   9.387   9.046  0.00  0.00    +0.001 A 
ATOM     31  C   UNL     1      -4.749   8.734   9.443  0.00  0.00    +0.001 A 
ATOM     32  C   UNL     1      -4.090   7.888   8.575  0.00  0.00    +0.016 A 
ATOM     33  C   UNL     1      -4.577   7.694   7.288  0.00  0.00    +0.030 A 
ATOM     34  C   UNL     1      -5.748   8.354   6.882  0.00  0.00    +0.065 A 
ATOM     35  C   UNL     1      -6.407   9.203   7.775  0.00  0.00    +0.020 A 
BRANCH  34  36
ATOM     36  C   UNL     1      -6.264   8.158   5.561  0.00  0.00    +0.100 C 
ATOM     37  N   UNL     1      -6.674   8.002   4.512  0.00  0.00    -0.191 NA
ENDBRANCH  34  36
ENDBRANCH  29  33
ENDBRANCH  23  29
ENDBRANCH  21  28
ENDBRANCH  20  21
ENDBRANCH   1  20
TORSDOF 10
