REMARK  Name = ZINC15967970
REMARK  8 active torsions:
REMARK  status: ('A' for Active; 'I' for Inactive)
REMARK    1  A    between atoms: C_1  and  C_2
REMARK    2  A    between atoms: C_2  and  O_3
REMARK    3  A    between atoms: O_3  and  C_4
REMARK    4  A    between atoms: C_4  and  C_6
REMARK    5  A    between atoms: C_9  and  N_12
REMARK    6  A    between atoms: C_28  and  C_33
REMARK    7  A    between atoms: C_37  and  O_39
REMARK    8  A    between atoms: O_39  and  C_40
REMARK                            x       y       z     vdW  Elec       q    Type
REMARK                         _______ _______ _______ _____ _____    ______ ____
ROOT
ATOM      1  N   UNL     1       3.252  -1.373  -0.940  0.00  0.00    -0.193 N 
ATOM      2  C   UNL     1       3.744  -0.410  -0.134  0.00  0.00    +0.248 C 
ATOM      3  O   UNL     1       4.912  -0.161   0.078  0.00  0.00    -0.273 OA
ATOM      4  C   UNL     1       2.538   0.297   0.450  0.00  0.00    +0.170 C 
ATOM      5  C   UNL     1       2.534   1.763   0.002  0.00  0.00    +0.069 C 
ATOM      6  C   UNL     1       1.119   2.286   0.017  0.00  0.00    -0.015 A 
ATOM      7  C   UNL     1       0.692   3.672   0.048  0.00  0.00    +0.003 A 
ATOM      8  C   UNL     1       1.398   4.878   0.076  0.00  0.00    +0.010 A 
ATOM      9  C   UNL     1       0.654   6.032   0.100  0.00  0.00    +0.001 A 
ATOM     10  C   UNL     1      -0.731   6.015   0.096  0.00  0.00    +0.002 A 
ATOM     11  C   UNL     1      -1.455   4.836   0.067  0.00  0.00    +0.026 A 
ATOM     12  C   UNL     1      -0.726   3.648   0.043  0.00  0.00    +0.047 A 
ATOM     13  N   UNL     1      -1.109   2.338   0.017  0.00  0.00    -0.356 N 
ATOM     14  H   UNL     1      -2.027   2.025   0.009  0.00  0.00    +0.166 HD
ATOM     15  C   UNL     1      -0.002   1.534   0.002  0.00  0.00    +0.046 A 
ATOM     16  C   UNL     1       0.004   0.018  -0.023  0.00  0.00    +0.156 C 
ATOM     17  N   UNL     1       1.403  -0.386  -0.210  0.00  0.00    -0.260 N 
ATOM     18  C   UNL     1       1.912  -1.364  -0.962  0.00  0.00    +0.317 C 
ATOM     19  O   UNL     1       1.238  -2.154  -1.593  0.00  0.00    -0.252 OA
ENDROOT
BRANCH   1  23
ATOM     20  C   UNL     1       5.609  -4.052  -3.097  0.00  0.00    +0.059 A 
ATOM     21  C   UNL     1       6.207  -3.006  -2.387  0.00  0.00    +0.017 A 
ATOM     22  C   UNL     1       5.425  -2.124  -1.676  0.00  0.00    +0.025 A 
ATOM     23  C   UNL     1       4.042  -2.272  -1.663  0.00  0.00    +0.045 A 
ATOM     24  C   UNL     1       3.444  -3.314  -2.363  0.00  0.00    +0.025 A 
ATOM     25  C   UNL     1       4.219  -4.197  -3.081  0.00  0.00    +0.017 A 
BRANCH  20  26
ATOM     26  C   UNL     1       6.442  -4.999  -3.860  0.00  0.00    +0.339 C 
ATOM     27  O   UNL     1       7.651  -4.871  -3.873  0.00  0.00    -0.245 OA
BRANCH  26  28
ATOM     28  O   UNL     1       5.864  -6.007  -4.543  0.00  0.00    -0.461 OA
BRANCH  28  30
ATOM     29  C   UNL     1       5.915  -7.972  -5.980  0.00  0.00    +0.048 C 
ATOM     30  C   UNL     1       6.746  -6.900  -5.272  0.00  0.00    +0.229 C 
ENDBRANCH  28  30
ENDBRANCH  26  28
ENDBRANCH  20  26
ENDBRANCH   1  23
BRANCH  16  31
ATOM     31  C   UNL     1      -0.837  -0.484  -1.168  0.00  0.00    -0.018 A 
ATOM     32  C   UNL     1      -0.318  -0.503  -2.450  0.00  0.00    +0.006 A 
ATOM     33  C   UNL     1      -1.087  -0.964  -3.502  0.00  0.00    +0.004 A 
ATOM     34  C   UNL     1      -2.376  -1.406  -3.276  0.00  0.00    +0.045 A 
ATOM     35  C   UNL     1      -2.899  -1.388  -1.991  0.00  0.00    +0.120 A 
ATOM     36  C   UNL     1      -2.123  -0.931  -0.936  0.00  0.00    +0.051 A 
BRANCH  35  37
ATOM     37  O   UNL     1      -4.167  -1.823  -1.766  0.00  0.00    -0.495 OA
ATOM     38  C   UNL     1      -4.905  -2.285  -2.899  0.00  0.00    +0.277 C 
ENDBRANCH  35  37
ENDBRANCH  16  31
TORSDOF 6
