REMARK  Name = ZINC08186406
REMARK  5 active torsions:
REMARK  status: ('A' for Active; 'I' for Inactive)
REMARK    1  A    between atoms: C_1  and  N_2
REMARK    2  A    between atoms: C_4  and  S_11
REMARK    3  A    between atoms: N_7  and  C_10
REMARK    4  A    between atoms: S_11  and  N_14
REMARK    5  A    between atoms: C_18  and  C_20
REMARK                            x       y       z     vdW  Elec       q    Type
REMARK                         _______ _______ _______ _____ _____    ______ ____
ROOT
ATOM      1  N   UNL     1      -1.059  -0.514  -0.879  0.00  0.00    -0.169 NA
ATOM      2  C   UNL     1      -1.998  -1.315  -0.074  0.00  0.00    +0.110 C 
ATOM      3  C   UNL     1      -1.171  -1.784   1.149  0.00  0.00    +0.019 C 
ATOM      4  C   UNL     1      -0.284  -0.541   1.421  0.00  0.00    +0.027 C 
ATOM      5  C   UNL     1       0.002  -0.004   0.002  0.00  0.00    +0.110 C 
ENDROOT
BRANCH   5   6
ATOM      6  C   UNL     1      -0.018   1.503   0.010  0.00  0.00    -0.025 A 
ATOM      7  C   UNL     1      -1.226   2.175   0.020  0.00  0.00    +0.009 A 
ATOM      8  C   UNL     1      -1.253   3.558   0.033  0.00  0.00    +0.050 A 
ATOM      9  C   UNL     1      -0.064   4.268   0.025  0.00  0.00    +0.162 A 
ATOM     10  C   UNL     1       1.149   3.593   0.010  0.00  0.00    +0.162 A 
ATOM     11  C   UNL     1       1.171   2.208   0.003  0.00  0.00    +0.054 A 
ATOM     12  O   UNL     1       2.315   4.301   0.001  0.00  0.00    -0.488 OA
ATOM     13  C   UNL     1       2.615   5.026   1.196  0.00  0.00    +0.232 C 
ATOM     14  C   UNL     1       1.922   6.380   1.193  0.00  0.00    +0.082 C 
ATOM     15  C   UNL     1       0.407   6.255   1.225  0.00  0.00    +0.232 C 
ATOM     16  O   UNL     1      -0.075   5.633   0.032  0.00  0.00    -0.488 OA
ENDBRANCH   5   6
BRANCH   1  17
ATOM     17  S   UNL     1      -1.179  -0.233  -2.507  0.00  0.00    +0.068 S 
ATOM     18  O   UNL     1      -2.549  -0.396  -2.847  0.00  0.00    -0.153 OA
ATOM     19  O   UNL     1      -0.468   0.970  -2.765  0.00  0.00    -0.153 OA
BRANCH  17  23
ATOM     20  C   UNL     1      -0.989  -4.477  -5.426  0.00  0.00    +0.153 C 
ATOM     21  N   UNL     1      -0.268  -3.457  -4.660  0.00  0.00    -0.301 N 
ATOM     22  C   UNL     1      -0.965  -2.463  -4.030  0.00  0.00    +0.124 A 
ATOM     23  C   UNL     1      -0.300  -1.523  -3.325  0.00  0.00    +0.186 A 
ATOM     24  C   UNL     1       1.112  -1.585  -3.255  0.00  0.00    +0.283 A 
ATOM     25  O   UNL     1       1.734  -0.746  -2.628  0.00  0.00    -0.265 OA
ATOM     26  N   UNL     1       1.762  -2.584  -3.885  0.00  0.00    -0.262 N 
ATOM     27  C   UNL     1       1.075  -3.508  -4.581  0.00  0.00    +0.332 A 
ATOM     28  O   UNL     1       1.675  -4.401  -5.148  0.00  0.00    -0.246 OA
ATOM     29  C   UNL     1       3.224  -2.661  -3.816  0.00  0.00    +0.157 C 
ENDBRANCH  17  23
ENDBRANCH   1  17
TORSDOF 3
