REMARK  Name = ZINC39463775
REMARK  7 active torsions:
REMARK  status: ('A' for Active; 'I' for Inactive)
REMARK    1  A    between atoms: C_4  and  O_7
REMARK    2  A    between atoms: O_7  and  S_8
REMARK    3  A    between atoms: S_8  and  C_11
REMARK    4  A    between atoms: C_16  and  C_29
REMARK    5  A    between atoms: C_18  and  S_20
REMARK    6  A    between atoms: S_20  and  C_23
REMARK    7  A    between atoms: C_34  and  O_35
REMARK                            x       y       z     vdW  Elec       q    Type
REMARK                         _______ _______ _______ _____ _____    ______ ____
ROOT
ATOM      1  C   UNL     1       2.013  -1.822   1.039  0.00  0.00    +0.135 A 
ATOM      2  C   UNL     1       1.585  -1.675   2.322  0.00  0.00    +0.077 A 
ATOM      3  C   UNL     1       0.982  -2.765   2.979  0.00  0.00    +0.141 A 
ATOM      4  N   UNL     1       0.483  -2.904   4.201  0.00  0.00    -0.235 NA
ATOM      5  C   UNL     1       0.019  -4.143   4.353  0.00  0.00    +0.140 A 
ATOM      6  C   UNL     1       0.225  -4.828   3.189  0.00  0.00    +0.078 A 
ATOM      7  N   UNL     1       0.836  -3.957   2.317  0.00  0.00    -0.277 N 
ATOM      8  C   UNL     1       1.268  -4.092   1.030  0.00  0.00    +0.171 A 
ATOM      9  C   UNL     1       1.843  -3.054   0.386  0.00  0.00    +0.077 A 
ENDROOT
BRANCH   6  10
ATOM     10  C   UNL     1      -0.137  -6.234   2.920  0.00  0.00    +0.042 A 
ATOM     11  C   UNL     1       0.793  -7.252   3.135  0.00  0.00    +0.013 A 
ATOM     12  C   UNL     1       0.449  -8.564   2.881  0.00  0.00    +0.001 A 
ATOM     13  C   UNL     1      -0.816  -8.875   2.415  0.00  0.00    +0.004 A 
ATOM     14  C   UNL     1      -1.747  -7.875   2.199  0.00  0.00    +0.046 A 
ATOM     15  C   UNL     1      -1.419  -6.554   2.454  0.00  0.00    +0.126 A 
BRANCH  15  16
ATOM     16  O   UNL     1      -2.334  -5.572   2.247  0.00  0.00    -0.506 OA
ATOM     17  H   UNL     1      -2.318  -5.200   1.355  0.00  0.00    +0.292 HD
ENDBRANCH  15  16
ENDBRANCH   6  10
BRANCH   1  18
ATOM     18  S   UNL     1       2.771  -0.472   0.198  0.00  0.00    +0.151 S 
ATOM     19  O   UNL     1       3.827  -1.018  -0.579  0.00  0.00    -0.131 OA
ATOM     20  O   UNL     1       2.985   0.543   1.170  0.00  0.00    -0.131 OA
BRANCH  18  21
ATOM     21  O   UNL     1       1.747   0.077  -0.785  0.00  0.00    -0.342 OA
BRANCH  21  25
ATOM     22  C   UNL     1      -1.255   2.291   0.978  0.00  0.00    +0.000 A 
ATOM     23  C   UNL     1      -0.096   2.914   0.554  0.00  0.00    +0.004 A 
ATOM     24  C   UNL     1       0.911   2.175  -0.036  0.00  0.00    +0.048 A 
ATOM     25  C   UNL     1       0.758   0.806  -0.204  0.00  0.00    +0.157 A 
ATOM     26  C   UNL     1      -0.406   0.183   0.222  0.00  0.00    +0.048 A 
ATOM     27  C   UNL     1      -1.410   0.927   0.812  0.00  0.00    +0.004 A 
ENDBRANCH  21  25
ENDBRANCH  18  21
ENDBRANCH   1  18
BRANCH   8  28
ATOM     28  S   UNL     1       1.070  -5.633   0.199  0.00  0.00    +0.041 S 
ATOM     29  O   UNL     1       0.390  -6.495   1.100  0.00  0.00    -0.163 OA
ATOM     30  O   UNL     1       0.567  -5.334  -1.096  0.00  0.00    -0.163 OA
BRANCH  28  31
ATOM     31  C   UNL     1       2.679  -6.312  -0.030  0.00  0.00    +0.095 A 
ATOM     32  C   UNL     1       3.466  -5.886  -1.083  0.00  0.00    +0.027 A 
ATOM     33  C   UNL     1       4.729  -6.419  -1.263  0.00  0.00    +0.002 A 
ATOM     34  C   UNL     1       5.205  -7.378  -0.389  0.00  0.00    +0.000 A 
ATOM     35  C   UNL     1       4.418  -7.804   0.665  0.00  0.00    +0.002 A 
ATOM     36  C   UNL     1       3.158  -7.268   0.847  0.00  0.00    +0.027 A 
ENDBRANCH  28  31
ENDBRANCH   8  28
TORSDOF 7
