REMARK  Name = ZINC13593161
REMARK  9 active torsions:
REMARK  status: ('A' for Active; 'I' for Inactive)
REMARK    1  A    between atoms: C_1  and  C_2
REMARK    2  A    between atoms: C_2  and  O_3
REMARK    3  A    between atoms: O_3  and  C_4
REMARK    4  A    between atoms: C_4  and  C_6
REMARK    5  A    between atoms: C_9  and  N_12
REMARK    6  A    between atoms: C_13  and  C_15
REMARK    7  A    between atoms: C_18  and  C_33
REMARK    8  A    between atoms: C_26  and  C_31
REMARK    9  A    between atoms: C_33  and  C_34
REMARK                            x       y       z     vdW  Elec       q    Type
REMARK                         _______ _______ _______ _____ _____    ______ ____
ROOT
ATOM      1  C   UNL     1       4.358  -5.665   7.179  0.00  0.00    +0.110 C 
ATOM      2  C   UNL     1       3.575  -5.286   8.460  0.00  0.00    +0.034 C 
ATOM      3  C   UNL     1       2.802  -6.588   8.792  0.00  0.00    +0.064 C 
ATOM      4  N   UNL     1       3.766  -7.661   8.430  0.00  0.00    -0.296 NA
ATOM      5  C   UNL     1       4.439  -7.196   7.204  0.00  0.00    +0.135 C 
ATOM      6  C   UNL     1       3.805  -7.791   5.976  0.00  0.00    +0.005 A 
ATOM      7  C   UNL     1       2.534  -7.737   5.449  0.00  0.00    +0.027 A 
ATOM      8  C   UNL     1       2.243  -8.408   4.273  0.00  0.00    +0.042 A 
ATOM      9  C   UNL     1       3.233  -9.130   3.630  0.00  0.00    +0.025 A 
ATOM     10  C   UNL     1       4.508  -9.185   4.155  0.00  0.00    -0.028 A 
ATOM     11  C   UNL     1       4.808  -8.513   5.338  0.00  0.00    +0.042 A 
ATOM     12  N   UNL     1       6.003  -8.416   6.055  0.00  0.00    -0.283 N 
ATOM     13  C   UNL     1       5.872  -7.661   7.161  0.00  0.00    +0.243 C 
ATOM     14  O   UNL     1       6.740  -7.404   7.968  0.00  0.00    -0.273 OA
ATOM     15  C   UNL     1       5.579  -9.974   3.447  0.00  0.00    +0.046 C 
ATOM     16 CL   UNL     1       0.641  -8.343   3.607  0.00  0.00    -0.084 Cl
ATOM     17  H   UNL     1       4.433  -7.813   9.172  0.00  0.00    +0.123 HD
ATOM     18  H   UNL     1       6.831  -8.844   5.786  0.00  0.00    +0.155 HD
ENDROOT
BRANCH   1  20
ATOM     19  N   UNL     1       4.266  -5.069   4.780  0.00  0.00    -0.285 N 
ATOM     20  C   UNL     1       3.615  -5.199   5.954  0.00  0.00    +0.223 C 
ATOM     21  O   UNL     1       2.433  -4.939   6.023  0.00  0.00    -0.275 OA
ATOM     22  H   UNL     1       5.192  -5.347   4.706  0.00  0.00    +0.155 HD
BRANCH  19  26
ATOM     23  C   UNL     1       2.297  -3.478   1.472  0.00  0.00    +0.059 A 
ATOM     24  C   UNL     1       1.986  -3.025   2.758  0.00  0.00    +0.017 A 
ATOM     25  C   UNL     1       2.638  -3.554   3.849  0.00  0.00    +0.024 A 
ATOM     26  C   UNL     1       3.607  -4.537   3.673  0.00  0.00    +0.033 A 
ATOM     27  C   UNL     1       3.920  -4.990   2.395  0.00  0.00    +0.024 A 
ATOM     28  C   UNL     1       3.267  -4.471   1.300  0.00  0.00    +0.017 A 
BRANCH  23  29
ATOM     29  C   UNL     1       1.600  -2.915   0.301  0.00  0.00    +0.339 C 
ATOM     30  O   UNL     1       1.868  -3.314  -0.815  0.00  0.00    -0.245 OA
BRANCH  29  31
ATOM     31  O   UNL     1       0.665  -1.959   0.469  0.00  0.00    -0.461 OA
BRANCH  31  33
ATOM     32  C   UNL     1      -0.992  -0.389  -0.323  0.00  0.00    +0.048 C 
ATOM     33  C   UNL     1       0.030  -1.459  -0.710  0.00  0.00    +0.229 C 
ENDBRANCH  31  33
ENDBRANCH  29  31
ENDBRANCH  23  29
ENDBRANCH  19  26
ENDBRANCH   1  20
BRANCH   3  34
ATOM     34  C   UNL     1       2.459  -6.646  10.282  0.00  0.00    +0.114 C 
BRANCH  34  35
ATOM     35  C   UNL     1       1.604  -7.857  10.553  0.00  0.00    +0.212 C 
ATOM     36  O   UNL     1       1.300  -8.601   9.645  0.00  0.00    -0.276 OA
ATOM     37  N   UNL     1       1.178  -8.114  11.806  0.00  0.00    -0.329 N 
ATOM     38  H   UNL     1       1.421  -7.520  12.533  0.00  0.00    +0.145 HD
ATOM     39  H   UNL     1       0.628  -8.894  11.980  0.00  0.00    +0.145 HD
ENDBRANCH  34  35
ENDBRANCH   3  34
TORSDOF 7
