REMARK  Name = ZINC35694672
REMARK  14 active torsions:
REMARK  status: ('A' for Active; 'I' for Inactive)
REMARK    1  A    between atoms: C_1  and  C_2
REMARK    2  A    between atoms: C_5  and  N_8
REMARK    3  A    between atoms: C_10  and  C_31
REMARK    4  A    between atoms: N_13  and  C_14
REMARK    5  A    between atoms: C_14  and  C_16
REMARK    6  A    between atoms: C_16  and  N_17
REMARK    7  A    between atoms: N_17  and  C_18
REMARK    8  A    between atoms: C_18  and  C_19
REMARK    9  A    between atoms: C_19  and  N_20
REMARK   10  A    between atoms: N_20  and  C_21
REMARK   11  A    between atoms: N_20  and  C_22
REMARK   12  A    between atoms: C_23  and  C_25
REMARK   13  A    between atoms: C_34  and  O_37
REMARK   14  A    between atoms: O_37  and  C_38
REMARK                            x       y       z     vdW  Elec       q    Type
REMARK                         _______ _______ _______ _____ _____    ______ ____
ROOT
ATOM      1  N   UNL     1       2.438  -1.786   1.645  0.00  0.00    -0.287 N 
ATOM      2  C   UNL     1       3.011  -2.180   0.452  0.00  0.00    +0.120 A 
ATOM      3  C   UNL     1       2.956  -3.522   0.385  0.00  0.00    +0.066 A 
ATOM      4  N   UNL     1       2.344  -3.982   1.545  0.00  0.00    -0.326 N 
ATOM      5  C   UNL     1       2.037  -2.902   2.310  0.00  0.00    +0.205 A 
ATOM      6  N   UNL     1       1.444  -2.932   3.503  0.00  0.00    -0.145 NA
ATOM      7  H   UNL     1       2.170  -4.909   1.769  0.00  0.00    +0.169 HD
ENDROOT
BRANCH   1  12
ATOM      8  C   UNL     1       1.877   3.558   3.466  0.00  0.00    +0.044 C 
ATOM      9  C   UNL     1       2.026   2.139   2.983  0.00  0.00    -0.050 A 
ATOM     10  C   UNL     1       2.617   1.886   1.758  0.00  0.00    +0.005 A 
ATOM     11  C   UNL     1       2.755   0.586   1.312  0.00  0.00    +0.026 A 
ATOM     12  C   UNL     1       2.300  -0.467   2.095  0.00  0.00    +0.049 A 
ATOM     13  C   UNL     1       1.707  -0.210   3.324  0.00  0.00    +0.026 A 
ATOM     14  C   UNL     1       1.577   1.092   3.767  0.00  0.00    +0.005 A 
ENDBRANCH   1  12
BRANCH   3  15
ATOM     15  C   UNL     1       3.457  -4.360  -0.726  0.00  0.00    +0.000 A 
ATOM     16  C   UNL     1       4.059  -3.764  -1.835  0.00  0.00    +0.013 A 
ATOM     17  C   UNL     1       4.525  -4.548  -2.869  0.00  0.00    +0.046 A 
ATOM     18  C   UNL     1       4.397  -5.929  -2.807  0.00  0.00    +0.120 A 
ATOM     19  C   UNL     1       3.798  -6.526  -1.706  0.00  0.00    +0.046 A 
ATOM     20  C   UNL     1       3.335  -5.748  -0.665  0.00  0.00    +0.013 A 
BRANCH  18  21
ATOM     21  O   UNL     1       4.857  -6.699  -3.828  0.00  0.00    -0.495 OA
ATOM     22  C   UNL     1       4.693  -8.113  -3.700  0.00  0.00    +0.277 C 
ENDBRANCH  18  21
ENDBRANCH   3  15
BRANCH   6  23
ATOM     23  C   UNL     1       1.101  -4.095   4.046  0.00  0.00    +0.256 C 
ATOM     24  O   UNL     1       1.328  -5.132   3.454  0.00  0.00    -0.272 OA
BRANCH  23  25
ATOM     25  C   UNL     1       0.430  -4.128   5.395  0.00  0.00    +0.205 C 
BRANCH  25  26
ATOM     26  N   UNL     1       0.155  -5.517   5.769  0.00  0.00    -0.290 N 
ATOM     27  C   UNL     1      -1.083  -6.026   5.612  0.00  0.00    +0.247 C 
ATOM     28  O   UNL     1      -1.318  -7.170   5.949  0.00  0.00    -0.270 OA
BRANCH  27  29
ATOM     29  C   UNL     1      -2.156  -5.192   5.030  0.00  0.00    +0.037 A 
ATOM     30  C   UNL     1      -1.835  -4.102   4.220  0.00  0.00    +0.013 A 
ATOM     31  C   UNL     1      -2.841  -3.328   3.680  0.00  0.00    +0.001 A 
ATOM     32  C   UNL     1      -4.166  -3.630   3.940  0.00  0.00    +0.000 A 
ATOM     33  C   UNL     1      -4.491  -4.708   4.743  0.00  0.00    +0.001 A 
ATOM     34  C   UNL     1      -3.495  -5.494   5.285  0.00  0.00    +0.013 A 
ENDBRANCH  27  29
BRANCH  26  35
ATOM     35  C   UNL     1       1.227  -6.354   6.315  0.00  0.00    +0.090 C 
BRANCH  35  36
ATOM     36  C   UNL     1       1.180  -6.311   7.843  0.00  0.00    -0.060 C 
BRANCH  36  37
ATOM     37  N   UNL     1       2.194  -7.223   8.390  0.00  0.00    +0.377 N 
ATOM     38  C   UNL     1       2.247  -7.076   9.851  0.00  0.00    -0.097 C 
ATOM     39  C   UNL     1       1.841  -8.607   8.050  0.00  0.00    -0.097 C 
ATOM     40  H   UNL     1       3.095  -6.999   7.997  0.00  0.00    -0.083 HD
ENDBRANCH  36  37
ENDBRANCH  35  36
ENDBRANCH  26  35
ENDBRANCH  25  26
ENDBRANCH  23  25
ENDBRANCH   6  23
TORSDOF 10
