REMARK  Name = ZINC24888014
REMARK  10 active torsions:
REMARK  status: ('A' for Active; 'I' for Inactive)
REMARK    1  A    between atoms: C_1  and  C_2
REMARK    2  A    between atoms: N_7  and  C_9
REMARK    3  A    between atoms: C_9  and  C_10
REMARK    4  A    between atoms: C_16  and  C_18
REMARK    5  A    between atoms: C_18  and  C_20
REMARK    6  A    between atoms: C_18  and  N_23
REMARK    7  A    between atoms: C_20  and  C_21
REMARK    8  A    between atoms: C_20  and  C_22
REMARK    9  A    between atoms: N_23  and  S_24
REMARK   10  A    between atoms: S_24  and  C_27
REMARK                            x       y       z     vdW  Elec       q    Type
REMARK                         _______ _______ _______ _____ _____    ______ ____
ROOT
ATOM      1  C   UNL     1       3.975  -0.500  -1.370  0.00  0.00    +0.034 A 
ATOM      2  C   UNL     1       3.756  -0.799  -0.066  0.00  0.00    +0.070 A 
ATOM      3  S   UNL     1       2.669  -2.208  -0.227  0.00  0.00    -0.060 S 
ATOM      4  C   UNL     1       2.623  -2.261  -1.962  0.00  0.00    +0.165 A 
ATOM      5  N   UNL     1       3.399  -1.247  -2.291  0.00  0.00    -0.231 NA
ATOM      6  N   UNL     1       1.943  -3.146  -2.791  0.00  0.00    -0.263 N 
ATOM      7  C   UNL     1       1.191  -4.128  -2.256  0.00  0.00    +0.238 C 
ATOM      8  O   UNL     1       1.183  -4.300  -1.055  0.00  0.00    -0.274 OA
ATOM      9  H   UNL     1       2.018  -3.044  -3.884  0.00  0.00    +0.157 HD
ENDROOT
BRANCH   1  10
ATOM     10  C   UNL     1       4.861   0.656  -1.758  0.00  0.00    -0.022 C 
BRANCH  10  16
ATOM     11  C   UNL     1       8.786  -1.595   0.171  0.00  0.00    +0.005 C 
ATOM     12  C   UNL     1       8.230  -0.873  -1.058  0.00  0.00    -0.031 C 
ATOM     13  C   UNL     1       8.327  -1.792  -2.279  0.00  0.00    -0.001 C 
ATOM     14  C   UNL     1       7.715  -1.084  -3.491  0.00  0.00    -0.018 C 
ATOM     15  C   UNL     1       6.264  -0.712  -3.179  0.00  0.00    -0.078 C 
ATOM     16  N   UNL     1       6.224   0.168  -2.004  0.00  0.00    +0.384 N 
ATOM     17  C   UNL     1       6.763  -0.507  -0.817  0.00  0.00    -0.075 C 
ATOM     18  H   UNL     1       6.864   1.037  -2.215  0.00  0.00    -0.081 HD
ENDBRANCH  10  16
ENDBRANCH   1  10
BRANCH   7  19
ATOM     19  C   UNL     1       0.362  -5.014  -3.149  0.00  0.00    +0.165 C 
BRANCH  19  20
ATOM     20  C   UNL     1      -0.976  -4.332  -3.443  0.00  0.00    +0.010 C 
ATOM     21  C   UNL     1      -1.761  -5.165  -4.458  0.00  0.00    +0.009 C 
ATOM     22  C   UNL     1      -1.783  -4.213  -2.148  0.00  0.00    +0.009 C 
ENDBRANCH  19  20
BRANCH  19  23
ATOM     23  N   UNL     1       0.121  -6.295  -2.480  0.00  0.00    -0.178 NA
ATOM     24  H   UNL     1      -0.336  -6.315  -1.479  0.00  0.00    +0.149 HD
BRANCH  23  25
ATOM     25  S   UNL     1       0.754  -7.689  -3.109  0.00  0.00    +0.059 S 
ATOM     26  O   UNL     1       0.391  -8.737  -2.220  0.00  0.00    -0.153 OA
ATOM     27  O   UNL     1       0.410  -7.706  -4.487  0.00  0.00    -0.153 OA
BRANCH  25  28
ATOM     28  C   UNL     1       2.509  -7.548  -3.029  0.00  0.00    +0.105 A 
ATOM     29  C   UNL     1       3.207  -7.001  -4.090  0.00  0.00    +0.030 A 
ATOM     30  C   UNL     1       4.582  -6.884  -4.026  0.00  0.00    +0.022 A 
ATOM     31  C   UNL     1       5.262  -7.325  -2.904  0.00  0.00    +0.041 A 
ATOM     32  C   UNL     1       4.564  -7.876  -1.845  0.00  0.00    +0.022 A 
ATOM     33  C   UNL     1       3.187  -7.987  -1.908  0.00  0.00    +0.030 A 
ATOM     34 CL   UNL     1       6.990  -7.184  -2.825  0.00  0.00    -0.084 Cl
ENDBRANCH  25  28
ENDBRANCH  23  25
ENDBRANCH  19  23
ENDBRANCH   7  19
TORSDOF 7
