REMARK  Name = ZINC35547972
REMARK  8 active torsions:
REMARK  status: ('A' for Active; 'I' for Inactive)
REMARK    1  A    between atoms: C_1  and  C_2
REMARK    2  A    between atoms: C_2  and  C_3
REMARK    3  A    between atoms: N_7  and  C_28
REMARK    4  A    between atoms: C_11  and  N_16
REMARK    5  A    between atoms: N_16  and  S_17
REMARK    6  A    between atoms: S_17  and  C_20
REMARK    7  A    between atoms: C_25  and  C_26
REMARK    8  A    between atoms: C_28  and  C_29
REMARK                            x       y       z     vdW  Elec       q    Type
REMARK                         _______ _______ _______ _____ _____    ______ ____
ROOT
ATOM      1  C   UNL     1       0.718  -0.497  -1.257  0.00  0.00    +0.258 C 
ATOM      2  C   UNL     1       0.618  -1.990  -1.329  0.00  0.00    +0.257 C 
ATOM      3  O   UNL     1      -0.190  -2.383  -2.144  0.00  0.00    -0.272 OA
ATOM      4  N   UNL     1       1.210  -2.928  -0.708  0.00  0.00    -0.290 N 
ATOM      5  C   UNL     1       2.362  -2.963   0.129  0.00  0.00    +0.147 C 
ATOM      6  C   UNL     1       3.144  -1.703   0.342  0.00  0.00    +0.013 A 
ATOM      7  C   UNL     1       4.211  -1.869   1.239  0.00  0.00    +0.035 A 
ATOM      8  C   UNL     1       5.014  -0.808   1.606  0.00  0.00    +0.075 A 
ATOM      9  C   UNL     1       4.746   0.448   1.077  0.00  0.00    +0.030 A 
ATOM     10  C   UNL     1       3.716   0.596   0.186  0.00  0.00    +0.048 A 
ATOM     11  C   UNL     1       2.914  -0.500  -0.217  0.00  0.00    +0.126 A 
ATOM     12  O   UNL     1       2.072  -0.092  -1.212  0.00  0.00    -0.479 OA
ENDROOT
BRANCH   1  14
ATOM     13  C   UNL     1      -0.019   1.526   0.010  0.00  0.00    +0.008 C 
ATOM     14  C   UNL     1       0.002  -0.004   0.002  0.00  0.00    +0.051 C 
ENDBRANCH   1  14
BRANCH   8  15
ATOM     15  N   UNL     1       6.078  -0.995   2.495  0.00  0.00    -0.098 NA
BRANCH  15  16
ATOM     16  S   UNL     1       7.033   0.289   2.925  0.00  0.00    +0.093 S 
ATOM     17  O   UNL     1       7.724   0.692   1.751  0.00  0.00    -0.148 OA
ATOM     18  O   UNL     1       6.208   1.177   3.667  0.00  0.00    -0.148 OA
BRANCH  16  19
ATOM     19  C   UNL     1       8.251  -0.320   4.043  0.00  0.00    +0.128 A 
ATOM     20  C   UNL     1       9.585  -0.300   3.689  0.00  0.00    +0.030 A 
ATOM     21  C   UNL     1      10.543  -0.778   4.566  0.00  0.00    +0.002 A 
ATOM     22  C   UNL     1      10.171  -1.278   5.802  0.00  0.00    +0.001 A 
ATOM     23  C   UNL     1       8.842  -1.303   6.168  0.00  0.00    +0.021 A 
ATOM     24  C   UNL     1       7.870  -0.817   5.291  0.00  0.00    +0.078 A 
BRANCH  24  25
ATOM     25  C   UNL     1       6.488  -0.834   5.667  0.00  0.00    +0.101 C 
ATOM     26  N   UNL     1       5.392  -0.848   5.965  0.00  0.00    -0.191 NA
ENDBRANCH  24  25
ENDBRANCH  16  19
ENDBRANCH  15  16
ENDBRANCH   8  15
BRANCH   4  27
ATOM     27  C   UNL     1       0.578  -4.237  -0.888  0.00  0.00    +0.143 C 
BRANCH  27  28
ATOM     28  C   UNL     1       1.180  -4.924  -2.087  0.00  0.00    -0.026 A 
ATOM     29  C   UNL     1       0.625  -4.736  -3.340  0.00  0.00    +0.009 A 
ATOM     30  C   UNL     1       1.174  -5.363  -4.443  0.00  0.00    +0.050 A 
ATOM     31  C   UNL     1       2.281  -6.183  -4.295  0.00  0.00    +0.166 A 
ATOM     32  C   UNL     1       2.839  -6.372  -3.034  0.00  0.00    +0.167 A 
ATOM     33  C   UNL     1       2.288  -5.736  -1.934  0.00  0.00    +0.054 A 
ATOM     34  O   UNL     1       3.908  -7.213  -3.152  0.00  0.00    -0.453 OA
ATOM     35  C   UNL     1       3.750  -7.859  -4.429  0.00  0.00    +0.466 C 
ATOM     36  O   UNL     1       3.000  -6.905  -5.204  0.00  0.00    -0.453 OA
ENDBRANCH  27  28
ENDBRANCH   4  27
TORSDOF 7
