REMARK  Name = ZINC63558034
REMARK  7 active torsions:
REMARK  status: ('A' for Active; 'I' for Inactive)
REMARK    1  A    between atoms: C_1  and  C_2
REMARK    2  A    between atoms: C_3  and  C_15
REMARK    3  A    between atoms: C_5  and  C_7
REMARK    4  A    between atoms: C_10  and  O_13
REMARK    5  A    between atoms: O_13  and  C_14
REMARK    6  A    between atoms: C_15  and  S_16
REMARK    7  A    between atoms: S_16  and  C_17
REMARK                            x       y       z     vdW  Elec       q    Type
REMARK                         _______ _______ _______ _____ _____    ______ ____
ROOT
ATOM      1  C   UNL     1      -0.018   1.503   0.010  0.00  0.00    +0.088 C 
ATOM      2  C   UNL     1       0.002  -0.004   0.002  0.00  0.00    +0.127 A 
ATOM      3  C   UNL     1      -1.070  -0.816   0.003  0.00  0.00    +0.093 A 
ATOM      4  N   UNL     1      -0.627  -2.083  -0.006  0.00  0.00    -0.213 NA
ATOM      5  C   UNL     1       0.686  -2.068  -0.012  0.00  0.00    +0.228 A 
ATOM      6  O   UNL     1       1.099  -0.788  -0.013  0.00  0.00    -0.440 OA
ENDROOT
BRANCH   5   7
ATOM      7  C   UNL     1       1.562  -3.257  -0.022  0.00  0.00    +0.037 A 
ATOM      8  C   UNL     1       1.004  -4.537  -0.032  0.00  0.00    +0.017 A 
ATOM      9  C   UNL     1       1.825  -5.644  -0.041  0.00  0.00    +0.046 A 
ATOM     10  C   UNL     1       3.205  -5.488  -0.041  0.00  0.00    +0.120 A 
ATOM     11  C   UNL     1       3.764  -4.216  -0.031  0.00  0.00    +0.046 A 
ATOM     12  C   UNL     1       2.950  -3.104  -0.028  0.00  0.00    +0.017 A 
BRANCH  10  13
ATOM     13  O   UNL     1       4.011  -6.582  -0.050  0.00  0.00    -0.495 OA
ATOM     14  C   UNL     1       5.421  -6.349  -0.049  0.00  0.00    +0.277 C 
ENDBRANCH  10  13
ENDBRANCH   5   7
BRANCH   3  15
ATOM     15  C   UNL     1      -2.513  -0.381   0.012  0.00  0.00    +0.131 C 
BRANCH  15  16
ATOM     16  S   UNL     1      -3.100  -0.196  -1.695  0.00  0.00    -0.109 S 
BRANCH  16  17
ATOM     17  C   UNL     1      -4.828   0.324  -1.510  0.00  0.00    +0.237 C 
ATOM     18  N   UNL     1      -5.582  -0.689  -0.761  0.00  0.00    -0.354 N 
ATOM     19  C   UNL     1      -6.033  -0.120   0.316  0.00  0.00    +0.080 A 
ATOM     20  C   UNL     1      -6.846  -0.612   1.444  0.00  0.00    +0.030 A 
ATOM     21  C   UNL     1      -7.146   0.266   2.431  0.00  0.00    +0.022 A 
ATOM     22  C   UNL     1      -6.695   1.597   2.373  0.00  0.00    +0.113 A 
ATOM     23  N   UNL     1      -5.977   2.070   1.396  0.00  0.00    -0.236 NA
ATOM     24  C   UNL     1      -5.604   1.304   0.346  0.00  0.00    +0.152 A 
ATOM     25  N   UNL     1      -4.900   1.561  -0.723  0.00  0.00    -0.340 N 
ATOM     26  H   UNL     1      -4.499   2.413  -0.955  0.00  0.00    +0.164 HD
ATOM     27  H   UNL     1      -5.720  -1.612  -1.024  0.00  0.00    +0.163 HD
ENDBRANCH  16  17
ENDBRANCH  15  16
ENDBRANCH   3  15
TORSDOF 5
