REMARK  Name = ZINC19940773
REMARK  7 active torsions:
REMARK  status: ('A' for Active; 'I' for Inactive)
REMARK    1  A    between atoms: C_1  and  C_2
REMARK    2  A    between atoms: C_6  and  C_15
REMARK    3  A    between atoms: C_13  and  C_14
REMARK    4  A    between atoms: C_15  and  C_17
REMARK    5  A    between atoms: C_15  and  N_28
REMARK    6  A    between atoms: N_21  and  C_22
REMARK    7  A    between atoms: N_31  and  C_34
REMARK                            x       y       z     vdW  Elec       q    Type
REMARK                         _______ _______ _______ _____ _____    ______ ____
ROOT
ATOM      1  C   UNL     1      -4.986   3.843   0.044  0.00  0.00    +0.162 C 
ENDROOT
BRANCH   1   7
ATOM      2  C   UNL     1       2.432   4.491   0.464  0.00  0.00    +0.044 C 
ATOM      3  C   UNL     1       1.188   3.642   0.401  0.00  0.00    -0.047 A 
ATOM      4  C   UNL     1      -0.038   4.241   0.333  0.00  0.00    +0.013 A 
ATOM      5  C   UNL     1      -1.192   3.454   0.274  0.00  0.00    -0.001 A 
ATOM      6  C   UNL     1      -2.522   4.062   0.200  0.00  0.00    +0.021 A 
ATOM      7  C   UNL     1      -3.604   3.249   0.127  0.00  0.00    +0.042 A 
ATOM      8  C   UNL     1      -3.441   1.847   0.141  0.00  0.00    +0.254 A 
ATOM      9  O   UNL     1      -4.428   1.134   0.085  0.00  0.00    -0.268 OA
ATOM     10  N   UNL     1      -2.225   1.278   0.215  0.00  0.00    -0.322 N 
ATOM     11  H   UNL     1      -2.130   0.182   0.224  0.00  0.00    +0.169 HD
ATOM     12  C   UNL     1      -1.084   2.050   0.279  0.00  0.00    +0.049 A 
ATOM     13  C   UNL     1       0.174   1.462   0.354  0.00  0.00    +0.030 A 
ATOM     14  C   UNL     1       1.298   2.258   0.412  0.00  0.00    -0.046 A 
ATOM     15  C   UNL     1       2.661   1.620   0.488  0.00  0.00    +0.044 C 
ENDBRANCH   1   7
BRANCH   1  16
ATOM     16  N   UNL     1      -5.828   3.276   1.105  0.00  0.00    -0.286 NA
ATOM     17  C   UNL     1      -7.204   3.782   1.013  0.00  0.00    +0.104 C 
ATOM     18  C   UNL     1      -8.066   3.109   2.084  0.00  0.00    +0.120 C 
ATOM     19  N   UNL     1      -7.495   3.382   3.411  0.00  0.00    -0.327 N 
ATOM     20  C   UNL     1      -6.119   2.876   3.503  0.00  0.00    +0.120 C 
ATOM     21  C   UNL     1      -5.257   3.549   2.432  0.00  0.00    +0.104 C 
BRANCH  19  22
ATOM     22  C   UNL     1      -8.295   2.842   4.420  0.00  0.00    +0.030 A 
ATOM     23  C   UNL     1      -7.754   1.948   5.335  0.00  0.00    +0.023 A 
ATOM     24  C   UNL     1      -8.547   1.420   6.335  0.00  0.00    +0.002 A 
ATOM     25  C   UNL     1      -9.881   1.774   6.420  0.00  0.00    +0.000 A 
ATOM     26  C   UNL     1     -10.425   2.660   5.508  0.00  0.00    +0.002 A 
ATOM     27  C   UNL     1      -9.636   3.195   4.509  0.00  0.00    +0.023 A 
ENDBRANCH  19  22
ENDBRANCH   1  16
BRANCH   1  28
ATOM     28  C   UNL     1      -5.590   3.525  -1.300  0.00  0.00    +0.173 A 
ATOM     29  N   UNL     1      -6.069   2.368  -1.688  0.00  0.00    -0.111 NA
ATOM     30  N   UNL     1      -6.493   2.499  -2.898  0.00  0.00    -0.023 NA
ATOM     31  N   UNL     1      -6.297   3.709  -3.291  0.00  0.00    -0.044 NA
ATOM     32  N   UNL     1      -5.747   4.374  -2.332  0.00  0.00    -0.224 N 
BRANCH  32  33
ATOM     33  C   UNL     1      -5.362   5.787  -2.362  0.00  0.00    +0.111 C 
ATOM     34  C   UNL     1      -6.601   6.648  -2.617  0.00  0.00    +0.027 C 
ATOM     35  C   UNL     1      -6.199   8.124  -2.649  0.00  0.00    +0.002 C 
ATOM     36  C   UNL     1      -5.181   8.351  -3.768  0.00  0.00    +0.000 C 
ATOM     37  C   UNL     1      -3.942   7.491  -3.514  0.00  0.00    +0.002 C 
ATOM     38  C   UNL     1      -4.344   6.015  -3.482  0.00  0.00    +0.027 C 
ENDBRANCH  32  33
ENDBRANCH   1  28
TORSDOF 5
