REMARK  Name = ZINC17105994
REMARK  12 active torsions:
REMARK  status: ('A' for Active; 'I' for Inactive)
REMARK    1  A    between atoms: C_1  and  C_2
REMARK    2  A    between atoms: C_5  and  N_9
REMARK    3  A    between atoms: C_6  and  C_8
REMARK    4  A    between atoms: C_13  and  S_14
REMARK    5  A    between atoms: S_14  and  C_15
REMARK    6  A    between atoms: C_15  and  C_17
REMARK    7  A    between atoms: C_15  and  C_18
REMARK    8  A    between atoms: N_20  and  C_21
REMARK    9  A    between atoms: C_25  and  S_27
REMARK   10  A    between atoms: S_27  and  N_30
REMARK   11  A    between atoms: N_30  and  C_31
REMARK   12  A    between atoms: N_30  and  C_32
REMARK                            x       y       z     vdW  Elec       q    Type
REMARK                         _______ _______ _______ _____ _____    ______ ____
ROOT
ATOM      1  C   UNL     1      -0.717   1.571   1.249  0.00  0.00    +0.230 C 
ATOM      2  O   UNL     1      -0.341   2.582   1.803  0.00  0.00    -0.274 OA
ATOM      3  N   UNL     1      -1.761   0.878   1.746  0.00  0.00    -0.285 N 
ATOM      4  H   UNL     1      -2.104   0.108   1.266  0.00  0.00    +0.155 HD
ENDROOT
BRANCH   3   5
ATOM      5  C   UNL     1      -2.349   1.270   2.954  0.00  0.00    +0.035 A 
ATOM      6  C   UNL     1      -2.852   0.312   3.825  0.00  0.00    +0.025 A 
ATOM      7  C   UNL     1      -3.427   0.701   5.019  0.00  0.00    +0.024 A 
ATOM      8  C   UNL     1      -3.514   2.044   5.342  0.00  0.00    +0.067 A 
ATOM      9  C   UNL     1      -3.019   3.001   4.473  0.00  0.00    +0.125 A 
ATOM     10  C   UNL     1      -2.437   2.616   3.280  0.00  0.00    +0.053 A 
ATOM     11 CL   UNL     1      -4.244   2.530   6.840  0.00  0.00    -0.082 Cl
BRANCH   9  12
ATOM     12  S   UNL     1      -3.130   4.709   4.888  0.00  0.00    +0.062 S 
ATOM     13  O   UNL     1      -2.645   4.837   6.217  0.00  0.00    -0.153 OA
ATOM     14  O   UNL     1      -2.568   5.429   3.799  0.00  0.00    -0.153 OA
BRANCH  12  15
ATOM     15  N   UNL     1      -4.739   5.099   4.932  0.00  0.00    -0.183 NA
ATOM     16  C   UNL     1      -5.490   4.969   6.183  0.00  0.00    +0.131 C 
ATOM     17  C   UNL     1      -5.411   5.573   3.719  0.00  0.00    +0.131 C 
ENDBRANCH  12  15
ENDBRANCH   9  12
ENDBRANCH   3   5
BRANCH   1  18
ATOM     18  C   UNL     1      -0.017   1.089   0.004  0.00  0.00    +0.137 C 
ATOM     19  C   UNL     1      -0.759   1.606  -1.230  0.00  0.00    +0.029 C 
BRANCH  18  20
ATOM     20  S   UNL     1       1.683   1.710  -0.010  0.00  0.00    -0.073 S 
BRANCH  20  25
ATOM     21  N   UNL     1       3.556   0.996  -1.966  0.00  0.00    -0.277 N 
ATOM     22  C   UNL     1       3.566   0.190  -3.074  0.00  0.00    +0.230 A 
ATOM     23  N   UNL     1       2.376  -0.330  -3.185  0.00  0.00    -0.137 NA
ATOM     24  N   UNL     1       1.622   0.081  -2.230  0.00  0.00    -0.122 NA
ATOM     25  C   UNL     1       2.294   0.895  -1.449  0.00  0.00    +0.197 A 
BRANCH  21  30
ATOM     26  C   UNL     1       7.859   4.094   0.059  0.00  0.00    +0.044 C 
ATOM     27  C   UNL     1       6.717   3.271  -0.478  0.00  0.00    -0.050 A 
ATOM     28  C   UNL     1       6.171   3.572  -1.713  0.00  0.00    +0.005 A 
ATOM     29  C   UNL     1       5.124   2.820  -2.209  0.00  0.00    +0.027 A 
ATOM     30  C   UNL     1       4.619   1.761  -1.466  0.00  0.00    +0.053 A 
ATOM     31  C   UNL     1       5.165   1.466  -0.224  0.00  0.00    -0.026 A 
ATOM     32  C   UNL     1       6.215   2.218   0.264  0.00  0.00    +0.008 A 
ATOM     33  C   UNL     1       4.615   0.321   0.588  0.00  0.00    +0.046 C 
ENDBRANCH  21  30
ENDBRANCH  20  25
ENDBRANCH  18  20
ENDBRANCH   1  18
TORSDOF 7
