REMARK  Name = ZINC36348380
REMARK  7 active torsions:
REMARK  status: ('A' for Active; 'I' for Inactive)
REMARK    1  A    between atoms: C_1  and  C_2
REMARK    2  A    between atoms: C_2  and  O_3
REMARK    3  A    between atoms: O_3  and  C_4
REMARK    4  A    between atoms: C_7  and  C_10
REMARK    5  A    between atoms: C_10  and  N_11
REMARK    6  A    between atoms: C_20  and  C_22
REMARK    7  A    between atoms: C_26  and  C_28
REMARK                            x       y       z     vdW  Elec       q    Type
REMARK                         _______ _______ _______ _____ _____    ______ ____
ROOT
ATOM      1  N   UNL     1      -0.049  -6.560  -2.512  0.00  0.00    +0.391 N 
ATOM      2  C   UNL     1      -1.251  -6.497  -1.678  0.00  0.00    -0.075 C 
ATOM      3  C   UNL     1      -2.491  -6.883  -2.474  0.00  0.00    +0.003 C 
ATOM      4  C   UNL     1      -2.339  -6.419  -3.926  0.00  0.00    +0.119 C 
ATOM      5  N   UNL     1      -1.666  -7.473  -4.694  0.00  0.00    -0.352 N 
ATOM      6  C   UNL     1      -2.036  -7.944  -5.917  0.00  0.00    +0.086 A 
ATOM      7  C   UNL     1      -1.153  -8.893  -6.288  0.00  0.00    +0.019 A 
ATOM      8  C   UNL     1      -0.204  -9.016  -5.253  0.00  0.00    +0.021 A 
ATOM      9  C   UNL     1      -0.546  -8.141  -4.287  0.00  0.00    +0.009 A 
ATOM     10  C   UNL     1       0.171  -7.936  -2.975  0.00  0.00    +0.011 C 
ATOM     11  H   UNL     1      -0.164  -5.952  -3.309  0.00  0.00    -0.080 HD
ENDROOT
BRANCH  10  12
ATOM     12  C   UNL     1       1.647  -8.173  -3.166  0.00  0.00    -0.055 A 
ATOM     13  C   UNL     1       2.281  -9.186  -2.471  0.00  0.00    +0.002 A 
ATOM     14  C   UNL     1       3.634  -9.403  -2.647  0.00  0.00    +0.000 A 
ATOM     15  C   UNL     1       4.355  -8.607  -3.518  0.00  0.00    +0.003 A 
ATOM     16  C   UNL     1       3.721  -7.595  -4.213  0.00  0.00    -0.050 A 
ATOM     17  C   UNL     1       2.366  -7.381  -4.041  0.00  0.00    +0.005 A 
ATOM     18  C   UNL     1       4.507  -6.727  -5.163  0.00  0.00    +0.044 C 
ENDBRANCH  10  12
BRANCH   1  19
ATOM     19  C   UNL     1       1.112  -6.118  -1.727  0.00  0.00    -0.042 C 
BRANCH  19  23
ATOM     20  C   UNL     1       0.594  -2.031  -0.592  0.00  0.00    +0.121 A 
ATOM     21  C   UNL     1       0.129  -3.046   0.233  0.00  0.00    +0.046 A 
ATOM     22  C   UNL     1       0.298  -4.366  -0.137  0.00  0.00    +0.005 A 
ATOM     23  C   UNL     1       0.929  -4.677  -1.327  0.00  0.00    -0.064 A 
ATOM     24  C   UNL     1       1.393  -3.668  -2.150  0.00  0.00    +0.005 A 
ATOM     25  C   UNL     1       1.222  -2.346  -1.788  0.00  0.00    +0.046 A 
BRANCH  20  26
ATOM     26  O   UNL     1       0.428  -0.731  -0.231  0.00  0.00    -0.492 OA
BRANCH  26  28
ATOM     27  C   UNL     1      -0.320   1.027   1.248  0.00  0.00    +0.048 C 
ATOM     28  C   UNL     1      -0.227  -0.482   1.014  0.00  0.00    +0.225 C 
ENDBRANCH  26  28
ENDBRANCH  20  26
ENDBRANCH  19  23
ENDBRANCH   1  19
TORSDOF 5
