REMARK  Name = ZINC39836473
REMARK  9 active torsions:
REMARK  status: ('A' for Active; 'I' for Inactive)
REMARK    1  A    between atoms: C_1  and  C_2
REMARK    2  A    between atoms: C_2  and  C_3
REMARK    3  A    between atoms: C_2  and  C_4
REMARK    4  A    between atoms: C_2  and  C_5
REMARK    5  A    between atoms: C_12  and  N_25
REMARK    6  A    between atoms: C_13  and  C_14
REMARK    7  A    between atoms: N_16  and  C_17
REMARK    8  A    between atoms: C_26  and  C_28
REMARK    9  A    between atoms: C_29  and  C_30
REMARK                            x       y       z     vdW  Elec       q    Type
REMARK                         _______ _______ _______ _____ _____    ______ ____
ROOT
ATOM      1  C   UNL     1       0.718  -0.497  -1.257  0.00  0.00    -0.000 C 
ATOM      2  C   UNL     1       0.746  -2.029  -1.264  0.00  0.00    +0.009 C 
ATOM      3  C   UNL     1       1.234  -2.534  -2.624  0.00  0.00    +0.037 C 
ATOM      4  C   UNL     1       2.546  -1.840  -2.959  0.00  0.00    -0.023 A 
ATOM      5  C   UNL     1       2.920  -0.705  -2.330  0.00  0.00    -0.004 A 
ATOM      6  S   UNL     1       4.483  -0.289  -3.047  0.00  0.00    -0.077 S 
ATOM      7  C   UNL     1       4.646  -1.558  -4.136  0.00  0.00    +0.085 A 
ATOM      8  C   UNL     1       3.496  -2.310  -3.953  0.00  0.00    +0.069 A 
ATOM      9  C   UNL     1       2.161   0.028  -1.267  0.00  0.00    +0.046 C 
ENDROOT
BRANCH   1  11
ATOM     10  C   UNL     1      -0.019   1.526   0.010  0.00  0.00    +0.011 C 
ATOM     11  C   UNL     1       0.002  -0.004   0.002  0.00  0.00    -0.035 C 
ATOM     12  C   UNL     1       0.742  -0.511   1.242  0.00  0.00    +0.011 C 
ATOM     13  C   UNL     1      -1.433  -0.534   0.013  0.00  0.00    +0.011 C 
ENDBRANCH   1  11
BRANCH   8  14
ATOM     14  C   UNL     1       3.248  -3.528  -4.730  0.00  0.00    +0.247 C 
ATOM     15  O   UNL     1       2.655  -3.463  -5.791  0.00  0.00    -0.270 OA
ATOM     16  N   UNL     1       3.678  -4.720  -4.270  0.00  0.00    -0.307 N 
ATOM     17  H   UNL     1       4.151  -4.771  -3.424  0.00  0.00    +0.149 HD
BRANCH  16  18
ATOM     18  C   UNL     1       3.430  -5.937  -5.046  0.00  0.00    +0.096 C 
ATOM     19  C   UNL     1       4.548  -6.114  -6.088  0.00  0.00    +0.046 C 
ATOM     20  C   UNL     1       4.439  -7.550  -6.675  0.00  0.00    +0.168 C 
ATOM     21  S   UNL     1       4.059  -8.510  -5.149  0.00  0.00    -0.029 S 
ATOM     22  O   UNL     1       5.275  -8.984  -4.586  0.00  0.00    -0.174 OA
ATOM     23  O   UNL     1       3.014  -9.430  -5.431  0.00  0.00    -0.174 OA
ATOM     24  C   UNL     1       3.401  -7.157  -4.094  0.00  0.00    +0.188 C 
ENDBRANCH  16  18
ENDBRANCH   8  14
BRANCH   7  25
ATOM     25  N   UNL     1       5.689  -1.797  -5.014  0.00  0.00    -0.276 N 
ATOM     26  C   UNL     1       6.739  -0.953  -5.059  0.00  0.00    +0.241 C 
ATOM     27  O   UNL     1       6.771   0.019  -4.328  0.00  0.00    -0.270 OA
ATOM     28  H   UNL     1       5.664  -2.572  -5.597  0.00  0.00    +0.156 HD
BRANCH  26  29
ATOM     29  C   UNL     1       7.842  -1.206  -5.988  0.00  0.00    +0.068 C 
ATOM     30  C   UNL     1       8.893  -0.362  -6.033  0.00  0.00    +0.013 C 
BRANCH  30  31
ATOM     31  C   UNL     1      10.002  -0.616  -6.967  0.00  0.00    -0.025 A 
ATOM     32  C   UNL     1       9.966  -1.729  -7.813  0.00  0.00    +0.008 A 
ATOM     33  C   UNL     1      11.009  -1.961  -8.685  0.00  0.00    +0.001 A 
ATOM     34  C   UNL     1      12.088  -1.095  -8.725  0.00  0.00    +0.000 A 
ATOM     35  C   UNL     1      12.131   0.008  -7.890  0.00  0.00    +0.001 A 
ATOM     36  C   UNL     1      11.093   0.257  -7.017  0.00  0.00    +0.008 A 
ENDBRANCH  30  31
ENDBRANCH  26  29
ENDBRANCH   7  25
TORSDOF 6
