REMARK  Name = ZINC09425238
REMARK  17 active torsions:
REMARK  status: ('A' for Active; 'I' for Inactive)
REMARK    1  A    between atoms: C_1  and  C_2
REMARK    2  A    between atoms: C_2  and  N_73
REMARK    3  A    between atoms: C_3  and  C_4
REMARK    4  A    between atoms: C_3  and  N_73
REMARK    5  A    between atoms: C_5  and  C_6
REMARK    6  A    between atoms: C_5  and  N_73
REMARK    7  A    between atoms: C_6  and  C_7
REMARK    8  A    between atoms: C_7  and  N_8
REMARK    9  A    between atoms: C_9  and  C_29
REMARK   10  A    between atoms: C_11  and  C_16
REMARK   11  A    between atoms: C_12  and  O_15
REMARK   12  A    between atoms: C_16  and  C_18
REMARK   13  A    between atoms: C_25  and  C_28
REMARK   14  A    between atoms: C_32  and  O_38
REMARK   15  A    between atoms: C_33  and  O_35
REMARK   16  A    between atoms: O_35  and  C_36
REMARK   17  A    between atoms: C_36  and  C_37
REMARK                            x       y       z     vdW  Elec       q    Type
REMARK                         _______ _______ _______ _____ _____    ______ ____
ROOT
ATOM      1  N   UNL     1       0.236  -1.027   0.794  0.00  0.00    -0.284 N 
ATOM      2  C   UNL     1       1.156  -0.011   1.319  0.00  0.00    +0.145 C 
ATOM      3  C   UNL     1       0.301   1.177   1.695  0.00  0.00    +0.071 C 
ATOM      4  C   UNL     1      -0.979   0.843   1.409  0.00  0.00    +0.188 C 
ATOM      5  C   UNL     1      -1.010  -0.523   0.846  0.00  0.00    +0.282 C 
ATOM      6  O   UNL     1      -2.014  -1.106   0.487  0.00  0.00    -0.267 OA
ENDROOT
BRANCH   2   7
ATOM      7  C   UNL     1       1.875  -0.538   2.534  0.00  0.00    -0.019 A 
ATOM      8  C   UNL     1       1.167  -1.196   3.522  0.00  0.00    +0.009 A 
ATOM      9  C   UNL     1       1.822  -1.686   4.636  0.00  0.00    +0.049 A 
ATOM     10  C   UNL     1       3.190  -1.509   4.769  0.00  0.00    +0.158 A 
ATOM     11  C   UNL     1       3.902  -0.842   3.777  0.00  0.00    +0.162 A 
ATOM     12  C   UNL     1       3.239  -0.358   2.660  0.00  0.00    +0.055 A 
BRANCH  10  13
ATOM     13  O   UNL     1       3.835  -1.986   5.867  0.00  0.00    -0.503 OA
ATOM     14  H   UNL     1       3.882  -1.356   6.600  0.00  0.00    +0.292 HD
ENDBRANCH  10  13
BRANCH  11  15
ATOM     15  O   UNL     1       5.244  -0.666   3.903  0.00  0.00    -0.489 OA
BRANCH  15  16
ATOM     16  C   UNL     1       5.891   0.125   2.903  0.00  0.00    +0.226 C 
ATOM     17  C   UNL     1       7.396   0.162   3.178  0.00  0.00    +0.048 C 
ENDBRANCH  15  16
ENDBRANCH  11  15
ENDBRANCH   2   7
BRANCH   4  18
ATOM     18  O   UNL     1      -2.058   1.635   1.606  0.00  0.00    -0.502 OA
ATOM     19  H   UNL     1      -2.883   1.153   1.313  0.00  0.00    +0.292 HD
ENDBRANCH   4  18
BRANCH   3  20
ATOM     20  C   UNL     1       0.768   2.444   2.265  0.00  0.00    +0.195 C 
ATOM     21  O   UNL     1       0.460   2.750   3.402  0.00  0.00    -0.287 OA
BRANCH  20  22
ATOM     22  C   UNL     1       1.612   3.349   1.460  0.00  0.00    +0.023 A 
ATOM     23  C   UNL     1       1.963   3.007   0.151  0.00  0.00    +0.015 A 
ATOM     24  C   UNL     1       2.741   3.856  -0.600  0.00  0.00    +0.046 A 
ATOM     25  C   UNL     1       3.195   5.062  -0.062  0.00  0.00    +0.124 A 
ATOM     26  C   UNL     1       2.852   5.392   1.246  0.00  0.00    -0.002 A 
ATOM     27  C   UNL     1       2.072   4.554   2.004  0.00  0.00    +0.019 A 
ATOM     28  C   UNL     1       3.493   6.733   1.547  0.00  0.00    +0.083 C 
ATOM     29  C   UNL     1       4.524   6.858   0.401  0.00  0.00    +0.175 C 
ATOM     30  O   UNL     1       3.956   6.035  -0.631  0.00  0.00    -0.488 OA
ATOM     31  C   UNL     1       4.641   8.310  -0.067  0.00  0.00    +0.052 C 
ENDBRANCH  20  22
ENDBRANCH   3  20
BRANCH   1  32
ATOM     32  C   UNL     1       0.609  -2.356   0.302  0.00  0.00    +0.107 C 
BRANCH  32  33
ATOM     33  C   UNL     1       0.575  -3.356   1.460  0.00  0.00    +0.000 C 
BRANCH  33  34
ATOM     34  C   UNL     1       0.965  -4.744   0.946  0.00  0.00    -0.077 C 
BRANCH  34  35
ATOM     35  N   UNL     1       0.948  -5.693   2.079  0.00  0.00    +0.379 N 
ATOM     36  H   UNL     1       1.514  -5.309   2.845  0.00  0.00    -0.082 HD
BRANCH  35  38
ATOM     37  C   UNL     1      -1.306  -6.489   1.449  0.00  0.00    -0.017 C 
ATOM     38  C   UNL     1      -0.437  -5.887   2.556  0.00  0.00    -0.082 C 
ENDBRANCH  35  38
BRANCH  35  39
ATOM     39  C   UNL     1       1.525  -6.989   1.661  0.00  0.00    -0.082 C 
ATOM     40  C   UNL     1       1.770  -7.843   2.905  0.00  0.00    -0.017 C 
ENDBRANCH  35  39
ENDBRANCH  34  35
ENDBRANCH  33  34
ENDBRANCH  32  33
ENDBRANCH   1  32
TORSDOF 13
