REMARK  Name = ZINC12832863
REMARK  13 active torsions:
REMARK  status: ('A' for Active; 'I' for Inactive)
REMARK    1  A    between atoms: C_1  and  C_2
REMARK    2  A    between atoms: C_12  and  C_14
REMARK    3  A    between atoms: C_14  and  N_63
REMARK    4  A    between atoms: C_15  and  C_16
REMARK    5  A    between atoms: C_15  and  N_63
REMARK    6  A    between atoms: C_19  and  O_22
REMARK    7  A    between atoms: O_22  and  C_23
REMARK    8  A    between atoms: C_24  and  C_25
REMARK    9  A    between atoms: C_24  and  N_63
REMARK   10  A    between atoms: N_29  and  C_30
REMARK   11  A    between atoms: C_30  and  C_31
REMARK   12  A    between atoms: C_30  and  C_32
REMARK   13  A    between atoms: C_30  and  C_33
REMARK                            x       y       z     vdW  Elec       q    Type
REMARK                         _______ _______ _______ _____ _____    ______ ____
ROOT
ATOM      1  N   UNL     1      -2.792   4.344  -1.516  0.00  0.00    +0.390 N 
ATOM      2  H   UNL     1      -2.090   4.775  -2.128  0.00  0.00    -0.080 HD
ENDROOT
BRANCH   1   3
ATOM      3  C   UNL     1      -2.280   4.334  -0.130  0.00  0.00    -0.036 C 
BRANCH   3  15
ATOM      4  C   UNL     1       2.965   0.374   0.002  0.00  0.00    +0.046 C 
ATOM      5  C   UNL     1       2.852   1.874  -0.096  0.00  0.00    -0.026 A 
ATOM      6  C   UNL     1       3.989   2.649  -0.178  0.00  0.00    +0.005 A 
ATOM      7  C   UNL     1       3.899   4.031  -0.269  0.00  0.00    +0.001 A 
ATOM      8  C   UNL     1       2.680   4.649  -0.280  0.00  0.00    +0.010 A 
ATOM      9  C   UNL     1       1.513   3.883  -0.198  0.00  0.00    -0.001 A 
ATOM     10  C   UNL     1       1.601   2.481  -0.105  0.00  0.00    +0.052 A 
ATOM     11  N   UNL     1       0.447   1.730  -0.025  0.00  0.00    -0.322 N 
ATOM     12  H   UNL     1       0.509   0.764   0.039  0.00  0.00    +0.169 HD
ATOM     13  C   UNL     1      -0.762   2.317  -0.039  0.00  0.00    +0.251 A 
ATOM     14  O   UNL     1      -1.761   1.621   0.029  0.00  0.00    -0.268 OA
ATOM     15  C   UNL     1      -0.905   3.718  -0.124  0.00  0.00    +0.001 A 
ATOM     16  C   UNL     1       0.191   4.512  -0.206  0.00  0.00    +0.017 A 
ENDBRANCH   3  15
ENDBRANCH   1   3
BRANCH   1  17
ATOM     17  C   UNL     1      -4.041   5.132  -1.588  0.00  0.00    -0.042 C 
BRANCH  17  18
ATOM     18  C   UNL     1      -3.688   6.597  -1.577  0.00  0.00    -0.064 A 
ATOM     19  C   UNL     1      -3.544   7.263  -0.373  0.00  0.00    +0.005 A 
ATOM     20  C   UNL     1      -3.215   8.604  -0.360  0.00  0.00    +0.046 A 
ATOM     21  C   UNL     1      -3.041   9.286  -1.556  0.00  0.00    +0.120 A 
ATOM     22  C   UNL     1      -3.192   8.617  -2.762  0.00  0.00    +0.046 A 
ATOM     23  C   UNL     1      -3.515   7.274  -2.769  0.00  0.00    +0.005 A 
BRANCH  21  24
ATOM     24  O   UNL     1      -2.723  10.608  -1.546  0.00  0.00    -0.495 OA
ATOM     25  C   UNL     1      -2.584  11.231  -0.268  0.00  0.00    +0.277 C 
ENDBRANCH  21  24
ENDBRANCH  17  18
ENDBRANCH   1  17
BRANCH   1  26
ATOM     26  C   UNL     1      -3.041   2.960  -1.972  0.00  0.00    +0.001 C 
BRANCH  26  27
ATOM     27  C   UNL     1      -3.497   2.994  -3.408  0.00  0.00    +0.136 A 
ATOM     28  N   UNL     1      -4.724   3.161  -3.836  0.00  0.00    -0.115 NA
ATOM     29  N   UNL     1      -4.704   3.132  -5.124  0.00  0.00    -0.023 NA
ATOM     30  N   UNL     1      -3.497   2.941  -5.529  0.00  0.00    -0.043 NA
ATOM     31  N   UNL     1      -2.723   2.851  -4.500  0.00  0.00    -0.226 N 
BRANCH  31  32
ATOM     32  C   UNL     1      -1.274   2.633  -4.518  0.00  0.00    +0.059 C 
ATOM     33  C   UNL     1      -0.957   1.267  -3.908  0.00  0.00    +0.036 C 
ATOM     34  C   UNL     1      -0.770   2.678  -5.962  0.00  0.00    +0.036 C 
ATOM     35  C   UNL     1      -0.584   3.729  -3.702  0.00  0.00    +0.036 C 
ENDBRANCH  31  32
ENDBRANCH  26  27
ENDBRANCH   1  26
TORSDOF 8
