REMARK  Name = ZINC63314681
REMARK  6 active torsions:
REMARK  status: ('A' for Active; 'I' for Inactive)
REMARK    1  A    between atoms: C_1  and  C_2
REMARK    2  A    between atoms: C_6  and  C_26
REMARK    3  A    between atoms: N_8  and  C_15
REMARK    4  A    between atoms: C_15  and  C_16
REMARK    5  A    between atoms: C_16  and  C_17
REMARK    6  A    between atoms: C_30  and  N_32
REMARK                            x       y       z     vdW  Elec       q    Type
REMARK                         _______ _______ _______ _____ _____    ______ ____
ROOT
ATOM      1  C   UNL     1       0.072   1.680  -0.206  0.00  0.00    +0.035 C 
ATOM      2  C   UNL     1       0.095   0.153  -0.103  0.00  0.00    +0.132 C 
ATOM      3  C   UNL     1       0.802  -0.462  -1.332  0.00  0.00    +0.075 C 
ATOM      4  C   UNL     1      -0.235  -1.195  -2.202  0.00  0.00    +0.114 C 
ATOM      5  N   UNL     1      -0.422  -2.512  -1.586  0.00  0.00    -0.292 N 
ATOM      6  C   UNL     1       0.570  -2.797  -0.729  0.00  0.00    +0.243 C 
ATOM      7  O   UNL     1       0.669  -3.834  -0.108  0.00  0.00    -0.273 OA
ATOM      8  C   UNL     1       1.562  -1.639  -0.644  0.00  0.00    +0.220 C 
ATOM      9  N   UNL     1       1.680  -1.200   0.754  0.00  0.00    -0.179 NA
ATOM     10  N   UNL     1       0.917  -0.274   1.037  0.00  0.00    -0.188 NA
ENDROOT
BRANCH   4  11
ATOM     11  C   UNL     1      -1.536  -0.434  -2.210  0.00  0.00    -0.024 A 
ATOM     12  C   UNL     1      -1.770   0.526  -3.176  0.00  0.00    +0.005 A 
ATOM     13  C   UNL     1      -2.963   1.224  -3.183  0.00  0.00    +0.003 A 
ATOM     14  C   UNL     1      -3.923   0.961  -2.223  0.00  0.00    +0.033 A 
ATOM     15  C   UNL     1      -3.690  -0.001  -1.258  0.00  0.00    +0.127 A 
ATOM     16  C   UNL     1      -2.498  -0.701  -1.254  0.00  0.00    +0.038 A 
BRANCH  15  17
ATOM     17  N   UNL     1      -4.718  -0.282  -0.230  0.00  0.00    +0.056 N 
ATOM     18  O   UNL     1      -5.761   0.329  -0.235  0.00  0.00    -0.126 OA
ATOM     19  O   UNL     1      -4.514  -1.123   0.614  0.00  0.00    -0.126 OA
ENDBRANCH  15  17
ENDBRANCH   4  11
BRANCH   5  20
ATOM     20  C   UNL     1      -1.550  -3.403  -1.869  0.00  0.00    +0.113 C 
BRANCH  20  21
ATOM     21  C   UNL     1      -1.193  -4.322  -3.039  0.00  0.00    +0.052 C 
BRANCH  21  22
ATOM     22  C   UNL     1      -2.353  -5.239  -3.330  0.00  0.00    -0.040 C 
ATOM     23  C   UNL     1      -3.326  -5.052  -4.251  0.00  0.00    -0.001 A 
ATOM     24  C   UNL     1      -3.586  -3.979  -5.219  0.00  0.00    +0.010 A 
ATOM     25  C   UNL     1      -4.666  -4.073  -6.027  0.00  0.00    +0.001 A 
ATOM     26  C   UNL     1      -5.542  -5.166  -5.964  0.00  0.00    +0.002 A 
ATOM     27  C   UNL     1      -5.369  -6.190  -5.101  0.00  0.00    +0.026 A 
ATOM     28  C   UNL     1      -4.265  -6.195  -4.204  0.00  0.00    +0.043 A 
ATOM     29  N   UNL     1      -3.887  -7.055  -3.290  0.00  0.00    -0.380 N 
ATOM     30  C   UNL     1      -2.661  -6.557  -2.657  0.00  0.00    +0.144 C 
ATOM     31  H   UNL     1      -4.341  -7.884  -3.071  0.00  0.00    +0.160 HD
ENDBRANCH  21  22
ENDBRANCH  20  21
ENDBRANCH   5  20
TORSDOF 5
