REMARK  Name = ZINC67231164
REMARK  6 active torsions:
REMARK  status: ('A' for Active; 'I' for Inactive)
REMARK    1  A    between atoms: C_1  and  O_2
REMARK    2  A    between atoms: O_2  and  C_3
REMARK    3  A    between atoms: C_6  and  C_9
REMARK    4  A    between atoms: C_11  and  C_14
REMARK    5  A    between atoms: C_14  and  N_15
REMARK    6  A    between atoms: C_19  and  C_21
REMARK                            x       y       z     vdW  Elec       q    Type
REMARK                         _______ _______ _______ _____ _____    ______ ____
ROOT
ATOM      1  N   UNL     1       2.564  -5.883  -6.955  0.00  0.00    +0.389 N 
ATOM      2  C   UNL     1       2.426  -4.884  -8.036  0.00  0.00    -0.077 C 
ATOM      3  C   UNL     1       3.102  -5.537  -9.267  0.00  0.00    -0.020 C 
ATOM      4  C   UNL     1       2.696  -7.025  -9.096  0.00  0.00    -0.012 C 
ATOM      5  C   UNL     1       2.717  -7.217  -7.565  0.00  0.00    -0.033 C 
ATOM      6  H   UNL     1       1.740  -5.868  -6.374  0.00  0.00    -0.080 HD
ENDROOT
BRANCH   5   7
ATOM      7  C   UNL     1       1.577  -8.107  -7.144  0.00  0.00    -0.016 A 
ATOM      8  C   UNL     1       0.351  -7.554  -6.824  0.00  0.00    +0.006 A 
ATOM      9  C   UNL     1      -0.697  -8.368  -6.437  0.00  0.00    +0.004 A 
ATOM     10  C   UNL     1      -0.523  -9.737  -6.367  0.00  0.00    +0.049 A 
ATOM     11  C   UNL     1       0.705 -10.299  -6.685  0.00  0.00    +0.162 A 
ATOM     12  C   UNL     1       1.757  -9.481  -7.082  0.00  0.00    +0.164 A 
ATOM     13  O   UNL     1       2.966 -10.012  -7.412  0.00  0.00    -0.485 OA
ATOM     14  C   UNL     1       3.218 -11.354  -6.980  0.00  0.00    +0.270 C 
ATOM     15  C   UNL     1       1.984 -12.204  -7.309  0.00  0.00    +0.270 C 
ATOM     16  O   UNL     1       0.863 -11.648  -6.607  0.00  0.00    -0.485 OA
ENDBRANCH   5   7
BRANCH   1  17
ATOM     17  C   UNL     1       3.749  -5.572  -6.144  0.00  0.00    +0.003 C 
BRANCH  17  20
ATOM     18  C   UNL     1       2.952  -2.855  -3.882  0.00  0.00    +0.258 A 
ATOM     19  N   UNL     1       2.990  -4.127  -4.215  0.00  0.00    -0.194 NA
ATOM     20  C   UNL     1       3.536  -4.264  -5.425  0.00  0.00    +0.156 A 
ATOM     21  N   UNL     1       3.855  -3.088  -5.886  0.00  0.00    -0.063 NA
ATOM     22  O   UNL     1       3.478  -2.144  -4.895  0.00  0.00    -0.333 OA
BRANCH  18  26
ATOM     23  C   UNL     1       1.420  -1.270  -0.251  0.00  0.00    +0.120 A 
ATOM     24  C   UNL     1       1.938  -0.415  -1.216  0.00  0.00    +0.046 A 
ATOM     25  C   UNL     1       2.435  -0.925  -2.395  0.00  0.00    +0.017 A 
ATOM     26  C   UNL     1       2.420  -2.304  -2.619  0.00  0.00    +0.040 A 
ATOM     27  C   UNL     1       1.899  -3.160  -1.646  0.00  0.00    +0.017 A 
ATOM     28  C   UNL     1       1.408  -2.642  -0.468  0.00  0.00    +0.046 A 
BRANCH  23  30
ATOM     29  C   UNL     1       0.973   0.656   1.067  0.00  0.00    +0.277 C 
ATOM     30  O   UNL     1       0.930  -0.763   0.909  0.00  0.00    -0.495 OA
ENDBRANCH  23  30
ENDBRANCH  18  26
ENDBRANCH  17  20
ENDBRANCH   1  17
TORSDOF 5
