REMARK  Name = ZINC01777288
REMARK  11 active torsions:
REMARK  status: ('A' for Active; 'I' for Inactive)
REMARK    1  A    between atoms: C_1  and  C_2
REMARK    2  A    between atoms: C_2  and  O_3
REMARK    3  A    between atoms: O_3  and  C_4
REMARK    4  A    between atoms: C_4  and  C_6
REMARK    5  A    between atoms: C_7  and  C_38
REMARK    6  A    between atoms: C_14  and  C_15
REMARK    7  A    between atoms: C_18  and  C_20
REMARK    8  A    between atoms: C_24  and  C_26
REMARK    9  A    between atoms: C_26  and  O_28
REMARK   10  A    between atoms: O_28  and  C_29
REMARK   11  A    between atoms: C_31  and  C_33
REMARK                            x       y       z     vdW  Elec       q    Type
REMARK                         _______ _______ _______ _____ _____    ______ ____
ROOT
ATOM      1  C   UNL     1      -2.790  -2.428   0.233  0.00  0.00    +0.085 C 
ATOM      2  C   UNL     1      -2.973  -3.745  -0.086  0.00  0.00    +0.053 C 
ATOM      3  N   UNL     1      -4.192  -4.229  -0.287  0.00  0.00    -0.228 NA
ATOM      4  C   UNL     1      -5.293  -3.528  -0.204  0.00  0.00    +0.178 A 
ATOM      5  N   UNL     1      -5.336  -2.186   0.104  0.00  0.00    -0.274 N 
ATOM      6  C   UNL     1      -6.531  -1.587   0.156  0.00  0.00    +0.268 A 
ATOM      7  O   UNL     1      -6.613  -0.402   0.425  0.00  0.00    -0.266 OA
ATOM      8  C   UNL     1      -7.703  -2.347  -0.106  0.00  0.00    +0.084 A 
ATOM      9  C   UNL     1      -9.010  -1.950  -0.110  0.00  0.00    +0.066 C 
ATOM     10  S   UNL     1      -7.008  -3.960  -0.430  0.00  0.00    -0.046 S 
ATOM     11  C   UNL     1      -4.014  -1.548   0.354  0.00  0.00    +0.168 C 
ATOM     12  C   UNL     1      -1.778  -4.656  -0.211  0.00  0.00    +0.066 C 
ENDROOT
BRANCH   9  13
ATOM     13  C   UNL     1     -10.029  -2.882  -0.400  0.00  0.00    +0.130 A 
ATOM     14  C   UNL     1     -11.386  -2.613  -0.443  0.00  0.00    +0.050 A 
ATOM     15  C   UNL     1     -12.025  -3.812  -0.767  0.00  0.00    +0.050 A 
ATOM     16  C   UNL     1     -11.043  -4.766  -0.909  0.00  0.00    +0.136 A 
ATOM     17  O   UNL     1      -9.848  -4.187  -0.690  0.00  0.00    -0.455 OA
BRANCH  16  18
ATOM     18  C   UNL     1     -11.263  -6.185  -1.251  0.00  0.00    +0.018 A 
ATOM     19  C   UNL     1     -12.560  -6.661  -1.466  0.00  0.00    +0.011 A 
ATOM     20  C   UNL     1     -12.768  -7.988  -1.785  0.00  0.00    +0.001 A 
ATOM     21  C   UNL     1     -11.697  -8.854  -1.895  0.00  0.00    +0.015 A 
ATOM     22  C   UNL     1     -10.396  -8.392  -1.684  0.00  0.00    +0.060 A 
ATOM     23  C   UNL     1     -10.178  -7.053  -1.366  0.00  0.00    +0.026 A 
BRANCH  22  24
ATOM     24  C   UNL     1      -9.252  -9.320  -1.802  0.00  0.00    +0.339 C 
ATOM     25  O   UNL     1      -8.121  -8.917  -1.618  0.00  0.00    -0.245 OA
BRANCH  24  26
ATOM     26  O   UNL     1      -9.464 -10.614  -2.114  0.00  0.00    -0.464 OA
ATOM     27  C   UNL     1      -8.313 -11.454  -2.211  0.00  0.00    +0.280 C 
ENDBRANCH  24  26
ENDBRANCH  22  24
ENDBRANCH  16  18
ENDBRANCH   9  13
BRANCH  11  28
ATOM     28  C   UNL     1      -4.030  -0.966   1.744  0.00  0.00    +0.017 A 
ATOM     29  C   UNL     1      -3.648   0.267   2.157  0.00  0.00    +0.013 A 
ATOM     30  C   UNL     1      -3.752   0.587   3.498  0.00  0.00    +0.008 A 
ATOM     31  C   UNL     1      -4.234  -0.342   4.360  0.00  0.00    +0.045 A 
ATOM     32  S   UNL     1      -4.564  -1.719   3.272  0.00  0.00    -0.099 S 
ENDBRANCH  11  28
BRANCH   1  33
ATOM     33  C   UNL     1      -1.504  -1.909   0.446  0.00  0.00    +0.339 C 
ATOM     34  O   UNL     1      -0.542  -2.656   0.472  0.00  0.00    -0.245 OA
BRANCH  33  35
ATOM     35  O   UNL     1      -1.332  -0.581   0.624  0.00  0.00    -0.462 OA
BRANCH  35  37
ATOM     36  C   UNL     1      -0.001   1.398   1.015  0.00  0.00    +0.048 C 
ATOM     37  C   UNL     1       0.004  -0.122   0.836  0.00  0.00    +0.229 C 
ENDBRANCH  35  37
ENDBRANCH  33  35
ENDBRANCH   1  33
TORSDOF 8
