REMARK  Name = ZINC30603626
REMARK  7 active torsions:
REMARK  status: ('A' for Active; 'I' for Inactive)
REMARK    1  A    between atoms: C_5  and  C_7
REMARK    2  A    between atoms: C_7  and  N_8
REMARK    3  A    between atoms: N_13  and  C_14
REMARK    4  A    between atoms: C_14  and  C_16
REMARK    5  A    between atoms: C_16  and  C_17
REMARK    6  A    between atoms: C_17  and  C_18
REMARK    7  A    between atoms: C_20  and  C_23
REMARK                            x       y       z     vdW  Elec       q    Type
REMARK                         _______ _______ _______ _____ _____    ______ ____
ROOT
ATOM      1  C   UNL     1      -3.911  -0.997   1.417  0.00  0.00    +0.239 C 
ATOM      2  O   UNL     1      -3.996  -1.397   2.562  0.00  0.00    -0.274 OA
ENDROOT
BRANCH   1   8
ATOM      3  N   UNL     1      -0.336  -0.501   1.338  0.00  0.00    -0.324 N 
ATOM      4  C   UNL     1       0.634  -0.695   2.268  0.00  0.00    +0.095 A 
ATOM      5  C   UNL     1       0.284  -1.145   3.478  0.00  0.00    +0.066 A 
ATOM      6  S   UNL     1      -1.484  -1.320   3.308  0.00  0.00    -0.061 S 
ATOM      7  C   UNL     1      -1.629  -0.782   1.665  0.00  0.00    +0.166 A 
ATOM      8  N   UNL     1      -2.727  -0.671   0.914  0.00  0.00    -0.156 NA
BRANCH   3   9
ATOM      9  C   UNL     1       0.002  -0.004   0.002  0.00  0.00    +0.160 C 
BRANCH   9  14
ATOM     10  C   UNL     1      -0.774  -2.663  -2.564  0.00  0.00    +0.000 A 
ATOM     11  C   UNL     1       0.446  -3.304  -2.675  0.00  0.00    +0.001 A 
ATOM     12  C   UNL     1       1.522  -2.878  -1.920  0.00  0.00    +0.020 A 
ATOM     13  C   UNL     1       1.381  -1.806  -1.057  0.00  0.00    +0.046 A 
ATOM     14  C   UNL     1       0.159  -1.168  -0.942  0.00  0.00    -0.009 A 
ATOM     15  C   UNL     1      -0.917  -1.595  -1.698  0.00  0.00    +0.007 A 
ATOM     16 CL   UNL     1       2.734  -1.266  -0.114  0.00  0.00    -0.083 Cl
ENDBRANCH   9  14
ENDBRANCH   3   9
ENDBRANCH   1   8
BRANCH   1  17
ATOM     17  C   UNL     1      -5.150  -0.872   0.568  0.00  0.00    +0.107 C 
BRANCH  17  18
ATOM     18  C   UNL     1      -6.370  -1.308   1.381  0.00  0.00    +0.108 C 
BRANCH  18  19
ATOM     19  C   UNL     1      -7.610  -1.183   0.533  0.00  0.00    +0.228 A 
ATOM     20  N   UNL     1      -8.120  -2.108  -0.241  0.00  0.00    -0.190 NA
ATOM     21  C   UNL     1      -9.218  -1.551  -0.798  0.00  0.00    +0.220 A 
ATOM     22  N   UNL     1      -9.311  -0.332  -0.334  0.00  0.00    -0.054 NA
ATOM     23  O   UNL     1      -8.399  -0.108   0.434  0.00  0.00    -0.338 OA
BRANCH  21  24
ATOM     24  C   UNL     1     -10.147  -2.201  -1.757  0.00  0.00    +0.111 A 
ATOM     25  C   UNL     1     -11.242  -1.494  -2.246  0.00  0.00    +0.031 A 
ATOM     26  C   UNL     1     -12.099  -2.114  -3.139  0.00  0.00    +0.004 A 
ATOM     27  C   UNL     1     -11.831  -3.422  -3.514  0.00  0.00    +0.020 A 
ATOM     28  C   UNL     1     -10.725  -4.065  -2.989  0.00  0.00    +0.111 A 
ATOM     29  N   UNL     1      -9.923  -3.450  -2.145  0.00  0.00    -0.252 NA
ENDBRANCH  21  24
ENDBRANCH  18  19
ENDBRANCH  17  18
ENDBRANCH   1  17
TORSDOF 7
