REMARK  Name = ZINC45351258
REMARK  12 active torsions:
REMARK  status: ('A' for Active; 'I' for Inactive)
REMARK    1  A    between atoms: C_1  and  C_2
REMARK    2  A    between atoms: C_2  and  S_3
REMARK    3  A    between atoms: S_3  and  N_6
REMARK    4  A    between atoms: N_6  and  C_7
REMARK    5  A    between atoms: N_10  and  C_13
REMARK    6  A    between atoms: C_13  and  C_14
REMARK    7  A    between atoms: C_14  and  C_15
REMARK    8  A    between atoms: C_16  and  C_17
REMARK    9  A    between atoms: C_21  and  C_35
REMARK   10  A    between atoms: C_22  and  N_23
REMARK   11  A    between atoms: N_23  and  C_24
REMARK   12  A    between atoms: C_29  and  C_30
REMARK                            x       y       z     vdW  Elec       q    Type
REMARK                         _______ _______ _______ _____ _____    ______ ____
ROOT
ATOM      1  C   UNL     1       6.593  -9.102  -4.975  0.00  0.00    +0.015 A 
ATOM      2  C   UNL     1       5.863  -9.324  -6.140  0.00  0.00    +0.120 A 
ATOM      3  N   UNL     1       5.109 -10.398  -6.275  0.00  0.00    -0.261 NA
ATOM      4  C   UNL     1       5.005 -11.309  -5.329  0.00  0.00    +0.131 A 
ATOM      5  C   UNL     1       5.698 -11.175  -4.125  0.00  0.00    +0.091 A 
ATOM      6  C   UNL     1       6.521 -10.048  -3.936  0.00  0.00    +0.059 A 
ENDROOT
BRANCH   1   8
ATOM      7  C   UNL     1       7.494  -7.011  -5.821  0.00  0.00    -0.028 C 
ATOM      8  C   UNL     1       7.434  -7.896  -4.835  0.00  0.00    +0.007 C 
BRANCH   7   9
ATOM      9  C   UNL     1       8.352  -5.780  -5.677  0.00  0.00    +0.008 C 
BRANCH   9  10
ATOM     10  C   UNL     1       9.328  -5.700  -6.853  0.00  0.00    -0.075 C 
BRANCH  10  14
ATOM     11  C   UNL     1      12.707  -3.122  -6.541  0.00  0.00    +0.073 C 
ATOM     12  C   UNL     1      11.832  -3.068  -7.796  0.00  0.00    +0.002 C 
ATOM     13  C   UNL     1      11.017  -4.359  -7.899  0.00  0.00    -0.077 C 
ATOM     14  N   UNL     1      10.165  -4.500  -6.713  0.00  0.00    +0.380 N 
ATOM     15  C   UNL     1      10.999  -4.624  -5.512  0.00  0.00    -0.077 C 
ATOM     16  C   UNL     1      11.813  -3.343  -5.317  0.00  0.00    +0.002 C 
ATOM     17  H   UNL     1       9.572  -3.688  -6.627  0.00  0.00    -0.082 HD
BRANCH  11  18
ATOM     18  N   UNL     1      13.433  -1.857  -6.395  0.00  0.00    -0.192 NA
ATOM     19  H   UNL     1      13.008  -1.102  -5.959  0.00  0.00    +0.148 HD
BRANCH  18  20
ATOM     20  S   UNL     1      14.978  -1.718  -6.973  0.00  0.00    +0.029 S 
ATOM     21  O   UNL     1      15.670  -2.835  -6.431  0.00  0.00    -0.158 OA
ATOM     22  O   UNL     1      15.371  -0.393  -6.643  0.00  0.00    -0.158 OA
BRANCH  20  24
ATOM     23  C   UNL     1      16.203  -1.781  -9.418  0.00  0.00    +0.029 C 
ATOM     24  C   UNL     1      14.821  -1.894  -8.771  0.00  0.00    +0.181 C 
ENDBRANCH  20  24
ENDBRANCH  18  20
ENDBRANCH  11  18
ENDBRANCH  10  14
ENDBRANCH   9  10
ENDBRANCH   7   9
ENDBRANCH   1   8
BRANCH   6  25
ATOM     25  N   UNL     1       7.234  -9.874  -2.763  0.00  0.00    -0.313 N 
ATOM     26  H   UNL     1       6.800  -9.491  -1.984  0.00  0.00    +0.152 HD
BRANCH  25  27
ATOM     27  C   UNL     1       8.580 -10.252  -2.698  0.00  0.00    +0.035 A 
ATOM     28  C   UNL     1       9.235 -10.689  -3.849  0.00  0.00    +0.025 A 
ATOM     29  C   UNL     1      10.558 -11.063  -3.803  0.00  0.00    +0.028 A 
ATOM     30  C   UNL     1      11.256 -11.008  -2.600  0.00  0.00    +0.047 A 
ATOM     31  C   UNL     1      10.599 -10.567  -1.437  0.00  0.00    +0.004 A 
ATOM     32  C   UNL     1       9.258 -10.185  -1.495  0.00  0.00    -0.020 A 
ATOM     33  C   UNL     1       8.551  -9.706  -0.253  0.00  0.00    +0.046 C 
ATOM     34  C   UNL     1      11.594 -10.626  -0.363  0.00  0.00    +0.028 A 
ATOM     35  C   UNL     1      12.736 -11.074  -0.909  0.00  0.00    +0.083 A 
ATOM     36  N   UNL     1      12.554 -11.308  -2.245  0.00  0.00    -0.361 N 
ATOM     37  H   UNL     1      13.236 -11.637  -2.851  0.00  0.00    +0.165 HD
ENDBRANCH  25  27
ENDBRANCH   6  25
BRANCH   5  38
ATOM     38  C   UNL     1       5.579 -12.170  -3.102  0.00  0.00    +0.103 C 
ATOM     39  N   UNL     1       5.485 -12.959  -2.290  0.00  0.00    -0.191 NA
ENDBRANCH   5  38
TORSDOF 10
