REMARK  Name = ZINC56218516
REMARK  2 active torsions:
REMARK  status: ('A' for Active; 'I' for Inactive)
REMARK    1  A    between atoms: C_4  and  N_7
REMARK    2  A    between atoms: C_12  and  C_14
REMARK                            x       y       z     vdW  Elec       q    Type
REMARK                         _______ _______ _______ _____ _____    ______ ____
ROOT
ATOM      1  N   UNL     1       3.622  -0.650  -0.037  0.00  0.00    -0.158 N 
ATOM      2  C   UNL     1       3.635  -1.996   0.052  0.00  0.00    +0.256 C 
ATOM      3  O   UNL     1       2.595  -2.614   0.129  0.00  0.00    -0.272 OA
ATOM      4  C   UNL     1       4.958  -2.726   0.055  0.00  0.00    +0.201 C 
ATOM      5  N   UNL     1       5.934  -1.905  -0.678  0.00  0.00    -0.315 N 
ATOM      6  C   UNL     1       5.932  -0.524  -0.459  0.00  0.00    +0.201 C 
ATOM      7  N   UNL     1       4.814   0.072  -0.152  0.00  0.00    -0.152 NA
ATOM      8  H   UNL     1       6.563  -2.311  -1.295  0.00  0.00    +0.148 HD
ENDROOT
BRANCH   6   9
ATOM      9  C   UNL     1       7.179   0.250  -0.581  0.00  0.00    +0.284 C 
ATOM     10  O   UNL     1       8.218  -0.312  -0.872  0.00  0.00    -0.267 OA
ATOM     11  N   UNL     1       7.170   1.581  -0.369  0.00  0.00    -0.258 N 
ATOM     12  C   UNL     1       8.345   2.311  -0.483  0.00  0.00    +0.165 A 
ATOM     13  N   UNL     1       9.545   1.881  -0.791  0.00  0.00    -0.229 NA
ATOM     14  C   UNL     1      10.598   2.707  -0.866  0.00  0.00    +0.054 A 
ATOM     15  C   UNL     1      10.322   4.004  -0.598  0.00  0.00    +0.014 A 
ATOM     16  S   UNL     1       8.576   3.964  -0.267  0.00  0.00    -0.057 S 
ATOM     17  C   UNL     1      11.539   4.873  -0.693  0.00  0.00    +0.045 C 
ATOM     18  C   UNL     1      12.727   3.886  -0.646  0.00  0.00    +0.011 C 
ATOM     19  C   UNL     1      12.086   2.591  -1.186  0.00  0.00    +0.056 C 
ATOM     20  H   UNL     1       6.341   2.029  -0.136  0.00  0.00    +0.157 HD
ENDBRANCH   6   9
BRANCH   1  24
ATOM     21  C   UNL     1      -0.017   1.378   0.010  0.00  0.00    +0.000 A 
ATOM     22  C   UNL     1       0.923   1.670  -0.961  0.00  0.00    +0.002 A 
ATOM     23  C   UNL     1       2.130   1.000  -0.980  0.00  0.00    +0.025 A 
ATOM     24  C   UNL     1       2.400   0.031  -0.021  0.00  0.00    +0.060 A 
ATOM     25  C   UNL     1       1.454  -0.260   0.953  0.00  0.00    +0.025 A 
ATOM     26  C   UNL     1       0.248   0.414   0.966  0.00  0.00    +0.002 A 
ENDBRANCH   1  24
TORSDOF 2
