REMARK  Name = ZINC53607770
REMARK  12 active torsions:
REMARK  status: ('A' for Active; 'I' for Inactive)
REMARK    1  A    between atoms: C_1  and  C_2
REMARK    2  A    between atoms: C_2  and  C_3
REMARK    3  A    between atoms: C_3  and  C_5
REMARK    4  A    between atoms: C_3  and  C_6
REMARK    5  A    between atoms: C_6  and  C_8
REMARK    6  A    between atoms: C_6  and  N_29
REMARK    7  A    between atoms: N_10  and  C_11
REMARK    8  A    between atoms: C_11  and  C_12
REMARK    9  A    between atoms: C_17  and  C_18
REMARK   10  A    between atoms: C_18  and  N_19
REMARK   11  A    between atoms: C_21  and  C_28
REMARK   12  A    between atoms: C_24  and  C_27
REMARK                            x       y       z     vdW  Elec       q    Type
REMARK                         _______ _______ _______ _____ _____    ______ ____
ROOT
ATOM      1  C   UNL     1      -3.353  -2.488  -2.815  0.00  0.00    +0.139 C 
ENDROOT
BRANCH   1   2
ATOM      2  C   UNL     1      -3.684  -1.742  -4.082  0.00  0.00    -0.029 A 
ATOM      3  C   UNL     1      -4.367  -0.541  -4.020  0.00  0.00    +0.005 A 
ATOM      4  C   UNL     1      -4.670   0.143  -5.182  0.00  0.00    +0.000 A 
ATOM      5  C   UNL     1      -4.290  -0.373  -6.407  0.00  0.00    +0.000 A 
ATOM      6  C   UNL     1      -3.607  -1.573  -6.470  0.00  0.00    +0.002 A 
ATOM      7  C   UNL     1      -3.300  -2.255  -5.307  0.00  0.00    -0.059 A 
BRANCH   7   8
ATOM      8  C   UNL     1      -2.551  -3.561  -5.375  0.00  0.00    -0.043 C 
BRANCH   8   9
ATOM      9  N   UNL     1      -1.126  -3.322  -5.110  0.00  0.00    +0.383 N 
ATOM     10  C   UNL     1      -0.559  -2.505  -6.189  0.00  0.00    -0.075 C 
ATOM     11  C   UNL     1       0.904  -2.185  -5.878  0.00  0.00    -0.031 C 
ATOM     12  C   UNL     1       1.693  -3.493  -5.758  0.00  0.00    +0.003 C 
ATOM     13  C   UNL     1       1.048  -4.369  -4.680  0.00  0.00    -0.031 C 
ATOM     14  C   UNL     1      -0.421  -4.608  -5.036  0.00  0.00    -0.075 C 
ATOM     15  C   UNL     1       1.781  -5.710  -4.605  0.00  0.00    +0.005 C 
ATOM     16  C   UNL     1       1.493  -1.335  -7.005  0.00  0.00    +0.005 C 
ATOM     17  H   UNL     1      -1.025  -2.834  -4.233  0.00  0.00    -0.081 HD
ENDBRANCH   8   9
ENDBRANCH   7   8
ENDBRANCH   1   2
BRANCH   1  20
ATOM     18  C   UNL     1      -1.415  -2.848  -1.383  0.00  0.00    +0.234 C 
ATOM     19  O   UNL     1      -2.062  -3.666  -0.763  0.00  0.00    -0.274 OA
ATOM     20  N   UNL     1      -1.970  -2.202  -2.428  0.00  0.00    -0.310 N 
ATOM     21  H   UNL     1      -1.452  -1.548  -2.923  0.00  0.00    +0.149 HD
BRANCH  18  22
ATOM     22  C   UNL     1       0.008  -2.555  -0.984  0.00  0.00    +0.163 C 
BRANCH  22  23
ATOM     23  N   UNL     1       0.372  -3.380   0.171  0.00  0.00    -0.288 N 
ATOM     24  C   UNL     1       1.664  -3.685   0.400  0.00  0.00    +0.298 C 
ATOM     25  O   UNL     1       2.528  -3.276  -0.351  0.00  0.00    -0.253 OA
ATOM     26  N   UNL     1       1.999  -4.444   1.463  0.00  0.00    -0.313 N 
ATOM     27  H   UNL     1      -0.318  -3.706   0.770  0.00  0.00    +0.151 HD
ATOM     28  H   UNL     1       1.310  -4.770   2.062  0.00  0.00    +0.146 HD
ATOM     29  H   UNL     1       2.929  -4.663   1.628  0.00  0.00    +0.146 HD
ENDBRANCH  22  23
BRANCH  22  30
ATOM     30  C   UNL     1       0.140  -1.075  -0.616  0.00  0.00    +0.015 C 
ATOM     31  C   UNL     1       1.607  -0.749  -0.332  0.00  0.00    +0.010 C 
BRANCH  30  33
ATOM     32  C   UNL     1      -0.667   0.717   0.926  0.00  0.00    +0.004 C 
ATOM     33  C   UNL     1      -0.698  -0.784   0.630  0.00  0.00    +0.002 C 
ENDBRANCH  30  33
ENDBRANCH  22  30
ENDBRANCH  18  22
ENDBRANCH   1  20
TORSDOF 8
