REMARK  Name = ZINC21863890
REMARK  5 active torsions:
REMARK  status: ('A' for Active; 'I' for Inactive)
REMARK    1  A    between atoms: C_1  and  C_2
REMARK    2  A    between atoms: C_2  and  C_26
REMARK    3  A    between atoms: C_5  and  C_21
REMARK    4  A    between atoms: N_11  and  C_12
REMARK    5  A    between atoms: N_28  and  C_29
REMARK                            x       y       z     vdW  Elec       q    Type
REMARK                         _______ _______ _______ _____ _____    ______ ____
ROOT
ATOM      1  C   UNL     1      -4.768   3.180   2.293  0.00  0.00    +0.044 C 
ATOM      2  C   UNL     1      -5.233   3.424   0.856  0.00  0.00    +0.133 C 
ATOM      3  C   UNL     1      -4.041   3.254  -0.085  0.00  0.00    +0.158 C 
ATOM      4  N   UNL     1      -3.154   4.413   0.051  0.00  0.00    -0.331 N 
ATOM      5  C   UNL     1      -1.813   4.512  -0.129  0.00  0.00    +0.085 A 
ATOM      6  C   UNL     1      -1.443   5.830   0.087  0.00  0.00    +0.032 A 
ATOM      7  C   UNL     1      -2.594   6.546   0.421  0.00  0.00    +0.033 A 
ATOM      8  C   UNL     1      -3.640   5.667   0.408  0.00  0.00    +0.106 A 
ATOM      9  C   UNL     1      -5.067   5.869   0.675  0.00  0.00    +0.268 C 
ATOM     10  O   UNL     1      -5.547   6.982   0.789  0.00  0.00    -0.268 OA
ATOM     11  N   UNL     1      -5.827   4.753   0.772  0.00  0.00    -0.250 N 
ENDROOT
BRANCH  11  12
ATOM     12  C   UNL     1      -7.221   4.879   0.801  0.00  0.00    +0.041 A 
ATOM     13  C   UNL     1      -7.895   5.399  -0.296  0.00  0.00    +0.027 A 
ATOM     14  C   UNL     1      -9.271   5.518  -0.271  0.00  0.00    +0.051 A 
ATOM     15  C   UNL     1      -9.982   5.130   0.853  0.00  0.00    +0.166 A 
ATOM     16  C   UNL     1      -9.309   4.613   1.958  0.00  0.00    +0.168 A 
ATOM     17  C   UNL     1      -7.930   4.488   1.929  0.00  0.00    +0.073 A 
ATOM     18  O   UNL     1     -10.224   4.309   2.924  0.00  0.00    -0.453 OA
ATOM     19  C   UNL     1     -11.420   5.022   2.559  0.00  0.00    +0.466 C 
ATOM     20  O   UNL     1     -11.320   5.149   1.128  0.00  0.00    -0.453 OA
ENDBRANCH  11  12
BRANCH   5  21
ATOM     21  C   UNL     1      -0.910   3.412  -0.497  0.00  0.00    +0.151 A 
ATOM     22  C   UNL     1       0.448   3.489  -0.591  0.00  0.00    +0.051 A 
ATOM     23  C   UNL     1       0.901   2.211  -0.968  0.00  0.00    +0.042 A 
ATOM     24  C   UNL     1      -0.188   1.424  -1.085  0.00  0.00    +0.196 A 
ATOM     25  O   UNL     1      -1.280   2.154  -0.806  0.00  0.00    -0.461 OA
ENDBRANCH   5  21
BRANCH   2  26
ATOM     26  C   UNL     1      -6.282   2.401   0.504  0.00  0.00    +0.239 C 
ATOM     27  O   UNL     1      -6.395   1.393   1.170  0.00  0.00    -0.273 OA
ATOM     28  N   UNL     1      -7.095   2.605  -0.552  0.00  0.00    -0.311 N 
ATOM     29  H   UNL     1      -6.939   3.476  -1.205  0.00  0.00    +0.149 HD
BRANCH  28  30
ATOM     30  C   UNL     1      -8.185   1.667  -0.829  0.00  0.00    +0.073 C 
ATOM     31  C   UNL     1      -7.656   0.467  -1.643  0.00  0.00    +0.022 C 
ATOM     32  C   UNL     1      -8.809   0.137  -2.624  0.00  0.00    +0.002 C 
ATOM     33  C   UNL     1      -9.345   1.539  -3.007  0.00  0.00    +0.002 C 
ATOM     34  C   UNL     1      -9.259   2.348  -1.696  0.00  0.00    +0.022 C 
ENDBRANCH  28  30
ENDBRANCH   2  26
TORSDOF 4
