REMARK  Name = ZINC17958578
REMARK  9 active torsions:
REMARK  status: ('A' for Active; 'I' for Inactive)
REMARK    1  A    between atoms: C_1  and  C_2
REMARK    2  A    between atoms: C_7  and  N_8
REMARK    3  A    between atoms: C_9  and  C_11
REMARK    4  A    between atoms: C_11  and  N_12
REMARK    5  A    between atoms: C_13  and  C_15
REMARK    6  A    between atoms: C_15  and  C_16
REMARK    7  A    between atoms: C_16  and  C_17
REMARK    8  A    between atoms: C_17  and  O_18
REMARK    9  A    between atoms: O_18  and  C_19
REMARK                            x       y       z     vdW  Elec       q    Type
REMARK                         _______ _______ _______ _____ _____    ______ ____
ROOT
ATOM      1  N   UNL     1       2.407   1.044  -0.032  0.00  0.00    -0.307 N 
ATOM      2  C   UNL     1       3.671   1.511  -0.051  0.00  0.00    +0.214 C 
ATOM      3  O   UNL     1       3.876   2.706  -0.055  0.00  0.00    -0.276 OA
ATOM      4  H   UNL     1       2.243   0.088  -0.029  0.00  0.00    +0.149 HD
ENDROOT
BRANCH   1   5
ATOM      5  C   UNL     1       1.280   1.980  -0.015  0.00  0.00    +0.200 C 
BRANCH   5   7
ATOM      6  N   UNL     1      -1.191   1.867   0.018  0.00  0.00    -0.284 N 
ATOM      7  C   UNL     1      -0.014   1.209   0.005  0.00  0.00    +0.234 C 
ATOM      8  O   UNL     1       0.003  -0.004   0.005  0.00  0.00    -0.274 OA
ATOM      9  H   UNL     1      -1.205   2.833   0.099  0.00  0.00    +0.155 HD
BRANCH   6  16
ATOM     10  C   UNL     1      -3.546   3.040   1.100  0.00  0.00    +0.046 C 
ATOM     11  C   UNL     1      -3.564   1.691   0.428  0.00  0.00    -0.028 A 
ATOM     12  C   UNL     1      -4.749   0.989   0.320  0.00  0.00    +0.020 A 
ATOM     13  C   UNL     1      -4.765  -0.252  -0.291  0.00  0.00    +0.018 A 
ATOM     14  C   UNL     1      -3.597  -0.791  -0.800  0.00  0.00    +0.017 A 
ATOM     15  C   UNL     1      -2.411  -0.091  -0.699  0.00  0.00    +0.024 A 
ATOM     16  C   UNL     1      -2.391   1.155  -0.086  0.00  0.00    +0.036 A 
ATOM     17 BR   UNL     1      -6.387  -1.214  -0.431  0.00  0.00    -0.050 Br
ENDBRANCH   6  16
ENDBRANCH   5   7
ENDBRANCH   1   5
BRANCH   2  18
ATOM     18  C   UNL     1       4.830   0.547  -0.069  0.00  0.00    +0.099 C 
BRANCH  18  19
ATOM     19  C   UNL     1       6.144   1.331  -0.089  0.00  0.00    +0.050 C 
BRANCH  19  20
ATOM     20  C   UNL     1       7.320   0.352  -0.107  0.00  0.00    +0.229 C 
BRANCH  20  21
ATOM     21  O   UNL     1       8.547   1.084  -0.126  0.00  0.00    -0.492 OA
BRANCH  21  22
ATOM     22  C   UNL     1       9.697   0.360  -0.144  0.00  0.00    +0.121 A 
ATOM     23  C   UNL     1       9.645  -1.027  -0.137  0.00  0.00    +0.047 A 
ATOM     24  C   UNL     1      10.815  -1.761  -0.161  0.00  0.00    +0.019 A 
ATOM     25  C   UNL     1      12.038  -1.115  -0.180  0.00  0.00    +0.018 A 
ATOM     26  C   UNL     1      12.092   0.267  -0.181  0.00  0.00    +0.019 A 
ATOM     27  C   UNL     1      10.925   1.005  -0.163  0.00  0.00    +0.047 A 
ATOM     28 BR   UNL     1      13.638  -2.123  -0.206  0.00  0.00    -0.050 Br
ENDBRANCH  21  22
ENDBRANCH  20  21
ENDBRANCH  19  20
ENDBRANCH  18  19
ENDBRANCH   2  18
TORSDOF 8
