REMARK  Name = ZINC46392273
REMARK  6 active torsions:
REMARK  status: ('A' for Active; 'I' for Inactive)
REMARK    1  A    between atoms: C_1  and  C_2
REMARK    2  A    between atoms: C_2  and  C_3
REMARK    3  A    between atoms: C_2  and  C_4
REMARK    4  A    between atoms: C_2  and  C_5
REMARK    5  A    between atoms: C_10  and  C_15
REMARK    6  A    between atoms: N_17  and  C_18
REMARK                            x       y       z     vdW  Elec       q    Type
REMARK                         _______ _______ _______ _____ _____    ______ ____
ROOT
ATOM      1  C   UNL     1       5.278  -1.143  -5.116  0.00  0.00    +0.265 C 
ATOM      2  O   UNL     1       5.270  -1.766  -6.161  0.00  0.00    -0.268 OA
ATOM      3  N   UNL     1       6.394  -0.496  -4.726  0.00  0.00    -0.279 N 
ATOM      4  H   UNL     1       6.378   0.066  -3.935  0.00  0.00    +0.155 HD
ENDROOT
BRANCH   3   5
ATOM      5  C   UNL     1       7.577  -0.633  -5.463  0.00  0.00    +0.056 A 
ATOM      6  C   UNL     1       7.782  -1.766  -6.240  0.00  0.00    +0.072 A 
ATOM      7  C   UNL     1       8.951  -1.900  -6.967  0.00  0.00    +0.144 A 
ATOM      8  C   UNL     1       9.920  -0.898  -6.918  0.00  0.00    +0.077 A 
ATOM      9  C   UNL     1       9.713   0.231  -6.143  0.00  0.00    +0.048 A 
ATOM     10  C   UNL     1       8.541   0.367  -5.421  0.00  0.00    +0.064 A 
ATOM     11 CL   UNL     1       8.277   1.785  -4.455  0.00  0.00    -0.082 Cl
ATOM     12  N   UNL     1      11.101  -1.050  -7.660  0.00  0.00    -0.280 N 
ATOM     13  C   UNL     1      11.146  -1.983  -8.636  0.00  0.00    +0.255 C 
ATOM     14  O   UNL     1      12.166  -2.153  -9.270  0.00  0.00    -0.272 OA
ATOM     15  C   UNL     1       9.923  -2.813  -8.933  0.00  0.00    +0.325 C 
ATOM     16  O   UNL     1       9.167  -3.002  -7.734  0.00  0.00    -0.481 OA
ATOM     17  H   UNL     1      11.874  -0.493  -7.476  0.00  0.00    +0.155 HD
ENDBRANCH   3   5
BRANCH   1  23
ATOM     18  C   UNL     1       0.724  -0.532  -1.212  0.00  0.00    -0.040 A 
ATOM     19  C   UNL     1       0.042  -1.327  -2.123  0.00  0.00    +0.005 A 
ATOM     20  C   UNL     1       0.658  -1.769  -3.258  0.00  0.00    +0.010 A 
ATOM     21  C   UNL     1       1.991  -1.419  -3.508  0.00  0.00    +0.000 A 
ATOM     22  C   UNL     1       2.891  -1.708  -4.562  0.00  0.00    +0.040 A 
ATOM     23  C   UNL     1       4.071  -1.097  -4.278  0.00  0.00    +0.103 A 
ATOM     24  N   UNL     1       3.956  -0.427  -3.075  0.00  0.00    -0.351 N 
ATOM     25  H   UNL     1       4.657   0.089  -2.647  0.00  0.00    +0.166 HD
ATOM     26  C   UNL     1       2.685  -0.612  -2.585  0.00  0.00    +0.047 A 
ATOM     27  C   UNL     1       2.033  -0.170  -1.438  0.00  0.00    +0.030 A 
BRANCH  18  29
ATOM     28  C   UNL     1      -0.005   1.474   0.051  0.00  0.00    +0.015 C 
ATOM     29  C   UNL     1       0.022  -0.055   0.034  0.00  0.00    -0.013 C 
ATOM     30  C   UNL     1       0.770  -0.566   1.268  0.00  0.00    +0.015 C 
ATOM     31  C   UNL     1      -1.411  -0.591   0.049  0.00  0.00    +0.015 C 
ENDBRANCH  18  29
ENDBRANCH   1  23
TORSDOF 3
