REMARK  Name = ZINC52838124
REMARK  3 active torsions:
REMARK  status: ('A' for Active; 'I' for Inactive)
REMARK    1  A    between atoms: C_3  and  C_8
REMARK    2  A    between atoms: C_9  and  N_14
REMARK    3  A    between atoms: N_10  and  N_13
REMARK                            x       y       z     vdW  Elec       q    Type
REMARK                         _______ _______ _______ _____ _____    ______ ____
ROOT
ATOM      1  C   UNL     1       3.659   2.164  -0.022  0.00  0.00    +0.112 A 
ATOM      2  C   UNL     1       4.821   1.791   0.594  0.00  0.00    +0.141 A 
ATOM      3  N   UNL     1       5.736   2.773   0.329  0.00  0.00    -0.242 N 
ATOM      4  C   UNL     1       5.112   3.713  -0.436  0.00  0.00    +0.220 A 
ATOM      5  N   UNL     1       3.881   3.341  -0.644  0.00  0.00    -0.232 NA
ENDROOT
BRANCH   1   8
ATOM      6  C   UNL     1      -0.017   1.379   0.010  0.00  0.00    +0.002 A 
ATOM      7  C   UNL     1       1.167   2.088   0.002  0.00  0.00    +0.010 A 
ATOM      8  C   UNL     1       2.385   1.408  -0.013  0.00  0.00    +0.005 A 
ATOM      9  C   UNL     1       2.398   0.013  -0.021  0.00  0.00    +0.025 A 
ATOM     10  C   UNL     1       1.207  -0.685  -0.013  0.00  0.00    +0.019 A 
ATOM     11  C   UNL     1       0.002  -0.004   0.002  0.00  0.00    +0.015 A 
ATOM     12 BR   UNL     1       1.222  -2.576  -0.024  0.00  0.00    -0.050 Br
ENDBRANCH   1   8
BRANCH   3  13
ATOM     13  N   UNL     1       7.034   2.807   0.753  0.00  0.00    -0.296 N 
ATOM     14  H   UNL     1       7.644   2.357   0.087  0.00  0.00    +0.163 HD
ATOM     15  H   UNL     1       7.331   3.754   0.934  0.00  0.00    +0.163 HD
ENDBRANCH   3  13
BRANCH   2  16
ATOM     16  N   UNL     1       5.032   0.639   1.344  0.00  0.00    -0.342 N 
ATOM     17  H   UNL     1       4.310   0.004   1.471  0.00  0.00    +0.144 HD
ATOM     18  H   UNL     1       5.902   0.470   1.739  0.00  0.00    +0.144 HD
ENDBRANCH   2  16
TORSDOF 3
