REMARK  Name = ZINC41362841
REMARK  3 active torsions:
REMARK  status: ('A' for Active; 'I' for Inactive)
REMARK    1  A    between atoms: C_1  and  C_2
REMARK    2  A    between atoms: C_5  and  C_15
REMARK    3  A    between atoms: N_8  and  C_10
REMARK                            x       y       z     vdW  Elec       q    Type
REMARK                         _______ _______ _______ _____ _____    ______ ____
ROOT
ATOM      1  C   UNL     1      -0.019   1.526   0.010  0.00  0.00    +0.005 C 
ATOM      2  C   UNL     1       0.002  -0.004   0.002  0.00  0.00    -0.031 C 
ATOM      3  C   UNL     1      -1.434  -0.535   0.015  0.00  0.00    +0.003 C 
ATOM      4  C   UNL     1      -1.402  -2.064   0.086  0.00  0.00    -0.031 C 
ATOM      5  C   UNL     1      -0.613  -2.496   1.324  0.00  0.00    -0.075 C 
ATOM      6  N   UNL     1       0.758  -1.980   1.239  0.00  0.00    +0.382 N 
ATOM      7  C   UNL     1       0.740  -0.512   1.242  0.00  0.00    -0.075 C 
ATOM      8  C   UNL     1      -2.832  -2.602   0.177  0.00  0.00    +0.005 C 
ATOM      9  H   UNL     1       1.188  -2.307   0.386  0.00  0.00    -0.081 HD
ENDROOT
BRANCH   6  10
ATOM     10  C   UNL     1       1.534  -2.461   2.390  0.00  0.00    -0.069 C 
ATOM     11  C   UNL     1       2.997  -1.985   2.278  0.00  0.00    -0.015 C 
ATOM     12  C   UNL     1       3.826  -3.174   2.825  0.00  0.00    -0.002 C 
ATOM     13  C   UNL     1       3.055  -4.404   2.285  0.00  0.00    -0.002 C 
ATOM     14  C   UNL     1       1.571  -3.999   2.394  0.00  0.00    -0.015 C 
ENDBRANCH   6  10
TORSDOF 1
