REMARK  Name = ZINC09374615
REMARK  14 active torsions:
REMARK  status: ('A' for Active; 'I' for Inactive)
REMARK    1  A    between atoms: C_1  and  C_2
REMARK    2  A    between atoms: C_7  and  C_8
REMARK    3  A    between atoms: C_8  and  O_9
REMARK    4  A    between atoms: O_9  and  C_10
REMARK    5  A    between atoms: C_13  and  C_16
REMARK    6  A    between atoms: C_16  and  C_18
REMARK    7  A    between atoms: N_22  and  C_32
REMARK    8  A    between atoms: C_23  and  C_25
REMARK    9  A    between atoms: C_29  and  O_31
REMARK   10  A    between atoms: C_32  and  C_33
REMARK   11  A    between atoms: C_33  and  C_34
REMARK   12  A    between atoms: C_34  and  N_35
REMARK   13  A    between atoms: N_35  and  C_36
REMARK   14  A    between atoms: N_35  and  C_37
REMARK                            x       y       z     vdW  Elec       q    Type
REMARK                         _______ _______ _______ _____ _____    ______ ____
ROOT
ATOM      1  C   UNL     1       0.081  10.603   0.098  0.00  0.00    +0.076 C 
ATOM      2  C   UNL     1      -0.027  11.949   0.187  0.00  0.00    +0.249 C 
ATOM      3  C   UNL     1       1.326  12.543   0.226  0.00  0.00    +0.288 C 
ATOM      4  O   UNL     1       1.564  13.731   0.305  0.00  0.00    -0.266 OA
ATOM      5  N   UNL     1       2.256  11.572   0.162  0.00  0.00    -0.284 N 
ATOM      6  C   UNL     1       1.557  10.283   0.083  0.00  0.00    +0.145 C 
ATOM      7  O   UNL     1      -1.188  12.642   0.232  0.00  0.00    -0.282 OA
ENDROOT
BRANCH   6   8
ATOM      8  C   UNL     1       1.922   9.578  -1.198  0.00  0.00    -0.019 A 
ATOM      9  C   UNL     1       2.153  10.309  -2.348  0.00  0.00    +0.006 A 
ATOM     10  C   UNL     1       2.493   9.665  -3.523  0.00  0.00    +0.004 A 
ATOM     11  C   UNL     1       2.591   8.287  -3.554  0.00  0.00    +0.045 A 
ATOM     12  C   UNL     1       2.353   7.551  -2.403  0.00  0.00    +0.117 A 
ATOM     13  C   UNL     1       2.018   8.200  -1.223  0.00  0.00    +0.051 A 
BRANCH  12  14
ATOM     14  O   UNL     1       2.450   6.195  -2.430  0.00  0.00    -0.507 OA
ATOM     15  H   UNL     1       2.261   5.612  -1.516  0.00  0.00    +0.292 HD
ENDBRANCH  12  14
ENDBRANCH   6   8
BRANCH   1  16
ATOM     16  C   UNL     1      -1.024   9.640   0.034  0.00  0.00    +0.195 C 
ATOM     17  O   UNL     1      -1.753   9.614  -0.940  0.00  0.00    -0.287 OA
BRANCH  16  21
ATOM     18  C   UNL     1      -1.675   6.942   3.249  0.00  0.00    +0.121 A 
ATOM     19  C   UNL     1      -0.584   7.804   3.277  0.00  0.00    +0.046 A 
ATOM     20  C   UNL     1      -0.366   8.676   2.235  0.00  0.00    +0.015 A 
ATOM     21  C   UNL     1      -1.250   8.703   1.152  0.00  0.00    +0.022 A 
ATOM     22  C   UNL     1      -2.350   7.839   1.130  0.00  0.00    +0.015 A 
ATOM     23  C   UNL     1      -2.557   6.966   2.174  0.00  0.00    +0.046 A 
BRANCH  18  24
ATOM     24  O   UNL     1      -1.883   6.080   4.276  0.00  0.00    -0.487 OA
BRANCH  24  25
ATOM     25  C   UNL     1      -0.939   6.108   5.348  0.00  0.00    +0.264 C 
BRANCH  25  32
ATOM     26  C   UNL     1       0.670   5.780   7.725  0.00  0.00    +0.044 C 
ATOM     27  C   UNL     1      -0.560   4.934   7.525  0.00  0.00    -0.044 A 
ATOM     28  C   UNL     1      -0.919   4.000   8.480  0.00  0.00    +0.004 A 
ATOM     29  C   UNL     1      -2.047   3.223   8.297  0.00  0.00    +0.000 A 
ATOM     30  C   UNL     1      -2.817   3.380   7.160  0.00  0.00    +0.000 A 
ATOM     31  C   UNL     1      -2.458   4.313   6.205  0.00  0.00    +0.007 A 
ATOM     32  C   UNL     1      -1.330   5.090   6.388  0.00  0.00    -0.007 A 
ENDBRANCH  25  32
ENDBRANCH  24  25
ENDBRANCH  18  24
ENDBRANCH  16  21
ENDBRANCH   1  16
BRANCH   5  33
ATOM     33  C   UNL     1       3.708  11.766   0.175  0.00  0.00    +0.107 C 
BRANCH  33  34
ATOM     34  C   UNL     1       4.213  11.738   1.619  0.00  0.00    +0.000 C 
BRANCH  34  35
ATOM     35  C   UNL     1       5.729  11.941   1.633  0.00  0.00    -0.078 C 
BRANCH  35  36
ATOM     36  N   UNL     1       6.214  11.914   3.019  0.00  0.00    +0.376 N 
ATOM     37  C   UNL     1       7.682  11.867   3.062  0.00  0.00    -0.097 C 
ATOM     38  C   UNL     1       5.701  13.061   3.779  0.00  0.00    -0.097 C 
ATOM     39  H   UNL     1       5.833  10.997   3.493  0.00  0.00    -0.083 HD
ENDBRANCH  35  36
ENDBRANCH  34  35
ENDBRANCH  33  34
ENDBRANCH   5  33
TORSDOF 11
