REMARK  Name = ZINC67292377
REMARK  4 active torsions:
REMARK  status: ('A' for Active; 'I' for Inactive)
REMARK    1  A    between atoms: C_3  and  N_8
REMARK    2  A    between atoms: C_10  and  C_20
REMARK    3  A    between atoms: N_22  and  C_23
REMARK    4  A    between atoms: C_23  and  C_24
REMARK                            x       y       z     vdW  Elec       q    Type
REMARK                         _______ _______ _______ _____ _____    ______ ____
ROOT
ATOM      1  N   UNL     1       3.560   2.115  -0.018  0.00  0.00    -0.325 N 
ATOM      2  C   UNL     1       4.544   1.752   0.775  0.00  0.00    +0.212 A 
ATOM      3  C   UNL     1       5.859   2.420   0.711  0.00  0.00    +0.097 A 
ATOM      4  C   UNL     1       6.626   2.420   1.869  0.00  0.00    +0.030 A 
ATOM      5  C   UNL     1       6.063   1.759   3.048  0.00  0.00    +0.019 A 
ATOM      6  C   UNL     1       6.637   1.939   4.312  0.00  0.00    +0.026 A 
ATOM      7  C   UNL     1       6.086   1.309   5.406  0.00  0.00    +0.019 A 
ATOM      8  C   UNL     1       4.968   0.498   5.260  0.00  0.00    +0.019 A 
ATOM      9  C   UNL     1       4.393   0.310   4.020  0.00  0.00    +0.048 A 
ATOM     10  C   UNL     1       4.932   0.934   2.904  0.00  0.00    +0.137 A 
ATOM     11  O   UNL     1       4.380   0.756   1.683  0.00  0.00    -0.439 OA
ATOM     12 BR   UNL     1       6.857   1.548   7.116  0.00  0.00    -0.050 Br
ATOM     13  H   UNL     1       3.664   2.885  -0.599  0.00  0.00    +0.169 HD
ENDROOT
BRANCH   1  16
ATOM     14  C   UNL     1      -0.013   1.358  -0.013  0.00  0.00    +0.005 A 
ATOM     15  C   UNL     1       1.164   2.077  -0.006  0.00  0.00    +0.026 A 
ATOM     16  C   UNL     1       2.390   1.407  -0.025  0.00  0.00    +0.045 A 
ATOM     17  C   UNL     1       2.415   0.010  -0.050  0.00  0.00    +0.064 A 
ATOM     18  C   UNL     1       1.229  -0.698  -0.057  0.00  0.00    +0.125 A 
ATOM     19  C   UNL     1       0.017  -0.025  -0.038  0.00  0.00    +0.038 A 
ATOM     20  F   UNL     1       1.250  -2.048  -0.081  0.00  0.00    -0.205 F 
ENDBRANCH   1  16
BRANCH   3  21
ATOM     21  C   UNL     1       6.337   3.058  -0.527  0.00  0.00    +0.249 C 
ATOM     22  O   UNL     1       5.609   3.120  -1.500  0.00  0.00    -0.270 OA
ATOM     23  N   UNL     1       7.581   3.574  -0.583  0.00  0.00    -0.309 N 
ATOM     24  H   UNL     1       8.187   3.460   0.166  0.00  0.00    +0.149 HD
BRANCH  23  25
ATOM     25  C   UNL     1       8.017   4.308  -1.774  0.00  0.00    +0.136 C 
BRANCH  25  26
ATOM     26  C   UNL     1       9.458   4.784  -1.580  0.00  0.00    +0.135 C 
ATOM     27  C   UNL     1       9.928   5.593  -2.815  0.00  0.00    +0.035 C 
ATOM     28  C   UNL     1      11.041   6.474  -2.185  0.00  0.00    +0.031 C 
ATOM     29  C   UNL     1      10.490   6.731  -0.766  0.00  0.00    +0.160 C 
ATOM     30  O   UNL     1       9.536   5.701  -0.477  0.00  0.00    -0.375 OA
ENDBRANCH  25  26
ENDBRANCH  23  25
ENDBRANCH   3  21
TORSDOF 4
