REMARK  Name = ZINC39353950
REMARK  4 active torsions:
REMARK  status: ('A' for Active; 'I' for Inactive)
REMARK    1  A    between atoms: C_5  and  C_7
REMARK    2  A    between atoms: C_7  and  C_8
REMARK    3  A    between atoms: C_8  and  C_15
REMARK    4  A    between atoms: C_21  and  C_23
REMARK                            x       y       z     vdW  Elec       q    Type
REMARK                         _______ _______ _______ _____ _____    ______ ____
ROOT
ATOM      1  C   UNL     1       1.100  -2.538   1.831  0.00  0.00    +0.119 C 
ATOM      2  C   UNL     1       2.298  -1.822   2.422  0.00  0.00    +0.245 C 
ATOM      3  O   UNL     1       3.407  -1.729   1.940  0.00  0.00    -0.273 OA
ATOM      4  N   UNL     1       1.875  -1.310   3.595  0.00  0.00    -0.238 N 
ATOM      5  C   UNL     1       0.589  -1.599   3.824  0.00  0.00    +0.307 C 
ATOM      6  O   UNL     1      -0.017  -1.245   4.817  0.00  0.00    -0.252 OA
ATOM      7  N   UNL     1       0.041  -2.325   2.833  0.00  0.00    -0.284 N 
ATOM      8  H   UNL     1       2.434  -0.795   4.198  0.00  0.00    +0.159 HD
ATOM      9  H   UNL     1      -0.873  -2.647   2.787  0.00  0.00    +0.151 HD
ENDROOT
BRANCH   1  10
ATOM     10  C   UNL     1       1.390  -4.030   1.663  0.00  0.00    +0.025 C 
ATOM     11  C   UNL     1       0.140  -4.736   1.132  0.00  0.00    +0.025 C 
ATOM     12  C   UNL     1       0.444  -6.224   0.931  0.00  0.00    +0.108 C 
ATOM     13  N   UNL     1       0.958  -6.775   2.192  0.00  0.00    -0.299 N 
ATOM     14  C   UNL     1       2.103  -6.117   2.836  0.00  0.00    +0.108 C 
ATOM     15  C   UNL     1       1.780  -4.630   3.015  0.00  0.00    +0.025 C 
ATOM     16  C   UNL     1       0.390  -7.864   2.747  0.00  0.00    +0.246 C 
ATOM     17  O   UNL     1       0.765  -8.257   3.832  0.00  0.00    -0.273 OA
BRANCH  16  18
ATOM     18  C   UNL     1      -0.710  -8.594   2.021  0.00  0.00    +0.241 C 
ATOM     19  C   UNL     1      -0.137  -9.590   1.045  0.00  0.00    -0.012 C 
ATOM     20  C   UNL     1      -0.580 -10.779   1.468  0.00  0.00    +0.065 C 
ATOM     21  C   UNL     1      -0.242 -12.078   0.770  0.00  0.00    +0.057 C 
ATOM     22  C   UNL     1       0.264 -11.757  -0.640  0.00  0.00    +0.006 C 
ATOM     23  C   UNL     1       1.364 -10.693  -0.564  0.00  0.00    +0.005 C 
ATOM     24  C   UNL     1       0.741  -9.353  -0.148  0.00  0.00    +0.035 C 
ATOM     25  N   UNL     1      -1.343 -10.622   2.571  0.00  0.00    -0.158 NA
ATOM     26  N   UNL     1      -1.474  -9.449   2.950  0.00  0.00    -0.170 NA
ENDBRANCH  16  18
ENDBRANCH   1  10
BRANCH   1  27
ATOM     27  C   UNL     1       0.707  -1.912   0.491  0.00  0.00    +0.072 C 
BRANCH  27  32
ATOM     28  C   UNL     1      -1.213   1.236   1.301  0.00  0.00    +0.000 A 
ATOM     29  C   UNL     1      -0.258   2.209   1.071  0.00  0.00    +0.001 A 
ATOM     30  C   UNL     1       1.009   1.849   0.653  0.00  0.00    +0.020 A 
ATOM     31  C   UNL     1       1.322   0.514   0.465  0.00  0.00    +0.044 A 
ATOM     32  C   UNL     1       0.366  -0.459   0.696  0.00  0.00    -0.027 A 
ATOM     33  C   UNL     1      -0.901  -0.097   1.114  0.00  0.00    +0.005 A 
ATOM     34 CL   UNL     1       2.913   0.061  -0.060  0.00  0.00    -0.083 Cl
ENDBRANCH  27  32
ENDBRANCH   1  27
TORSDOF 4
