REMARK  Name = ZINC08645192
REMARK  6 active torsions:
REMARK  status: ('A' for Active; 'I' for Inactive)
REMARK    1  A    between atoms: C_1  and  C_2
REMARK    2  A    between atoms: C_2  and  C_25
REMARK    3  A    between atoms: N_5  and  C_9
REMARK    4  A    between atoms: C_9  and  C_10
REMARK    5  A    between atoms: C_22  and  C_23
REMARK    6  A    between atoms: C_22  and  C_24
REMARK                            x       y       z     vdW  Elec       q    Type
REMARK                         _______ _______ _______ _____ _____    ______ ____
ROOT
ATOM      1  C   UNL     1      -1.048   2.542  -1.090  0.00  0.00    +0.047 C 
ATOM      2  C   UNL     1      -0.889   1.024  -0.988  0.00  0.00    +0.136 C 
ATOM      3  C   UNL     1      -2.132   0.396  -0.391  0.00  0.00    +0.251 C 
ATOM      4  O   UNL     1      -3.256   0.422  -0.845  0.00  0.00    -0.272 OA
ATOM      5  N   UNL     1      -1.729  -0.198   0.750  0.00  0.00    -0.215 N 
ATOM      6  C   UNL     1      -0.417  -0.034   0.954  0.00  0.00    +0.310 C 
ATOM      7  O   UNL     1       0.178  -0.480   1.916  0.00  0.00    -0.252 OA
ATOM      8  N   UNL     1       0.171   0.678  -0.024  0.00  0.00    -0.281 N 
ATOM      9  H   UNL     1       1.109   0.918  -0.083  0.00  0.00    +0.152 HD
ENDROOT
BRANCH   2  10
ATOM     10  C   UNL     1      -0.588   0.431  -2.340  0.00  0.00    -0.008 A 
ATOM     11  C   UNL     1       0.558  -0.276  -2.538  0.00  0.00    +0.007 A 
ATOM     12  C   UNL     1       0.852  -0.831  -3.782  0.00  0.00    +0.001 A 
ATOM     13  C   UNL     1       0.003  -0.682  -4.835  0.00  0.00    +0.008 A 
ATOM     14  C   UNL     1      -1.190   0.042  -4.669  0.00  0.00    -0.018 A 
ATOM     15  C   UNL     1      -1.493   0.601  -3.402  0.00  0.00    -0.012 A 
ATOM     16  C   UNL     1      -2.689   1.320  -3.234  0.00  0.00    +0.009 A 
ATOM     17  C   UNL     1      -3.541   1.464  -4.286  0.00  0.00    +0.001 A 
ATOM     18  C   UNL     1      -3.246   0.908  -5.530  0.00  0.00    +0.001 A 
ATOM     19  C   UNL     1      -2.092   0.217  -5.733  0.00  0.00    +0.008 A 
ENDBRANCH   2  10
BRANCH   5  20
ATOM     20  C   UNL     1      -2.618  -0.932   1.654  0.00  0.00    +0.214 C 
BRANCH  20  21
ATOM     21  C   UNL     1      -2.662  -2.382   1.248  0.00  0.00    +0.239 C 
ATOM     22  O   UNL     1      -1.797  -2.837   0.529  0.00  0.00    -0.273 OA
ATOM     23  N   UNL     1      -3.662  -3.174   1.683  0.00  0.00    -0.254 N 
ATOM     24  C   UNL     1      -4.609  -2.703   2.607  0.00  0.00    +0.059 A 
ATOM     25  C   UNL     1      -4.280  -1.730   3.533  0.00  0.00    +0.025 A 
ATOM     26  C   UNL     1      -5.234  -1.289   4.432  0.00  0.00    +0.002 A 
ATOM     27  C   UNL     1      -6.511  -1.819   4.407  0.00  0.00    +0.002 A 
ATOM     28  C   UNL     1      -6.846  -2.792   3.483  0.00  0.00    +0.025 A 
ATOM     29  C   UNL     1      -5.898  -3.238   2.576  0.00  0.00    +0.055 A 
ATOM     30  N   UNL     1      -6.219  -4.213   1.626  0.00  0.00    -0.282 N 
ATOM     31  C   UNL     1      -5.252  -4.845   0.934  0.00  0.00    +0.241 C 
ATOM     32  O   UNL     1      -5.555  -5.655   0.084  0.00  0.00    -0.273 OA
ATOM     33  C   UNL     1      -3.800  -4.556   1.201  0.00  0.00    +0.113 C 
ATOM     34  C   UNL     1      -2.999  -4.730  -0.091  0.00  0.00    +0.042 C 
ATOM     35  C   UNL     1      -3.277  -5.524   2.264  0.00  0.00    +0.042 C 
ATOM     36  H   UNL     1      -7.149  -4.436   1.463  0.00  0.00    +0.155 HD
ENDBRANCH  20  21
ENDBRANCH   5  20
TORSDOF 3
