REMARK  Name = ZINC38631671
REMARK  11 active torsions:
REMARK  status: ('A' for Active; 'I' for Inactive)
REMARK    1  A    between atoms: C_1  and  C_2
REMARK    2  A    between atoms: C_2  and  C_3
REMARK    3  A    between atoms: C_2  and  C_4
REMARK    4  A    between atoms: C_4  and  C_6
REMARK    5  A    between atoms: C_4  and  N_21
REMARK    6  A    between atoms: C_6  and  O_8
REMARK    7  A    between atoms: O_8  and  C_9
REMARK    8  A    between atoms: C_9  and  C_10
REMARK    9  A    between atoms: C_10  and  C_12
REMARK   10  A    between atoms: N_21  and  S_22
REMARK   11  A    between atoms: S_22  and  C_25
REMARK                            x       y       z     vdW  Elec       q    Type
REMARK                         _______ _______ _______ _____ _____    ______ ____
ROOT
ATOM      1  C   UNL     1      -1.409  -0.553   0.035  0.00  0.00    +0.187 C 
ENDROOT
BRANCH   1   3
ATOM      2  C   UNL     1       0.096   1.440   0.080  0.00  0.00    +0.009 C 
ATOM      3  C   UNL     1       0.048  -0.087   0.013  0.00  0.00    +0.012 C 
ATOM      4  C   UNL     1       0.789  -0.674   1.217  0.00  0.00    +0.009 C 
ENDBRANCH   1   3
BRANCH   1   5
ATOM      5  C   UNL     1      -2.102  -0.093  -1.222  0.00  0.00    +0.327 C 
ATOM      6  O   UNL     1      -2.584  -0.903  -1.977  0.00  0.00    -0.249 OA
BRANCH   5   7
ATOM      7  O   UNL     1      -2.185   1.217  -1.501  0.00  0.00    -0.455 OA
BRANCH   7   8
ATOM      8  C   UNL     1      -2.856   1.582  -2.709  0.00  0.00    +0.311 C 
BRANCH   8   9
ATOM      9  C   UNL     1      -2.849   3.082  -2.854  0.00  0.00    +0.199 C 
ATOM     10  O   UNL     1      -2.322   3.772  -2.005  0.00  0.00    -0.289 OA
BRANCH   9  11
ATOM     11  C   UNL     1      -3.457   3.685  -3.975  0.00  0.00    +0.026 C 
ATOM     12  C   UNL     1      -3.533   5.037  -4.260  0.00  0.00    +0.006 A 
ATOM     13  C   UNL     1      -3.070   6.190  -3.584  0.00  0.00    +0.010 A 
ATOM     14  C   UNL     1      -3.290   7.419  -4.103  0.00  0.00    +0.001 A 
ATOM     15  C   UNL     1      -3.974   7.614  -5.314  0.00  0.00    +0.002 A 
ATOM     16  C   UNL     1      -4.457   6.580  -6.036  0.00  0.00    +0.026 A 
ATOM     17  C   UNL     1      -4.260   5.208  -5.542  0.00  0.00    +0.043 A 
ATOM     18  N   UNL     1      -4.613   4.050  -6.024  0.00  0.00    -0.380 N 
ATOM     19  C   UNL     1      -4.156   2.989  -5.123  0.00  0.00    +0.152 C 
ATOM     20  H   UNL     1      -5.099   3.913  -6.853  0.00  0.00    +0.160 HD
ENDBRANCH   9  11
ENDBRANCH   8   9
ENDBRANCH   7   8
ENDBRANCH   5   7
ENDBRANCH   1   5
BRANCH   1  21
ATOM     21  N   UNL     1      -1.454  -2.016   0.109  0.00  0.00    -0.176 NA
ATOM     22  H   UNL     1      -0.983  -2.549  -0.550  0.00  0.00    +0.149 HD
BRANCH  21  23
ATOM     23  S   UNL     1      -2.307  -2.758   1.319  0.00  0.00    +0.059 S 
ATOM     24  O   UNL     1      -2.223  -4.155   1.077  0.00  0.00    -0.153 OA
ATOM     25  O   UNL     1      -1.878  -2.169   2.539  0.00  0.00    -0.153 OA
BRANCH  23  26
ATOM     26  C   UNL     1      -3.999  -2.312   1.111  0.00  0.00    +0.109 A 
ATOM     27  C   UNL     1      -4.495  -1.178   1.729  0.00  0.00    +0.032 A 
ATOM     28  C   UNL     1      -5.821  -0.826   1.570  0.00  0.00    +0.051 A 
ATOM     29  C   UNL     1      -6.659  -1.608   0.789  0.00  0.00    +0.162 A 
ATOM     30  C   UNL     1      -6.161  -2.746   0.166  0.00  0.00    +0.164 A 
ATOM     31  C   UNL     1      -4.827  -3.092   0.327  0.00  0.00    +0.078 A 
ATOM     32  O   UNL     1      -6.964  -3.523  -0.611  0.00  0.00    -0.485 OA
ATOM     33  C   UNL     1      -8.376  -3.350  -0.452  0.00  0.00    +0.270 C 
ATOM     34  C   UNL     1      -8.678  -1.845  -0.445  0.00  0.00    +0.270 C 
ATOM     35  O   UNL     1      -7.964  -1.250   0.644  0.00  0.00    -0.485 OA
ENDBRANCH  23  26
ENDBRANCH  21  23
ENDBRANCH   1  21
TORSDOF 9
