REMARK  Name = ZINC45606035
REMARK  5 active torsions:
REMARK  status: ('A' for Active; 'I' for Inactive)
REMARK    1  A    between atoms: C_1  and  N_2
REMARK    2  A    between atoms: N_2  and  C_3
REMARK    3  A    between atoms: N_2  and  C_12
REMARK    4  A    between atoms: C_3  and  C_4
REMARK    5  A    between atoms: C_12  and  C_13
REMARK                            x       y       z     vdW  Elec       q    Type
REMARK                         _______ _______ _______ _____ _____    ______ ____
ROOT
ATOM      1  C   UNL     1      -0.106  -0.083  -2.424  0.00  0.00    +0.204 C 
ATOM      2  O   UNL     1      -1.067   0.643  -2.285  0.00  0.00    -0.277 OA
ATOM      3  N   UNL     1       0.384  -0.324  -3.656  0.00  0.00    -0.256 N 
ATOM      4  C   UNL     1       1.580  -1.040  -3.833  0.00  0.00    +0.058 A 
ATOM      5  C   UNL     1       2.567  -1.027  -2.863  0.00  0.00    +0.025 A 
ATOM      6  C   UNL     1       3.736  -1.739  -3.064  0.00  0.00    +0.002 A 
ATOM      7  C   UNL     1       3.919  -2.459  -4.231  0.00  0.00    +0.002 A 
ATOM      8  C   UNL     1       2.937  -2.475  -5.204  0.00  0.00    +0.025 A 
ATOM      9  C   UNL     1       1.761  -1.768  -5.010  0.00  0.00    +0.055 A 
ATOM     10  N   UNL     1       0.753  -1.782  -5.981  0.00  0.00    -0.282 N 
ATOM     11  C   UNL     1      -0.264  -0.899  -5.929  0.00  0.00    +0.241 C 
ATOM     12  O   UNL     1      -1.147  -0.952  -6.758  0.00  0.00    -0.273 OA
ATOM     13  C   UNL     1      -0.318   0.146  -4.855  0.00  0.00    +0.118 C 
ATOM     14  C   UNL     1       0.328   1.449  -5.359  0.00  0.00    +0.036 C 
ATOM     15  C   UNL     1      -0.871   2.298  -5.854  0.00  0.00    +0.003 C 
ATOM     16  C   UNL     1      -1.972   1.975  -4.814  0.00  0.00    +0.003 C 
ATOM     17  C   UNL     1      -1.778   0.474  -4.510  0.00  0.00    +0.036 C 
ATOM     18  H   UNL     1       0.786  -2.433  -6.698  0.00  0.00    +0.155 HD
ENDROOT
BRANCH   1  19
ATOM     19  C   UNL     1       0.541  -0.716  -1.219  0.00  0.00    +0.019 C 
BRANCH  19  21
ATOM     20  C   UNL     1      -0.660   0.704   0.297  0.00  0.00    -0.095 C 
ATOM     21  N   UNL     1      -0.397  -0.689  -0.089  0.00  0.00    +0.386 N 
ATOM     22  H   UNL     1      -1.263  -1.132  -0.360  0.00  0.00    -0.081 HD
BRANCH  21  23
ATOM     23  C   UNL     1       0.186  -1.411   1.049  0.00  0.00    -0.038 C 
BRANCH  23  24
ATOM     24  C   UNL     1      -0.824  -1.490   2.165  0.00  0.00    -0.010 A 
ATOM     25  C   UNL     1      -0.881  -0.489   3.120  0.00  0.00    +0.126 A 
ATOM     26  C   UNL     1      -1.809  -0.563   4.144  0.00  0.00    +0.038 A 
ATOM     27  C   UNL     1      -2.678  -1.636   4.214  0.00  0.00    +0.004 A 
ATOM     28  C   UNL     1      -2.621  -2.635   3.260  0.00  0.00    +0.020 A 
ATOM     29  C   UNL     1      -1.698  -2.560   2.232  0.00  0.00    +0.045 A 
ATOM     30 CL   UNL     1      -1.632  -3.812   1.032  0.00  0.00    -0.083 Cl
ATOM     31  F   UNL     1      -0.031   0.558   3.052  0.00  0.00    -0.205 F 
ENDBRANCH  23  24
ENDBRANCH  21  23
ENDBRANCH  19  21
ENDBRANCH   1  19
TORSDOF 4
