REMARK  Name = ZINC17021053
REMARK  6 active torsions:
REMARK  status: ('A' for Active; 'I' for Inactive)
REMARK    1  A    between atoms: C_5  and  C_24
REMARK    2  A    between atoms: N_7  and  C1*_10
REMARK    3  A    between atoms: C2*_12  and  O2*_22
REMARK    4  A    between atoms: C3*_14  and  O3*_21
REMARK    5  A    between atoms: C4*_16  and  C5*_19
REMARK    6  A    between atoms: C5*_19  and  O5*_20
REMARK                            x       y       z     vdW  Elec       q    Type
REMARK                         _______ _______ _______ _____ _____    ______ ____
ROOT
ATOM      1  C   UNL     1      -1.643   4.841   2.899  0.00  0.00    +0.225 A 
ATOM      2  N   UNL     1      -1.117   5.269   4.032  0.00  0.00    -0.220 NA
ATOM      3  C   UNL     1       0.191   5.177   4.257  0.00  0.00    +0.130 A 
ATOM      4  C   UNL     1       0.999   4.613   3.262  0.00  0.00    +0.077 A 
ATOM      5  C   UNL     1       2.437   4.338   3.120  0.00  0.00    +0.096 A 
ATOM      6  C   UNL     1       2.598   3.765   1.892  0.00  0.00    +0.107 A 
ATOM      7  N   UNL     1       1.391   3.666   1.273  0.00  0.00    -0.289 N 
ATOM      8  C   UNL     1       0.399   4.176   2.071  0.00  0.00    +0.150 A 
ATOM      9  N   UNL     1      -0.920   4.304   1.939  0.00  0.00    -0.217 NA
ATOM     10 BR   UNL     1       4.247   3.195   1.162  0.00  0.00    -0.029 Br
ATOM     11  N   UNL     1       0.739   5.627   5.445  0.00  0.00    -0.342 N 
ATOM     12  H   UNL     1       1.694   5.554   5.597  0.00  0.00    +0.144 HD
ATOM     13  H   UNL     1       0.168   6.016   6.127  0.00  0.00    +0.144 HD
ENDROOT
BRANCH   7  14
ATOM     14  C1* UNL     1       1.181   3.101  -0.062  0.00  0.00    +0.253 C 
ATOM     15  C2* UNL     1       1.286   1.562  -0.002  0.00  0.00    +0.195 C 
ATOM     16  C3* UNL     1       2.041   1.226  -1.317  0.00  0.00    +0.178 C 
ATOM     17  C4* UNL     1       2.971   2.462  -1.443  0.00  0.00    +0.177 C 
ATOM     18  O4* UNL     1       2.197   3.570  -0.956  0.00  0.00    -0.346 OA
BRANCH  16  19
ATOM     19  O3* UNL     1       2.795   0.020  -1.185  0.00  0.00    -0.386 OA
ATOM     20  H3* UNL     1       3.282  -0.229  -1.983  0.00  0.00    +0.210 HD
ENDBRANCH  16  19
BRANCH  15  21
ATOM     21  O2* UNL     1      -0.011   0.963   0.007  0.00  0.00    -0.385 OA
ATOM     22  H2* UNL     1       0.002  -0.004   0.002  0.00  0.00    +0.210 HD
ENDBRANCH  15  21
BRANCH  17  23
ATOM     23  C5* UNL     1       3.361   2.689  -2.905  0.00  0.00    +0.190 C 
BRANCH  23  24
ATOM     24  O5* UNL     1       4.261   3.796  -2.992  0.00  0.00    -0.392 OA
ATOM     25  H5* UNL     1       4.551   3.997  -3.892  0.00  0.00    +0.210 HD
ENDBRANCH  23  24
ENDBRANCH  17  23
ENDBRANCH   7  14
BRANCH   5  26
ATOM     26  C   UNL     1       3.463   4.614   4.080  0.00  0.00    +0.103 C 
ATOM     27  N   UNL     1       4.277   4.834   4.841  0.00  0.00    -0.191 NA
ENDBRANCH   5  26
TORSDOF 6
