REMARK  Name = ZINC34775050
REMARK  9 active torsions:
REMARK  status: ('A' for Active; 'I' for Inactive)
REMARK    1  A    between atoms: C_1  and  C_2
REMARK    2  A    between atoms: C_2  and  N_3
REMARK    3  A    between atoms: N_3  and  C_4
REMARK    4  A    between atoms: C_4  and  C_5
REMARK    5  A    between atoms: C_6  and  C_8
REMARK    6  A    between atoms: C_8  and  N_9
REMARK    7  A    between atoms: C_21  and  C_24
REMARK    8  A    between atoms: C_27  and  C_29
REMARK    9  A    between atoms: C_27  and  C_30
REMARK                            x       y       z     vdW  Elec       q    Type
REMARK                         _______ _______ _______ _____ _____    ______ ____
ROOT
ATOM      1  N   UNL     1      -2.156  -0.832   3.604  0.00  0.00    -0.268 N 
ATOM      2  C   UNL     1      -2.961   0.117   4.111  0.00  0.00    +0.264 A 
ATOM      3  O   UNL     1      -2.953   1.240   3.642  0.00  0.00    -0.267 OA
ATOM      4  C   UNL     1      -3.857  -0.211   5.243  0.00  0.00    +0.074 A 
ATOM      5  C   UNL     1      -4.797   0.660   5.939  0.00  0.00    -0.018 A 
ATOM      6  C   UNL     1      -5.484   0.072   6.943  0.00  0.00    +0.021 A 
ATOM      7  S   UNL     1      -4.901  -1.595   6.966  0.00  0.00    -0.072 S 
ATOM      8  C   UNL     1      -3.798  -1.523   5.711  0.00  0.00    +0.104 A 
ATOM      9  N   UNL     1      -2.952  -2.446   5.148  0.00  0.00    -0.237 N 
ATOM     10  C   UNL     1      -2.145  -2.107   4.104  0.00  0.00    +0.242 A 
ATOM     11  N   UNL     1      -1.337  -3.010   3.571  0.00  0.00    -0.111 NA
ATOM     12  N   UNL     1      -1.285  -4.219   4.000  0.00  0.00    -0.146 NA
ATOM     13  C   UNL     1      -2.036  -4.627   4.997  0.00  0.00    +0.125 A 
ATOM     14  C   UNL     1      -2.911  -3.713   5.619  0.00  0.00    +0.282 A 
ATOM     15  O   UNL     1      -3.623  -4.060   6.547  0.00  0.00    -0.265 OA
ATOM     16  C   UNL     1      -1.955  -6.052   5.479  0.00  0.00    +0.073 C 
ATOM     17  C   UNL     1      -6.504   0.734   7.816  0.00  0.00    +0.203 C 
ATOM     18  O   UNL     1      -6.391   2.154   7.623  0.00  0.00    -0.368 OA
ATOM     19  C   UNL     1      -6.361   2.547   6.249  0.00  0.00    +0.068 C 
ATOM     20  C   UNL     1      -5.034   2.127   5.607  0.00  0.00    +0.071 C 
ATOM     21  C   UNL     1      -6.512   4.067   6.153  0.00  0.00    +0.041 C 
ATOM     22  C   UNL     1      -7.519   1.878   5.505  0.00  0.00    +0.041 C 
ENDROOT
BRANCH   1  23
ATOM     23  C   UNL     1      -1.274  -0.497   2.484  0.00  0.00    +0.224 C 
BRANCH  23  25
ATOM     24  N   UNL     1      -1.372  -0.511   0.012  0.00  0.00    -0.301 N 
ATOM     25  C   UNL     1      -1.993  -0.751   1.184  0.00  0.00    +0.236 C 
ATOM     26  O   UNL     1      -3.131  -1.171   1.193  0.00  0.00    -0.274 OA
BRANCH  24  28
ATOM     27  C   UNL     1      -0.019   1.526   0.010  0.00  0.00    +0.024 C 
ATOM     28  C   UNL     1       0.002  -0.004   0.002  0.00  0.00    +0.104 C 
ENDBRANCH  24  28
BRANCH  24  29
ATOM     29  C   UNL     1      -2.072  -0.758  -1.251  0.00  0.00    +0.104 C 
ATOM     30  C   UNL     1      -1.816  -2.197  -1.703  0.00  0.00    +0.024 C 
ENDBRANCH  24  29
ENDBRANCH  23  25
ENDBRANCH   1  23
TORSDOF 4
