REMARK  Name = ZINC08791012
REMARK  7 active torsions:
REMARK  status: ('A' for Active; 'I' for Inactive)
REMARK    1  A    between atoms: C_1  and  C_2
REMARK    2  A    between atoms: C_16  and  C_18
REMARK    3  A    between atoms: C_18  and  C_19
REMARK    4  A    between atoms: C_22  and  O_25
REMARK    5  A    between atoms: N_28  and  C_31
REMARK    6  A    between atoms: C_31  and  C_32
REMARK    7  A    between atoms: C_32  and  C_33
REMARK                            x       y       z     vdW  Elec       q    Type
REMARK                         _______ _______ _______ _____ _____    ______ ____
ROOT
ATOM      1  C   UNL     1       3.130  -2.132  -0.032  0.00  0.00    +0.046 C 
ATOM      2  C   UNL     1       1.681  -1.718  -0.018  0.00  0.00    -0.028 A 
ATOM      3  C   UNL     1       0.691  -2.679  -0.015  0.00  0.00    +0.025 A 
ATOM      4  C   UNL     1      -0.642  -2.308  -0.005  0.00  0.00    +0.042 A 
ATOM      5  C   UNL     1      -0.983  -0.966   0.004  0.00  0.00    +0.024 A 
ATOM      6  C   UNL     1       0.002  -0.004   0.002  0.00  0.00    -0.026 A 
ATOM      7  C   UNL     1       1.346  -0.366  -0.010  0.00  0.00    +0.039 A 
ATOM      8  N   UNL     1       2.153   0.774  -0.012  0.00  0.00    -0.286 N 
ATOM      9  C   UNL     1       1.429   1.910  -0.001  0.00  0.00    +0.211 C 
ATOM     10  O   UNL     1       1.859   3.044  -0.001  0.00  0.00    -0.277 OA
ATOM     11  C   UNL     1      -0.018   1.498   0.010  0.00  0.00    +0.050 C 
ATOM     12  C   UNL     1      -0.746   2.045   1.245  0.00  0.00    +0.088 C 
ATOM     13  C   UNL     1      -1.468   3.324   0.739  0.00  0.00    +0.073 C 
ATOM     14  C   UNL     1      -1.093   3.426  -0.755  0.00  0.00    -0.053 C 
ATOM     15  C   UNL     1      -2.942   2.949   0.869  0.00  0.00    +0.224 C 
ATOM     16  O   UNL     1      -3.874   3.664   0.569  0.00  0.00    -0.275 OA
ATOM     17  N   UNL     1      -3.047   1.712   1.370  0.00  0.00    -0.241 N 
ATOM     18  C   UNL     1      -1.877   1.114   1.620  0.00  0.00    +0.225 C 
ATOM     19  O   UNL     1      -1.744  -0.001   2.077  0.00  0.00    -0.275 OA
ATOM     20 CL   UNL     1      -1.883  -3.522  -0.002  0.00  0.00    -0.084 Cl
ATOM     21  H   UNL     1       3.123   0.751  -0.020  0.00  0.00    +0.155 HD
ATOM     22  N   UNL     1      -0.734   2.055  -1.124  0.00  0.00    +0.394 N 
ATOM     23  H   UNL     1      -1.579   1.505  -1.315  0.00  0.00    -0.083 HD
ATOM     24  H   UNL     1      -0.132   2.058  -1.956  0.00  0.00    -0.083 HD
ENDROOT
BRANCH  14  25
ATOM     25  C   UNL     1      -2.287   3.928  -1.570  0.00  0.00    +0.020 C 
BRANCH  25  26
ATOM     26  C   UNL     1      -1.866   4.137  -3.002  0.00  0.00    -0.049 A 
ATOM     27  C   UNL     1      -1.375   5.365  -3.405  0.00  0.00    +0.007 A 
ATOM     28  C   UNL     1      -0.983   5.557  -4.716  0.00  0.00    +0.045 A 
ATOM     29  C   UNL     1      -1.093   4.519  -5.630  0.00  0.00    +0.117 A 
ATOM     30  C   UNL     1      -1.591   3.290  -5.224  0.00  0.00    +0.045 A 
ATOM     31  C   UNL     1      -1.976   3.101  -3.911  0.00  0.00    +0.007 A 
BRANCH  29  32
ATOM     32  O   UNL     1      -0.713   4.707  -6.921  0.00  0.00    -0.507 OA
ATOM     33  H   UNL     1      -1.421   5.026  -7.497  0.00  0.00    +0.292 HD
ENDBRANCH  29  32
ENDBRANCH  25  26
ENDBRANCH  14  25
BRANCH  17  34
ATOM     34  C   UNL     1      -4.338   1.067   1.623  0.00  0.00    +0.121 C 
BRANCH  34  35
ATOM     35  C   UNL     1      -4.795   1.385   3.048  0.00  0.00    +0.054 C 
BRANCH  35  36
ATOM     36  C   UNL     1      -6.123   0.721   3.309  0.00  0.00    -0.046 A 
ATOM     37  C   UNL     1      -7.298   1.394   3.034  0.00  0.00    +0.004 A 
ATOM     38  C   UNL     1      -8.516   0.783   3.269  0.00  0.00    +0.000 A 
ATOM     39  C   UNL     1      -8.558  -0.497   3.788  0.00  0.00    +0.000 A 
ATOM     40  C   UNL     1      -7.383  -1.169   4.067  0.00  0.00    +0.000 A 
ATOM     41  C   UNL     1      -6.165  -0.560   3.828  0.00  0.00    +0.004 A 
ENDBRANCH  35  36
ENDBRANCH  34  35
ENDBRANCH  17  34
TORSDOF 6
