REMARK  Name = ZINC31975341
REMARK  5 active torsions:
REMARK  status: ('A' for Active; 'I' for Inactive)
REMARK    1  A    between atoms: C_1  and  C_2
REMARK    2  A    between atoms: C_2  and  C_3
REMARK    3  A    between atoms: C_4  and  C_14
REMARK    4  A    between atoms: C_6  and  C_12
REMARK    5  A    between atoms: C_7  and  C_11
REMARK                            x       y       z     vdW  Elec       q    Type
REMARK                         _______ _______ _______ _____ _____    ______ ____
ROOT
ATOM      1  C   UNL     1       0.731  -0.503   1.223  0.00  0.00    +0.017 A 
ATOM      2  C   UNL     1       0.230  -0.891   2.414  0.00  0.00    +0.066 A 
ATOM      3  N   UNL     1       1.077  -1.321   3.416  0.00  0.00    -0.283 N 
ATOM      4  C   UNL     1       0.974  -1.789   4.740  0.00  0.00    +0.109 A 
ATOM      5  C   UNL     1       2.264  -2.050   5.173  0.00  0.00    +0.068 A 
ATOM      6  N   UNL     1       3.093  -1.760   4.180  0.00  0.00    -0.226 NA
ATOM      7  C   UNL     1       2.409  -1.332   3.146  0.00  0.00    +0.179 A 
ATOM      8  S   UNL     1       2.483  -0.743   1.470  0.00  0.00    -0.054 S 
ATOM      9  C   UNL     1       2.654  -2.571   6.532  0.00  0.00    +0.068 C 
ENDROOT
BRANCH   2  10
ATOM     10  C   UNL     1      -1.230  -0.856   2.646  0.00  0.00    +0.003 A 
ATOM     11  C   UNL     1      -1.765   0.016   3.597  0.00  0.00    +0.012 A 
ATOM     12  C   UNL     1      -3.126   0.050   3.814  0.00  0.00    +0.030 A 
ATOM     13  C   UNL     1      -3.965  -0.784   3.090  0.00  0.00    +0.087 A 
ATOM     14  C   UNL     1      -3.438  -1.659   2.138  0.00  0.00    +0.157 A 
ATOM     15  C   UNL     1      -2.073  -1.690   1.913  0.00  0.00    +0.058 A 
ATOM     16  O   UNL     1      -4.478  -2.338   1.596  0.00  0.00    -0.408 OA
ATOM     17  C   UNL     1      -5.621  -1.925   2.167  0.00  0.00    +0.419 A 
ATOM     18  O   UNL     1      -6.731  -2.342   1.898  0.00  0.00    -0.223 OA
ATOM     19  N   UNL     1      -5.347  -0.976   3.084  0.00  0.00    -0.288 N 
ATOM     20  H   UNL     1      -5.993  -0.512   3.639  0.00  0.00    +0.172 HD
ENDBRANCH   2  10
BRANCH   1  22
ATOM     21  C   UNL     1      -0.019   1.526   0.010  0.00  0.00    +0.009 C 
ATOM     22  C   UNL     1       0.002  -0.004   0.002  0.00  0.00    +0.041 C 
ENDBRANCH   1  22
BRANCH   4  23
ATOM     23  C   UNL     1      -0.208  -1.958   5.479  0.00  0.00    +0.278 C 
ATOM     24  O   UNL     1      -0.158  -2.373   6.620  0.00  0.00    -0.294 OA
ENDBRANCH   4  23
TORSDOF 3
