REMARK  Name = ZINC09738929
REMARK  10 active torsions:
REMARK  status: ('A' for Active; 'I' for Inactive)
REMARK    1  A    between atoms: C_1  and  C_2
REMARK    2  A    between atoms: C_2  and  C_3
REMARK    3  A    between atoms: C_2  and  C_4
REMARK    4  A    between atoms: C_7  and  C_10
REMARK    5  A    between atoms: C_12  and  C_31
REMARK    6  A    between atoms: N_16  and  C_21
REMARK    7  A    between atoms: C_24  and  C_27
REMARK    8  A    between atoms: C_27  and  C_28
REMARK    9  A    between atoms: C_27  and  C_29
REMARK   10  A    between atoms: C_27  and  C_30
REMARK                            x       y       z     vdW  Elec       q    Type
REMARK                         _______ _______ _______ _____ _____    ______ ____
ROOT
ATOM      1  C   UNL     1      -2.708   2.943   4.746  0.00  0.00    +0.163 A 
ATOM      2  N   UNL     1      -3.186   2.053   5.600  0.00  0.00    -0.220 NA
ATOM      3  C   UNL     1      -3.812   2.437   6.713  0.00  0.00    +0.154 A 
ATOM      4  C   UNL     1      -3.964   3.803   6.956  0.00  0.00    +0.117 A 
ATOM      5  C   UNL     1      -3.444   4.715   6.018  0.00  0.00    +0.170 A 
ATOM      6  N   UNL     1      -2.833   4.251   4.943  0.00  0.00    -0.208 NA
ATOM      7  N   UNL     1      -3.729   5.981   6.498  0.00  0.00    -0.245 N 
ATOM      8  C   UNL     1      -4.388   5.856   7.666  0.00  0.00    +0.333 A 
ATOM      9  O   UNL     1      -4.783   6.782   8.349  0.00  0.00    -0.246 OA
ATOM     10  N   UNL     1      -4.542   4.551   7.965  0.00  0.00    -0.303 N 
ATOM     11  H   UNL     1      -4.983   4.197   8.753  0.00  0.00    +0.171 HD
ENDROOT
BRANCH   1  15
ATOM     12  C   UNL     1      -0.718   1.572   1.248  0.00  0.00    -0.045 A 
ATOM     13  C   UNL     1      -0.854   2.929   1.476  0.00  0.00    +0.004 A 
ATOM     14  C   UNL     1      -1.504   3.380   2.607  0.00  0.00    +0.012 A 
ATOM     15  C   UNL     1      -2.014   2.465   3.526  0.00  0.00    +0.019 A 
ATOM     16  C   UNL     1      -1.869   1.098   3.294  0.00  0.00    +0.012 A 
ATOM     17  C   UNL     1      -1.222   0.659   2.157  0.00  0.00    +0.004 A 
BRANCH  12  19
ATOM     18  C   UNL     1       1.423   1.615  -0.003  0.00  0.00    +0.012 C 
ATOM     19  C   UNL     1      -0.013   1.086   0.008  0.00  0.00    +0.013 C 
ATOM     20  C   UNL     1      -0.753   1.593  -1.232  0.00  0.00    +0.012 C 
ENDBRANCH  12  19
ENDBRANCH   1  15
BRANCH   7  21
ATOM     21  C   UNL     1      -3.390   7.189   5.874  0.00  0.00    +0.053 A 
ATOM     22  C   UNL     1      -2.702   7.180   4.668  0.00  0.00    +0.026 A 
ATOM     23  C   UNL     1      -2.374   8.372   4.052  0.00  0.00    +0.006 A 
ATOM     24  C   UNL     1      -2.721   9.574   4.641  0.00  0.00    -0.042 A 
ATOM     25  C   UNL     1      -3.400   9.587   5.846  0.00  0.00    +0.006 A 
ATOM     26  C   UNL     1      -3.736   8.398   6.463  0.00  0.00    +0.026 A 
BRANCH  24  27
ATOM     27  C   UNL     1      -2.357  10.873   3.970  0.00  0.00    -0.013 C 
ATOM     28  C   UNL     1      -1.454  11.691   4.896  0.00  0.00    +0.015 C 
ATOM     29  C   UNL     1      -1.616  10.582   2.663  0.00  0.00    +0.015 C 
ATOM     30  C   UNL     1      -3.630  11.666   3.668  0.00  0.00    +0.015 C 
ENDBRANCH  24  27
ENDBRANCH   7  21
BRANCH   3  31
ATOM     31  C   UNL     1      -4.341   1.436   7.668  0.00  0.00    +0.262 C 
ATOM     32  O   UNL     1      -4.914   1.801   8.676  0.00  0.00    -0.269 OA
ATOM     33  N   UNL     1      -4.187   0.120   7.419  0.00  0.00    -0.324 N 
ATOM     34  H   UNL     1      -3.730  -0.171   6.615  0.00  0.00    +0.145 HD
ATOM     35  H   UNL     1      -4.533  -0.535   8.045  0.00  0.00    +0.145 HD
ENDBRANCH   3  31
TORSDOF 5
