REMARK  Name = ZINC61683725
REMARK  7 active torsions:
REMARK  status: ('A' for Active; 'I' for Inactive)
REMARK    1  A    between atoms: C_1  and  C_2
REMARK    2  A    between atoms: C_3  and  C_20
REMARK    3  A    between atoms: C_7  and  N_11
REMARK    4  A    between atoms: N_11  and  C_12
REMARK    5  A    between atoms: N_15  and  C_17
REMARK    6  A    between atoms: C_17  and  C_18
REMARK    7  A    between atoms: C_17  and  C_19
REMARK                            x       y       z     vdW  Elec       q    Type
REMARK                         _______ _______ _______ _____ _____    ______ ____
ROOT
ATOM      1  C   UNL     1      -0.586   1.484   0.123  0.00  0.00    +0.045 C 
ATOM      2  C   UNL     1      -0.511  -0.021   0.104  0.00  0.00    -0.028 A 
ATOM      3  C   UNL     1      -0.809  -0.701  -1.013  0.00  0.00    -0.008 A 
ATOM      4  S   UNL     1      -0.576  -2.404  -0.539  0.00  0.00    -0.074 S 
ATOM      5  C   UNL     1      -0.085  -2.156   1.147  0.00  0.00    +0.114 A 
ATOM      6  C   UNL     1      -0.110  -0.752   1.293  0.00  0.00    +0.051 A 
ATOM      7  C   UNL     1       0.255  -0.267   2.579  0.00  0.00    +0.135 A 
ATOM      8  N   UNL     1       0.589  -1.131   3.524  0.00  0.00    -0.220 NA
ATOM      9  C   UNL     1       0.596  -2.435   3.314  0.00  0.00    +0.224 A 
ATOM     10  N   UNL     1       0.257  -2.946   2.146  0.00  0.00    -0.228 NA
ATOM     11  C   UNL     1      -1.239  -0.155  -2.351  0.00  0.00    +0.052 C 
ENDROOT
BRANCH   7  12
ATOM     12  N   UNL     1       0.262   1.092   2.839  0.00  0.00    -0.296 N 
ATOM     13  H   UNL     1       0.110   1.724   2.119  0.00  0.00    +0.154 HD
BRANCH  12  14
ATOM     14  C   UNL     1       0.489   1.557   4.148  0.00  0.00    +0.070 A 
ATOM     15  C   UNL     1       0.727   0.761   5.278  0.00  0.00    +0.157 A 
ATOM     16  N   UNL     1       0.891   1.548   6.309  0.00  0.00    -0.178 NA
ATOM     17  N   UNL     1       0.764   2.874   5.877  0.00  0.00    -0.267 N 
ATOM     18  C   UNL     1       0.521   2.856   4.540  0.00  0.00    +0.132 A 
BRANCH  17  19
ATOM     19  C   UNL     1       0.877   4.070   6.717  0.00  0.00    +0.101 C 
ATOM     20  C   UNL     1       2.308   4.609   6.646  0.00  0.00    +0.032 C 
ATOM     21  C   UNL     1      -0.096   5.139   6.216  0.00  0.00    +0.032 C 
ENDBRANCH  17  19
ENDBRANCH  12  14
ENDBRANCH   7  12
TORSDOF 3
