REMARK  Name = ZINC41026851
REMARK  9 active torsions:
REMARK  status: ('A' for Active; 'I' for Inactive)
REMARK    1  A    between atoms: C_1  and  C_2
REMARK    2  A    between atoms: C_2  and  O_3
REMARK    3  A    between atoms: O_3  and  C_4
REMARK    4  A    between atoms: C_4  and  C_6
REMARK    5  A    between atoms: C_9  and  O_12
REMARK    6  A    between atoms: O_12  and  C_13
REMARK    7  A    between atoms: C_14  and  C_35
REMARK    8  A    between atoms: N_25  and  C_28
REMARK    9  A    between atoms: C_28  and  C_29
REMARK                            x       y       z     vdW  Elec       q    Type
REMARK                         _______ _______ _______ _____ _____    ______ ____
ROOT
ATOM      1  C   UNL     1      -7.519  -5.566   0.817  0.00  0.00    +0.213 A 
ATOM      2  C   UNL     1      -6.396  -6.311   0.765  0.00  0.00    +0.148 A 
ATOM      3  O   UNL     1      -6.416  -7.649   0.699  0.00  0.00    -0.456 OA
ATOM      4  C   UNL     1      -7.565  -8.354   0.676  0.00  0.00    +0.147 A 
ATOM      5  C   UNL     1      -8.798  -7.681   0.728  0.00  0.00    +0.068 A 
ATOM      6  C   UNL     1      -8.789  -6.210   0.808  0.00  0.00    +0.235 A 
ATOM      7  O   UNL     1      -9.826  -5.570   0.861  0.00  0.00    -0.283 OA
ATOM      8  C   UNL     1      -9.992  -8.402   0.707  0.00  0.00    +0.019 A 
ATOM      9  C   UNL     1      -9.959  -9.764   0.636  0.00  0.00    +0.047 A 
ATOM     10  C   UNL     1      -8.740 -10.442   0.582  0.00  0.00    +0.130 A 
ATOM     11  C   UNL     1      -7.548  -9.741   0.601  0.00  0.00    +0.051 A 
ATOM     12  C   UNL     1      -6.225 -10.461   0.535  0.00  0.00    +0.130 C 
ATOM     13  N   UNL     1      -6.418 -11.878   0.873  0.00  0.00    -0.264 NA
ATOM     14  C   UNL     1      -7.536 -12.437   0.096  0.00  0.00    +0.318 C 
ATOM     15  O   UNL     1      -8.745 -11.800   0.515  0.00  0.00    -0.476 OA
ATOM     16  C   UNL     1      -5.063  -5.609   0.781  0.00  0.00    +0.090 C 
ENDROOT
BRANCH   1  17
ATOM     17  O   UNL     1      -7.438  -4.209   0.884  0.00  0.00    -0.449 OA
BRANCH  17  21
ATOM     18  C   UNL     1      -8.812  -2.027  -2.339  0.00  0.00    +0.059 A 
ATOM     19  C   UNL     1      -8.390  -1.372  -1.178  0.00  0.00    +0.018 A 
ATOM     20  C   UNL     1      -7.933  -2.104  -0.105  0.00  0.00    +0.047 A 
ATOM     21  C   UNL     1      -7.890  -3.492  -0.175  0.00  0.00    +0.129 A 
ATOM     22  C   UNL     1      -8.308  -4.147  -1.329  0.00  0.00    +0.047 A 
ATOM     23  C   UNL     1      -8.773  -3.423  -2.404  0.00  0.00    +0.018 A 
BRANCH  18  24
ATOM     24  C   UNL     1      -9.303  -1.247  -3.490  0.00  0.00    +0.339 C 
ATOM     25  O   UNL     1      -9.674  -1.817  -4.497  0.00  0.00    -0.245 OA
BRANCH  24  26
ATOM     26  O   UNL     1      -9.340   0.099  -3.426  0.00  0.00    -0.461 OA
BRANCH  26  28
ATOM     27  C   UNL     1      -9.794   2.298  -4.319  0.00  0.00    +0.048 C 
ATOM     28  C   UNL     1      -9.826   0.790  -4.578  0.00  0.00    +0.229 C 
ENDBRANCH  26  28
ENDBRANCH  24  26
ENDBRANCH  18  24
ENDBRANCH  17  21
ENDBRANCH   1  17
BRANCH  13  29
ATOM     29  C   UNL     1      -5.185 -12.645   0.648  0.00  0.00    +0.119 C 
BRANCH  29  30
ATOM     30  C   UNL     1      -4.108 -12.178   1.628  0.00  0.00    +0.132 C 
ATOM     31  C   UNL     1      -2.795 -12.949   1.370  0.00  0.00    +0.035 C 
ATOM     32  C   UNL     1      -2.268 -13.194   2.811  0.00  0.00    +0.031 C 
ATOM     33  C   UNL     1      -3.599 -13.379   3.583  0.00  0.00    +0.160 C 
ATOM     34  O   UNL     1      -4.519 -12.458   2.972  0.00  0.00    -0.375 OA
ENDBRANCH  29  30
ENDBRANCH  13  29
TORSDOF 7
