REMARK  Name = ZINC00499671
REMARK  7 active torsions:
REMARK  status: ('A' for Active; 'I' for Inactive)
REMARK    1  A    between atoms: C_1  and  C_2
REMARK    2  A    between atoms: C_9  and  C_17
REMARK    3  A    between atoms: C_11  and  C_15
REMARK    4  A    between atoms: C_12  and  N_14
REMARK    5  A    between atoms: C_20  and  C_23
REMARK    6  A    between atoms: C_23  and  O_25
REMARK    7  A    between atoms: O_25  and  C_26
REMARK                            x       y       z     vdW  Elec       q    Type
REMARK                         _______ _______ _______ _____ _____    ______ ____
ROOT
ATOM      1  C   UNL     1       1.096  -8.333  -4.817  0.00  0.00    +0.086 C 
ATOM      2  C   UNL     1       0.454  -7.827  -3.551  0.00  0.00    +0.110 A 
ATOM      3  C   UNL     1       1.123  -7.923  -2.386  0.00  0.00    +0.088 A 
ATOM      4  C   UNL     1       0.526  -7.451  -1.195  0.00  0.00    +0.144 A 
ATOM      5  C   UNL     1      -0.736  -6.899  -1.260  0.00  0.00    +0.092 A 
ATOM      6  C   UNL     1      -1.383  -6.825  -2.501  0.00  0.00    +0.345 A 
ATOM      7  O   UNL     1      -2.499  -6.339  -2.578  0.00  0.00    -0.245 OA
ATOM      8  O   UNL     1      -0.773  -7.289  -3.605  0.00  0.00    -0.427 OA
ATOM      9  C   UNL     1      -1.413  -6.381  -0.022  0.00  0.00    +0.105 C 
ATOM     10  C   UNL     1      -0.726  -6.914   1.205  0.00  0.00    +0.098 C 
ATOM     11  C   UNL     1       0.514  -7.456   1.136  0.00  0.00    +0.199 C 
ATOM     12  O   UNL     1       1.188  -7.544  -0.024  0.00  0.00    -0.441 OA
ENDROOT
BRANCH   9  13
ATOM     13  C   UNL     1      -1.355  -4.875  -0.013  0.00  0.00    -0.034 A 
ATOM     14  C   UNL     1      -2.527  -4.141   0.004  0.00  0.00    +0.005 A 
ATOM     15  C   UNL     1      -2.481  -2.762   0.011  0.00  0.00    +0.015 A 
ATOM     16  C   UNL     1      -1.247  -2.108   0.003  0.00  0.00    +0.059 A 
ATOM     17  C   UNL     1      -0.068  -2.856  -0.018  0.00  0.00    +0.015 A 
ATOM     18  C   UNL     1      -0.129  -4.234  -0.021  0.00  0.00    +0.005 A 
BRANCH  16  19
ATOM     19  C   UNL     1      -1.190  -0.632   0.010  0.00  0.00    +0.339 C 
ATOM     20  O   UNL     1      -2.217   0.016   0.023  0.00  0.00    -0.245 OA
BRANCH  19  21
ATOM     21  O   UNL     1       0.002  -0.004   0.002  0.00  0.00    -0.464 OA
ATOM     22  C   UNL     1      -0.018   1.448   0.010  0.00  0.00    +0.280 C 
ENDBRANCH  19  21
ENDBRANCH  16  19
ENDBRANCH   9  13
BRANCH  11  23
ATOM     23  N   UNL     1       1.099  -7.928   2.284  0.00  0.00    -0.328 N 
ATOM     24  H   UNL     1       1.986  -8.318   2.251  0.00  0.00    +0.145 HD
ATOM     25  H   UNL     1       0.625  -7.871   3.129  0.00  0.00    +0.145 HD
ENDBRANCH  11  23
BRANCH  10  26
ATOM     26  C   UNL     1      -1.394  -6.848   2.470  0.00  0.00    +0.101 C 
ATOM     27  N   UNL     1      -1.924  -6.795   3.473  0.00  0.00    -0.191 NA
ENDBRANCH  10  26
TORSDOF 5
