REMARK  Name = ZINC21793124
REMARK  14 active torsions:
REMARK  status: ('A' for Active; 'I' for Inactive)
REMARK    1  A    between atoms: C_1  and  C_2
REMARK    2  A    between atoms: C_2  and  O_3
REMARK    3  A    between atoms: O_3  and  C_4
REMARK    4  A    between atoms: C_4  and  C_6
REMARK    5  A    between atoms: C_7  and  C_34
REMARK    6  A    between atoms: C_13  and  C_17
REMARK    7  A    between atoms: C_17  and  C_19
REMARK    8  A    between atoms: C_17  and  N_20
REMARK    9  A    between atoms: N_23  and  C_26
REMARK   10  A    between atoms: C_26  and  C_27
REMARK   11  A    between atoms: N_29  and  C_30
REMARK   12  A    between atoms: C_30  and  C_31
REMARK   13  A    between atoms: C_30  and  C_32
REMARK   14  A    between atoms: C_30  and  C_33
REMARK                            x       y       z     vdW  Elec       q    Type
REMARK                         _______ _______ _______ _____ _____    ______ ____
ROOT
ATOM      1  C   UNL     1       4.420  -4.331  -7.734  0.00  0.00    -0.004 C 
ATOM      2  C   UNL     1       3.605  -4.934  -8.880  0.00  0.00    -0.005 C 
ENDROOT
BRANCH   1  10
ATOM      3  C   UNL     1      10.321  -6.466  -6.946  0.00  0.00    +0.102 A 
ATOM      4  C   UNL     1       9.196  -7.237  -6.907  0.00  0.00    -0.015 A 
ATOM      5  C   UNL     1       7.944  -6.649  -7.096  0.00  0.00    +0.076 A 
ATOM      6  C   UNL     1       6.604  -7.279  -7.097  0.00  0.00    +0.260 A 
ATOM      7  O   UNL     1       6.477  -8.477  -6.914  0.00  0.00    -0.267 OA
ATOM      8  N   UNL     1       5.529  -6.494  -7.304  0.00  0.00    -0.312 N 
ATOM      9  H   UNL     1       4.644  -6.891  -7.308  0.00  0.00    +0.170 HD
ATOM     10  C   UNL     1       5.658  -5.160  -7.508  0.00  0.00    +0.097 A 
ATOM     11  N   UNL     1       6.824  -4.572  -7.513  0.00  0.00    -0.228 NA
ATOM     12  C   UNL     1       7.947  -5.252  -7.319  0.00  0.00    +0.116 A 
ATOM     13  S   UNL     1       9.670  -4.832  -7.249  0.00  0.00    -0.062 S 
ATOM     14  C   UNL     1       9.304  -8.720  -6.662  0.00  0.00    +0.046 C 
BRANCH   3  15
ATOM     15  C   UNL     1      11.717  -6.876  -6.775  0.00  0.00    +0.346 C 
ATOM     16  O   UNL     1      11.986  -8.045  -6.573  0.00  0.00    -0.244 OA
BRANCH  15  17
ATOM     17  O   UNL     1      12.703  -5.958  -6.841  0.00  0.00    -0.461 OA
BRANCH  17  19
ATOM     18  C   UNL     1      15.013  -5.252  -6.773  0.00  0.00    +0.048 C 
ATOM     19  C   UNL     1      14.040  -6.428  -6.665  0.00  0.00    +0.229 C 
ENDBRANCH  17  19
ENDBRANCH  15  17
ENDBRANCH   3  15
ENDBRANCH   1  10
BRANCH   1  20
ATOM     20  N   UNL     1       4.808  -2.957  -8.080  0.00  0.00    +0.388 N 
ATOM     21  C   UNL     1       3.607  -2.113  -8.149  0.00  0.00    -0.062 C 
ATOM     22  C   UNL     1       4.012  -0.677  -8.491  0.00  0.00    +0.066 C 
ATOM     23  N   UNL     1       4.717  -0.664  -9.781  0.00  0.00    -0.298 NA
ATOM     24  C   UNL     1       5.907  -1.524  -9.734  0.00  0.00    +0.066 C 
ATOM     25  C   UNL     1       5.487  -2.953  -9.382  0.00  0.00    -0.062 C 
ATOM     26  H   UNL     1       5.432  -2.596  -7.374  0.00  0.00    -0.081 HD
BRANCH  23  27
ATOM     27  C   UNL     1       5.073   0.707 -10.172  0.00  0.00    +0.180 C 
BRANCH  27  28
ATOM     28  C   UNL     1       5.567   0.711 -11.596  0.00  0.00    +0.227 C 
ATOM     29  O   UNL     1       5.618  -0.326 -12.223  0.00  0.00    -0.274 OA
ATOM     30  N   UNL     1       5.953   1.866 -12.172  0.00  0.00    -0.310 N 
ATOM     31  H   UNL     1       5.912   2.696 -11.671  0.00  0.00    +0.149 HD
BRANCH  30  32
ATOM     32  C   UNL     1       6.434   1.870 -13.556  0.00  0.00    +0.026 C 
ATOM     33  C   UNL     1       5.332   1.346 -14.480  0.00  0.00    +0.031 C 
ATOM     34  C   UNL     1       6.804   3.297 -13.963  0.00  0.00    +0.031 C 
ATOM     35  C   UNL     1       7.666   0.970 -13.670  0.00  0.00    +0.031 C 
ENDBRANCH  30  32
ENDBRANCH  27  28
ENDBRANCH  23  27
ENDBRANCH   1  20
TORSDOF 8
