REMARK  Name = ZINC00885712
REMARK  9 active torsions:
REMARK  status: ('A' for Active; 'I' for Inactive)
REMARK    1  A    between atoms: C_4  and  C_7
REMARK    2  A    between atoms: C_10  and  C_13
REMARK    3  A    between atoms: N_15  and  C_16
REMARK    4  A    between atoms: N_15  and  C_23
REMARK    5  A    between atoms: C_16  and  C_17
REMARK    6  A    between atoms: C_23  and  C_25
REMARK    7  A    between atoms: C_23  and  C_32
REMARK    8  A    between atoms: N_34  and  C_35
REMARK    9  A    between atoms: C_35  and  C_36
REMARK                            x       y       z     vdW  Elec       q    Type
REMARK                         _______ _______ _______ _____ _____    ______ ____
ROOT
ATOM      1  C   UNL     1       0.854   7.006  -1.643  0.00  0.00    +0.264 C 
ATOM      2  O   UNL     1       1.799   6.240  -1.683  0.00  0.00    -0.268 OA
ATOM      3  N   UNL     1      -0.081   6.875  -0.681  0.00  0.00    -0.278 N 
ENDROOT
BRANCH   1   7
ATOM      4  C   UNL     1      -0.065   9.791  -3.808  0.00  0.00    +0.047 A 
ATOM      5  C   UNL     1       1.152   9.448  -4.355  0.00  0.00    +0.028 A 
ATOM      6  C   UNL     1       1.657   8.375  -3.622  0.00  0.00    +0.033 A 
ATOM      7  C   UNL     1       0.733   8.072  -2.642  0.00  0.00    +0.102 A 
ATOM      8  N   UNL     1      -0.320   8.951  -2.764  0.00  0.00    -0.351 N 
ATOM      9  H   UNL     1      -1.110   8.970  -2.201  0.00  0.00    +0.166 HD
BRANCH   4  13
ATOM     10  C   UNL     1      -2.594  12.931  -5.146  0.00  0.00    +0.000 A 
ATOM     11  C   UNL     1      -1.426  12.648  -5.831  0.00  0.00    +0.001 A 
ATOM     12  C   UNL     1      -0.600  11.630  -5.402  0.00  0.00    +0.010 A 
ATOM     13  C   UNL     1      -0.945  10.884  -4.273  0.00  0.00    -0.002 A 
ATOM     14  C   UNL     1      -2.128  11.171  -3.590  0.00  0.00    +0.010 A 
ATOM     15  C   UNL     1      -2.942  12.196  -4.027  0.00  0.00    +0.001 A 
ENDBRANCH   4  13
ENDBRANCH   1   7
BRANCH   3  16
ATOM     16  C   UNL     1      -1.287   7.705  -0.714  0.00  0.00    +0.140 C 
BRANCH  16  17
ATOM     17  C   UNL     1      -0.920   9.151  -0.377  0.00  0.00    +0.136 C 
ATOM     18  C   UNL     1      -2.200  10.000  -0.245  0.00  0.00    +0.035 C 
ATOM     19  C   UNL     1      -2.135  10.563   1.196  0.00  0.00    +0.031 C 
ATOM     20  C   UNL     1      -0.625  10.440   1.525  0.00  0.00    +0.160 C 
ATOM     21  O   UNL     1      -0.242   9.201   0.890  0.00  0.00    -0.375 OA
ENDBRANCH  16  17
ENDBRANCH   3  16
BRANCH   3  22
ATOM     22  C   UNL     1       0.110   5.901   0.397  0.00  0.00    +0.193 C 
BRANCH  22  23
ATOM     23  C   UNL     1      -0.708   4.668   0.111  0.00  0.00    -0.018 A 
ATOM     24  C   UNL     1      -0.137   3.415   0.240  0.00  0.00    +0.009 A 
ATOM     25  C   UNL     1      -0.886   2.284  -0.022  0.00  0.00    +0.038 A 
ATOM     26  C   UNL     1      -2.208   2.405  -0.415  0.00  0.00    +0.123 A 
ATOM     27  C   UNL     1      -2.777   3.660  -0.549  0.00  0.00    +0.038 A 
ATOM     28  C   UNL     1      -2.028   4.790  -0.281  0.00  0.00    +0.009 A 
ATOM     29  F   UNL     1      -2.941   1.299  -0.672  0.00  0.00    -0.205 F 
ENDBRANCH  22  23
BRANCH  22  30
ATOM     30  C   UNL     1      -0.334   6.506   1.704  0.00  0.00    +0.238 C 
ATOM     31  O   UNL     1      -1.427   7.024   1.792  0.00  0.00    -0.273 OA
ATOM     32  N   UNL     1       0.484   6.471   2.775  0.00  0.00    -0.311 N 
ATOM     33  H   UNL     1       1.358   6.057   2.704  0.00  0.00    +0.149 HD
BRANCH  32  34
ATOM     34  C   UNL     1       0.052   7.059   4.045  0.00  0.00    +0.135 C 
BRANCH  34  35
ATOM     35  C   UNL     1       1.158   6.887   5.088  0.00  0.00    +0.135 C 
ATOM     36  C   UNL     1       0.677   7.387   6.469  0.00  0.00    +0.035 C 
ATOM     37  C   UNL     1       1.929   8.051   7.084  0.00  0.00    +0.031 C 
ATOM     38  C   UNL     1       3.018   7.873   6.003  0.00  0.00    +0.160 C 
ATOM     39  O   UNL     1       2.289   7.725   4.766  0.00  0.00    -0.375 OA
ENDBRANCH  34  35
ENDBRANCH  32  34
ENDBRANCH  22  30
ENDBRANCH   3  22
TORSDOF 9
