REMARK  Name = ZINC39899174
REMARK  10 active torsions:
REMARK  status: ('A' for Active; 'I' for Inactive)
REMARK    1  A    between atoms: C_1  and  O_2
REMARK    2  A    between atoms: O_2  and  C_3
REMARK    3  A    between atoms: C_6  and  C_9
REMARK    4  A    between atoms: C_9  and  C_10
REMARK    5  A    between atoms: C_10  and  N_11
REMARK    6  A    between atoms: C_12  and  C_30
REMARK    7  A    between atoms: C_15  and  C_22
REMARK    8  A    between atoms: C_27  and  O_28
REMARK    9  A    between atoms: C_33  and  S_36
REMARK   10  A    between atoms: S_36  and  C_37
REMARK                            x       y       z     vdW  Elec       q    Type
REMARK                         _______ _______ _______ _____ _____    ______ ____
ROOT
ATOM      1  N   UNL     1       2.249  -3.470   6.551  0.00  0.00    -0.285 N 
ATOM      2  C   UNL     1       2.394  -4.920   6.732  0.00  0.00    +0.141 C 
ATOM      3  C   UNL     1       3.151  -5.106   8.019  0.00  0.00    +0.035 A 
ATOM      4  C   UNL     1       3.713  -5.998   8.939  0.00  0.00    +0.102 A 
ATOM      5  N   UNL     1       4.256  -5.281   9.902  0.00  0.00    -0.173 NA
ATOM      6  N   UNL     1       4.094  -4.025   9.682  0.00  0.00    -0.272 N 
ATOM      7  H   UNL     1       4.413  -3.313  10.258  0.00  0.00    +0.189 HD
ATOM      8  C   UNL     1       3.408  -3.842   8.515  0.00  0.00    +0.126 A 
ATOM      9  C   UNL     1       2.845  -2.854   7.588  0.00  0.00    +0.265 C 
ATOM     10  O   UNL     1       2.907  -1.648   7.737  0.00  0.00    -0.268 OA
ENDROOT
BRANCH   4  11
ATOM     11  C   UNL     1       3.698  -7.479   8.847  0.00  0.00    +0.045 A 
ATOM     12  C   UNL     1       3.088  -8.107   7.764  0.00  0.00    +0.033 A 
ATOM     13  C   UNL     1       3.078  -9.486   7.683  0.00  0.00    +0.042 A 
ATOM     14  C   UNL     1       3.671 -10.246   8.676  0.00  0.00    +0.023 A 
ATOM     15  C   UNL     1       4.279  -9.632   9.754  0.00  0.00    +0.047 A 
ATOM     16  C   UNL     1       4.301  -8.250   9.844  0.00  0.00    +0.126 A 
ATOM     17 CL   UNL     1       2.317 -10.268   6.332  0.00  0.00    -0.084 Cl
BRANCH  16  18
ATOM     18  O   UNL     1       4.904  -7.645  10.902  0.00  0.00    -0.506 OA
ATOM     19  H   UNL     1       4.316  -7.491  11.654  0.00  0.00    +0.292 HD
ENDBRANCH  16  18
ENDBRANCH   4  11
BRANCH   2  20
ATOM     20  C   UNL     1       3.169  -5.511   5.583  0.00  0.00    -0.022 A 
ATOM     21  C   UNL     1       4.261  -4.838   5.068  0.00  0.00    +0.007 A 
ATOM     22  C   UNL     1       4.973  -5.376   4.015  0.00  0.00    +0.015 A 
ATOM     23  C   UNL     1       4.591  -6.597   3.472  0.00  0.00    +0.008 A 
ATOM     24  C   UNL     1       3.493  -7.272   3.992  0.00  0.00    +0.015 A 
ATOM     25  C   UNL     1       2.789  -6.730   5.049  0.00  0.00    +0.007 A 
BRANCH  23  26
ATOM     26  S   UNL     1       5.496  -7.288   2.127  0.00  0.00    -0.129 S 
ATOM     27  C   UNL     1       4.638  -8.848   1.776  0.00  0.00    +0.090 C 
ENDBRANCH  23  26
ENDBRANCH   2  20
BRANCH   1  28
ATOM     28  C   UNL     1       1.577  -2.808   5.431  0.00  0.00    +0.114 C 
BRANCH  28  29
ATOM     29  C   UNL     1       2.587  -2.550   4.310  0.00  0.00    +0.054 C 
BRANCH  29  33
ATOM     30  C   UNL     1       0.626  -0.618   1.042  0.00  0.00    +0.120 A 
ATOM     31  C   UNL     1       1.202   0.138   2.051  0.00  0.00    +0.046 A 
ATOM     32  C   UNL     1       1.835  -0.488   3.107  0.00  0.00    +0.007 A 
ATOM     33  C   UNL     1       1.895  -1.869   3.158  0.00  0.00    -0.046 A 
ATOM     34  C   UNL     1       1.322  -2.625   2.152  0.00  0.00    +0.007 A 
ATOM     35  C   UNL     1       0.682  -2.003   1.098  0.00  0.00    +0.046 A 
BRANCH  30  37
ATOM     36  C   UNL     1      -0.017   1.425   0.010  0.00  0.00    +0.277 C 
ATOM     37  O   UNL     1       0.002  -0.004   0.002  0.00  0.00    -0.495 OA
ENDBRANCH  30  37
ENDBRANCH  29  33
ENDBRANCH  28  29
ENDBRANCH   1  28
TORSDOF 8
