REMARK  Name = ZINC18542105
REMARK  6 active torsions:
REMARK  status: ('A' for Active; 'I' for Inactive)
REMARK    1  A    between atoms: C_1  and  C_2
REMARK    2  A    between atoms: C_2  and  C_4
REMARK    3  A    between atoms: C_2  and  S_15
REMARK    4  A    between atoms: N_9  and  C_10
REMARK    5  A    between atoms: S_15  and  C_16
REMARK    6  A    between atoms: N_20  and  C_21
REMARK                            x       y       z     vdW  Elec       q    Type
REMARK                         _______ _______ _______ _____ _____    ______ ____
ROOT
ATOM      1  C   UNL     1       4.040   1.962   0.591  0.00  0.00    +0.198 A 
ATOM      2  N   UNL     1       4.043   3.240   0.302  0.00  0.00    -0.120 NA
ATOM      3  N   UNL     1       5.324   3.742   0.564  0.00  0.00    -0.112 NA
ATOM      4  C   UNL     1       6.065   2.755   1.005  0.00  0.00    +0.225 A 
ATOM      5  N   UNL     1       5.290   1.628   1.039  0.00  0.00    -0.259 N 
ATOM      6  N   UNL     1       7.400   2.840   1.378  0.00  0.00    -0.299 N 
ATOM      7  C   UNL     1       7.580   3.795   2.479  0.00  0.00    +0.108 C 
ATOM      8  C   UNL     1       9.033   3.755   2.959  0.00  0.00    +0.019 C 
ATOM      9  C   UNL     1       9.960   4.110   1.793  0.00  0.00    +0.003 C 
ATOM     10  C   UNL     1       9.719   3.130   0.642  0.00  0.00    +0.019 C 
ATOM     11  C   UNL     1       8.246   3.188   0.229  0.00  0.00    +0.108 C 
ENDROOT
BRANCH   5  12
ATOM     12  C   UNL     1       5.704   0.354   1.456  0.00  0.00    +0.052 A 
ATOM     13  C   UNL     1       6.042   0.133   2.785  0.00  0.00    +0.026 A 
ATOM     14  C   UNL     1       6.444  -1.123   3.194  0.00  0.00    +0.002 A 
ATOM     15  C   UNL     1       6.521  -2.158   2.280  0.00  0.00    +0.000 A 
ATOM     16  C   UNL     1       6.190  -1.939   0.955  0.00  0.00    +0.002 A 
ATOM     17  C   UNL     1       5.782  -0.686   0.541  0.00  0.00    +0.026 A 
ENDBRANCH   5  12
BRANCH   1  18
ATOM     18  S   UNL     1       2.668   0.867   0.437  0.00  0.00    -0.073 S 
BRANCH  18  20
ATOM     19  C   UNL     1       1.696   2.419  -1.595  0.00  0.00    +0.029 C 
ATOM     20  C   UNL     1       1.334   1.922  -0.194  0.00  0.00    +0.137 C 
BRANCH  20  21
ATOM     21  C   UNL     1       0.054   1.130  -0.258  0.00  0.00    +0.233 C 
ATOM     22  O   UNL     1       0.091  -0.082  -0.270  0.00  0.00    -0.274 OA
ATOM     23  N   UNL     1      -1.132   1.768  -0.307  0.00  0.00    -0.239 N 
ATOM     24  C   UNL     1      -2.277   1.059  -0.369  0.00  0.00    +0.306 C 
ATOM     25  O   UNL     1      -2.239  -0.156  -0.381  0.00  0.00    -0.252 OA
ATOM     26  N   UNL     1      -3.463   1.697  -0.419  0.00  0.00    -0.296 N 
ATOM     27  H   UNL     1      -1.162   2.737  -0.298  0.00  0.00    +0.159 HD
ATOM     28  H   UNL     1      -3.493   2.667  -0.409  0.00  0.00    +0.151 HD
BRANCH  26  29
ATOM     29  C   UNL     1      -4.707   0.927  -0.487  0.00  0.00    +0.074 C 
ATOM     30  C   UNL     1      -5.058   0.618  -1.957  0.00  0.00    +0.022 C 
ATOM     31  C   UNL     1      -6.602   0.729  -2.010  0.00  0.00    +0.002 C 
ATOM     32  C   UNL     1      -6.891   1.924  -1.067  0.00  0.00    +0.002 C 
ATOM     33  C   UNL     1      -5.872   1.757   0.079  0.00  0.00    +0.022 C 
ENDBRANCH  26  29
ENDBRANCH  20  21
ENDBRANCH  18  20
ENDBRANCH   1  18
TORSDOF 5
