REMARK  Name = ZINC40985841
REMARK  14 active torsions:
REMARK  status: ('A' for Active; 'I' for Inactive)
REMARK    1  A    between atoms: C_1  and  C_2
REMARK    2  A    between atoms: C_5  and  C_8
REMARK    3  A    between atoms: C_8  and  S_9
REMARK    4  A    between atoms: S_9  and  C_10
REMARK    5  A    between atoms: C_13  and  C_17
REMARK    6  A    between atoms: N_19  and  C_20
REMARK    7  A    between atoms: C_20  and  C_21
REMARK    8  A    between atoms: C_21  and  C_23
REMARK    9  A    between atoms: C_21  and  N_32
REMARK   10  A    between atoms: C_26  and  N_29
REMARK   11  A    between atoms: N_29  and  C_30
REMARK   12  A    between atoms: N_29  and  C_31
REMARK   13  A    between atoms: N_32  and  C_33
REMARK   14  A    between atoms: N_32  and  C_34
REMARK                            x       y       z     vdW  Elec       q    Type
REMARK                         _______ _______ _______ _____ _____    ______ ____
ROOT
ATOM      1  C   UNL     1       1.142 -10.633   0.062  0.00  0.00    +0.248 C 
ATOM      2  O   UNL     1       2.162 -11.275   0.227  0.00  0.00    -0.270 OA
ATOM      3  N   UNL     1      -0.046 -11.264  -0.020  0.00  0.00    -0.312 N 
ATOM      4  H   UNL     1      -0.859 -10.752  -0.151  0.00  0.00    +0.149 HD
ENDROOT
BRANCH   1   8
ATOM      5  C   UNL     1       1.319  -6.490  -0.242  0.00  0.00    +0.190 A 
ATOM      6  N   UNL     1       0.140  -7.094  -0.327  0.00  0.00    -0.229 NA
ATOM      7  C   UNL     1       0.041  -8.406  -0.235  0.00  0.00    +0.129 A 
ATOM      8  C   UNL     1       1.205  -9.164  -0.046  0.00  0.00    +0.092 A 
ATOM      9  C   UNL     1       2.432  -8.487   0.038  0.00  0.00    +0.146 A 
ATOM     10  N   UNL     1       2.445  -7.171  -0.069  0.00  0.00    -0.209 NA
ATOM     11 CL   UNL     1       3.909  -9.368   0.273  0.00  0.00    -0.061 Cl
BRANCH   5  12
ATOM     12  S   UNL     1       1.393  -4.734  -0.371  0.00  0.00    -0.081 S 
BRANCH  12  13
ATOM     13  C   UNL     1      -0.338  -4.238  -0.595  0.00  0.00    +0.112 C 
BRANCH  13  18
ATOM     14  C   UNL     1      -0.648   1.512  -1.077  0.00  0.00    +0.044 C 
ATOM     15  C   UNL     1      -0.567   0.013  -0.951  0.00  0.00    -0.050 A 
ATOM     16  C   UNL     1      -0.402  -0.768  -2.080  0.00  0.00    +0.003 A 
ATOM     17  C   UNL     1      -0.328  -2.143  -1.965  0.00  0.00    +0.005 A 
ATOM     18  C   UNL     1      -0.418  -2.739  -0.721  0.00  0.00    -0.037 A 
ATOM     19  C   UNL     1      -0.582  -1.958   0.409  0.00  0.00    +0.005 A 
ATOM     20  C   UNL     1      -0.652  -0.582   0.294  0.00  0.00    +0.003 A 
ENDBRANCH  13  18
ENDBRANCH  12  13
ENDBRANCH   5  12
ENDBRANCH   1   8
BRANCH   3  21
ATOM     21  C   UNL     1      -0.108 -12.724   0.087  0.00  0.00    +0.094 C 
BRANCH  21  22
ATOM     22  C   UNL     1      -1.571 -13.174   0.074  0.00  0.00    -0.021 C 
BRANCH  22  23
ATOM     23  C   UNL     1      -2.189 -12.833  -1.257  0.00  0.00    -0.059 A 
ATOM     24  C   UNL     1      -1.968 -13.651  -2.350  0.00  0.00    +0.004 A 
ATOM     25  C   UNL     1      -2.534 -13.342  -3.572  0.00  0.00    +0.023 A 
ATOM     26  C   UNL     1      -3.325 -12.207  -3.701  0.00  0.00    +0.029 A 
ATOM     27  C   UNL     1      -3.545 -11.388  -2.602  0.00  0.00    +0.023 A 
ATOM     28  C   UNL     1      -2.981 -11.706  -1.382  0.00  0.00    +0.004 A 
BRANCH  26  29
ATOM     29  N   UNL     1      -3.898 -11.891  -4.936  0.00  0.00    -0.336 N 
ATOM     30  C   UNL     1      -3.665 -12.756  -6.095  0.00  0.00    +0.129 C 
ATOM     31  C   UNL     1      -4.732 -10.694  -5.071  0.00  0.00    +0.129 C 
ENDBRANCH  26  29
ENDBRANCH  22  23
BRANCH  22  32
ATOM     32  N   UNL     1      -1.638 -14.626   0.288  0.00  0.00    +0.382 N 
ATOM     33  C   UNL     1      -1.037 -14.958   1.586  0.00  0.00    -0.096 C 
ATOM     34  C   UNL     1      -3.042 -15.058   0.273  0.00  0.00    -0.096 C 
ATOM     35  H   UNL     1      -1.133 -15.098  -0.447  0.00  0.00    -0.082 HD
ENDBRANCH  22  32
ENDBRANCH  21  22
ENDBRANCH   3  21
TORSDOF 9
