REMARK  Name = ZINC63520770
REMARK  13 active torsions:
REMARK  status: ('A' for Active; 'I' for Inactive)
REMARK    1  A    between atoms: C_1  and  C_2
REMARK    2  A    between atoms: N_4  and  C_5
REMARK    3  A    between atoms: C_5  and  C_7
REMARK    4  A    between atoms: C_5  and  C_17
REMARK    5  A    between atoms: C_7  and  C_8
REMARK    6  A    between atoms: N_19  and  C_20
REMARK    7  A    between atoms: C_20  and  C_21
REMARK    8  A    between atoms: C_21  and  O_22
REMARK    9  A    between atoms: O_22  and  C_23
REMARK   10  A    between atoms: C_26  and  C_29
REMARK   11  A    between atoms: C_29  and  C_30
REMARK   12  A    between atoms: C_29  and  C_31
REMARK   13  A    between atoms: C_29  and  C_32
REMARK                            x       y       z     vdW  Elec       q    Type
REMARK                         _______ _______ _______ _____ _____    ______ ____
ROOT
ATOM      1  C   UNL     1       0.710  -2.986  -1.823  0.00  0.00    +0.234 C 
ATOM      2  O   UNL     1       1.550  -2.401  -2.473  0.00  0.00    -0.274 OA
ATOM      3  N   UNL     1       0.336  -4.233  -2.170  0.00  0.00    -0.311 N 
ATOM      4  H   UNL     1      -0.336  -4.701  -1.651  0.00  0.00    +0.149 HD
ENDROOT
BRANCH   1   5
ATOM      5  C   UNL     1       0.082  -2.317  -0.627  0.00  0.00    +0.163 C 
BRANCH   5   9
ATOM      6  C   UNL     1       1.701   1.143  -0.873  0.00  0.00    +0.109 C 
ATOM      7  C   UNL     1       1.510  -0.348  -0.773  0.00  0.00    +0.211 C 
ATOM      8  O   UNL     1       2.476  -1.082  -0.735  0.00  0.00    -0.276 OA
ATOM      9  N   UNL     1       0.268  -0.867  -0.725  0.00  0.00    -0.304 N 
ATOM     10  H   UNL     1      -0.504  -0.281  -0.755  0.00  0.00    +0.149 HD
ENDBRANCH   5   9
BRANCH   5  11
ATOM     11  C   UNL     1       0.747  -2.831   0.652  0.00  0.00    +0.065 C 
BRANCH  11  12
ATOM     12  C   UNL     1       0.039  -2.257   1.852  0.00  0.00    -0.039 C 
ATOM     13  C   UNL     1      -0.949  -2.839   2.569  0.00  0.00    -0.001 A 
ATOM     14  C   UNL     1      -1.635  -4.131   2.450  0.00  0.00    +0.010 A 
ATOM     15  C   UNL     1      -2.608  -4.441   3.336  0.00  0.00    +0.001 A 
ATOM     16  C   UNL     1      -2.977  -3.562   4.364  0.00  0.00    +0.002 A 
ATOM     17  C   UNL     1      -2.393  -2.358   4.537  0.00  0.00    +0.026 A 
ATOM     18  C   UNL     1      -1.357  -1.929   3.663  0.00  0.00    +0.043 A 
ATOM     19  N   UNL     1      -0.648  -0.826   3.623  0.00  0.00    -0.380 N 
ATOM     20  C   UNL     1       0.295  -0.916   2.503  0.00  0.00    +0.144 C 
ATOM     21  H   UNL     1      -0.730  -0.078   4.236  0.00  0.00    +0.160 HD
ENDBRANCH  11  12
ENDBRANCH   5  11
ENDBRANCH   1   5
BRANCH   3  22
ATOM     22  C   UNL     1       0.946  -4.883  -3.333  0.00  0.00    +0.145 C 
BRANCH  22  23
ATOM     23  C   UNL     1       0.351  -6.282  -3.506  0.00  0.00    +0.247 C 
BRANCH  23  24
ATOM     24  O   UNL     1      -1.039  -6.172  -3.820  0.00  0.00    -0.490 OA
BRANCH  24  25
ATOM     25  C   UNL     1      -1.723  -7.332  -4.007  0.00  0.00    +0.121 A 
ATOM     26  C   UNL     1      -1.071  -8.550  -3.885  0.00  0.00    +0.046 A 
ATOM     27  C   UNL     1      -1.768  -9.727  -4.075  0.00  0.00    +0.008 A 
ATOM     28  C   UNL     1      -3.114  -9.692  -4.387  0.00  0.00    -0.037 A 
ATOM     29  C   UNL     1      -3.766  -8.479  -4.510  0.00  0.00    +0.008 A 
ATOM     30  C   UNL     1      -3.075  -7.299  -4.315  0.00  0.00    +0.046 A 
BRANCH  28  31
ATOM     31  C   UNL     1      -3.872 -10.978  -4.595  0.00  0.00    +0.015 C 
ATOM     32  C   UNL     1      -2.901 -12.158  -4.536  0.00  0.00    +0.021 C 
ATOM     33  C   UNL     1      -4.927 -11.131  -3.497  0.00  0.00    +0.021 C 
BRANCH  31  34
ATOM     34  C   UNL     1      -4.549 -10.951  -5.941  0.00  0.00    -0.037 A 
ATOM     35  C   UNL     1      -3.802 -10.744  -7.086  0.00  0.00    +0.004 A 
ATOM     36  C   UNL     1      -4.422 -10.719  -8.321  0.00  0.00    +0.000 A 
ATOM     37  C   UNL     1      -5.789 -10.902  -8.411  0.00  0.00    +0.000 A 
ATOM     38  C   UNL     1      -6.536 -11.110  -7.267  0.00  0.00    +0.000 A 
ATOM     39  C   UNL     1      -5.915 -11.139  -6.032  0.00  0.00    +0.004 A 
ENDBRANCH  31  34
ENDBRANCH  28  31
ENDBRANCH  24  25
ENDBRANCH  23  24
ENDBRANCH  22  23
ENDBRANCH   3  22
TORSDOF 10
