REMARK  Name = ZINC65171686
REMARK  3 active torsions:
REMARK  status: ('A' for Active; 'I' for Inactive)
REMARK    1  A    between atoms: N_12  and  C_15
REMARK    2  A    between atoms: C_15  and  C_16
REMARK    3  A    between atoms: C_16  and  O_22
REMARK                            x       y       z     vdW  Elec       q    Type
REMARK                         _______ _______ _______ _____ _____    ______ ____
ROOT
ATOM      1  C   UNL     1      -0.017   1.373   0.010  0.00  0.00    +0.001 A 
ATOM      2  C   UNL     1       1.173   2.087   0.002  0.00  0.00    +0.004 A 
ATOM      3  C   UNL     1       2.385   1.433  -0.013  0.00  0.00    +0.047 A 
ATOM      4  C   UNL     1       2.426   0.043  -0.021  0.00  0.00    +0.138 A 
ATOM      5  C   UNL     1       1.221  -0.678  -0.013  0.00  0.00    +0.046 A 
ATOM      6  C   UNL     1       0.002  -0.004   0.002  0.00  0.00    +0.014 A 
ATOM      7  C   UNL     1       1.607  -2.098  -0.025  0.00  0.00    +0.124 A 
ATOM      8  C   UNL     1       2.998  -2.111  -0.039  0.00  0.00    +0.218 A 
ATOM      9  O   UNL     1       3.448  -0.839  -0.037  0.00  0.00    -0.448 OA
ATOM     10  C   UNL     1       3.651  -3.364  -0.053  0.00  0.00    +0.297 A 
ATOM     11  O   UNL     1       4.869  -3.432  -0.066  0.00  0.00    -0.264 OA
ATOM     12  N   UNL     1       2.897  -4.484  -0.052  0.00  0.00    -0.293 N 
ATOM     13  C   UNL     1       1.544  -4.402  -0.038  0.00  0.00    +0.203 A 
ATOM     14  N   UNL     1       0.925  -3.254  -0.025  0.00  0.00    -0.233 NA
ENDROOT
BRANCH  12  15
ATOM     15  C   UNL     1       3.546  -5.797  -0.066  0.00  0.00    +0.161 C 
BRANCH  15  16
ATOM     16  C   UNL     1       3.786  -6.263   1.371  0.00  0.00    +0.084 C 
ATOM     17  C   UNL     1       2.448  -6.363   2.106  0.00  0.00    +0.036 C 
ATOM     18  C   UNL     1       2.688  -6.828   3.543  0.00  0.00    +0.003 C 
ATOM     19  C   UNL     1       3.365  -8.200   3.528  0.00  0.00    +0.000 C 
ATOM     20  C   UNL     1       4.704  -8.100   2.794  0.00  0.00    +0.003 C 
ATOM     21  C   UNL     1       4.464  -7.635   1.357  0.00  0.00    +0.036 C 
BRANCH  16  22
ATOM     22  O   UNL     1       4.628  -5.323   2.042  0.00  0.00    -0.387 OA
ATOM     23  H   UNL     1       4.261  -4.430   2.089  0.00  0.00    +0.210 HD
ENDBRANCH  16  22
ENDBRANCH  15  16
ENDBRANCH  12  15
TORSDOF 3
