REMARK  Name = ZINC64966102
REMARK  10 active torsions:
REMARK  status: ('A' for Active; 'I' for Inactive)
REMARK    1  A    between atoms: C_1  and  C_2
REMARK    2  A    between atoms: C_5  and  N_9
REMARK    3  A    between atoms: C_7  and  C_8
REMARK    4  A    between atoms: C_12  and  C_26
REMARK    5  A    between atoms: C_14  and  C_16
REMARK    6  A    between atoms: C_18  and  O_24
REMARK    7  A    between atoms: C_20  and  O_22
REMARK    8  A    between atoms: O_22  and  C_23
REMARK    9  A    between atoms: O_24  and  C_25
REMARK   10  A    between atoms: N_29  and  C_32
REMARK                            x       y       z     vdW  Elec       q    Type
REMARK                         _______ _______ _______ _____ _____    ______ ____
ROOT
ATOM      1  N   UNL     1       0.121  -4.198  -0.048  0.00  0.00    -0.245 N 
ATOM      2  C   UNL     1       0.277  -4.983  -1.177  0.00  0.00    +0.170 A 
ATOM      3  C   UNL     1       0.382  -6.314  -0.730  0.00  0.00    +0.120 A 
ATOM      4  C   UNL     1       0.548  -7.324  -1.678  0.00  0.00    +0.155 A 
ATOM      5  N   UNL     1       0.601  -6.987  -2.967  0.00  0.00    -0.220 NA
ATOM      6  C   UNL     1       0.499  -5.724  -3.345  0.00  0.00    +0.163 A 
ATOM      7  N   UNL     1       0.340  -4.734  -2.473  0.00  0.00    -0.208 NA
ATOM      8  N   UNL     1       0.285  -6.282   0.649  0.00  0.00    -0.291 N 
ATOM      9  C   UNL     1       0.134  -5.000   1.034  0.00  0.00    +0.336 A 
ATOM     10  O   UNL     1       0.024  -4.624   2.185  0.00  0.00    -0.246 OA
ATOM     11  C   UNL     1       0.343  -7.444   1.539  0.00  0.00    +0.154 C 
ENDROOT
BRANCH   1  16
ATOM     12  C   UNL     1      -0.454   1.448   0.014  0.00  0.00    +0.044 C 
ATOM     13  C   UNL     1      -0.301  -0.052  -0.003  0.00  0.00    -0.047 A 
ATOM     14  C   UNL     1      -0.158  -0.718  -1.206  0.00  0.00    +0.005 A 
ATOM     15  C   UNL     1      -0.017  -2.091  -1.224  0.00  0.00    +0.026 A 
ATOM     16  C   UNL     1      -0.021  -2.804  -0.033  0.00  0.00    +0.053 A 
ATOM     17  C   UNL     1      -0.165  -2.133   1.174  0.00  0.00    +0.030 A 
ATOM     18  C   UNL     1      -0.300  -0.758   1.186  0.00  0.00    -0.046 A 
ATOM     19  C   UNL     1      -0.451  -0.028   2.496  0.00  0.00    +0.044 C 
ENDBRANCH   1  16
BRANCH   6  20
ATOM     20  C   UNL     1       0.564  -5.401  -4.792  0.00  0.00    +0.026 A 
ATOM     21  C   UNL     1       0.464  -4.078  -5.216  0.00  0.00    +0.057 A 
ATOM     22  C   UNL     1       0.526  -3.779  -6.568  0.00  0.00    +0.124 A 
ATOM     23  C   UNL     1       0.686  -4.796  -7.498  0.00  0.00    +0.091 A 
ATOM     24  C   UNL     1       0.785  -6.114  -7.078  0.00  0.00    +0.124 A 
ATOM     25  C   UNL     1       0.731  -6.419  -5.727  0.00  0.00    +0.057 A 
BRANCH  24  26
ATOM     26  O   UNL     1       0.941  -7.108  -7.992  0.00  0.00    -0.495 OA
ATOM     27  C   UNL     1       0.995  -6.722  -9.367  0.00  0.00    +0.277 C 
ENDBRANCH  24  26
BRANCH  22  28
ATOM     28  O   UNL     1       0.429  -2.489  -6.983  0.00  0.00    -0.495 OA
ATOM     29  C   UNL     1       0.500  -2.253  -8.391  0.00  0.00    +0.277 C 
ENDBRANCH  22  28
ENDBRANCH   6  20
BRANCH   4  30
ATOM     30  C   UNL     1       0.664  -8.741  -1.261  0.00  0.00    +0.262 C 
ATOM     31  O   UNL     1       1.700  -9.147  -0.772  0.00  0.00    -0.269 OA
ATOM     32  N   UNL     1      -0.379  -9.579  -1.423  0.00  0.00    -0.324 N 
ATOM     33  H   UNL     1      -1.205  -9.254  -1.813  0.00  0.00    +0.145 HD
ATOM     34  H   UNL     1      -0.303 -10.506  -1.150  0.00  0.00    +0.145 HD
ENDBRANCH   4  30
TORSDOF 5
