REMARK  Name = ZINC14350944
REMARK  8 active torsions:
REMARK  status: ('A' for Active; 'I' for Inactive)
REMARK    1  A    between atoms: C_1  and  C_2
REMARK    2  A    between atoms: C_2  and  C_29
REMARK    3  A    between atoms: C_4  and  N_9
REMARK    4  A    between atoms: C_6  and  C_7
REMARK    5  A    between atoms: C_6  and  C_8
REMARK    6  A    between atoms: C_10  and  C_12
REMARK    7  A    between atoms: N_17  and  S_19
REMARK    8  A    between atoms: S_19  and  C_22
REMARK                            x       y       z     vdW  Elec       q    Type
REMARK                         _______ _______ _______ _____ _____    ______ ____
ROOT
ATOM      1  N   UNL     1      -0.055   1.087  -2.435  0.00  0.00    -0.312 N 
ATOM      2  C   UNL     1      -0.159   1.753  -3.602  0.00  0.00    +0.218 C 
ATOM      3  O   UNL     1      -0.817   2.770  -3.664  0.00  0.00    -0.275 OA
ATOM      4  H   UNL     1       0.472   0.274  -2.386  0.00  0.00    +0.149 HD
ENDROOT
BRANCH   1   8
ATOM      5  C   UNL     1      -0.118   0.808   2.467  0.00  0.00    -0.010 C 
ATOM      6  C   UNL     1      -0.717   1.580   1.270  0.00  0.00    -0.072 C 
ATOM      7  C   UNL     1      -0.013   1.088   0.008  0.00  0.00    +0.009 C 
ATOM      8  C   UNL     1      -0.740   1.593  -1.238  0.00  0.00    +0.070 C 
ATOM      9  C   UNL     1      -2.172   1.059  -1.215  0.00  0.00    +0.009 C 
ATOM     10  C   UNL     1      -2.902   1.552   0.032  0.00  0.00    -0.072 C 
ATOM     11  C   UNL     1      -3.274   3.030  -0.143  0.00  0.00    -0.010 C 
ATOM     12  C   UNL     1      -4.222   0.758   0.143  0.00  0.00    -0.010 C 
ATOM     13  C   UNL     1      -0.404   3.066   1.486  0.00  0.00    -0.010 C 
ATOM     14  N   UNL     1      -2.181   1.320   1.313  0.00  0.00    +0.386 N 
ATOM     15  H   UNL     1      -2.592   1.935   2.025  0.00  0.00    -0.084 HD
ATOM     16  H   UNL     1      -2.322   0.340   1.584  0.00  0.00    -0.084 HD
ENDBRANCH   1   8
BRANCH   2  17
ATOM     17  C   UNL     1       0.544   1.234  -4.830  0.00  0.00    +0.091 C 
ATOM     18  C   UNL     1       2.051   1.177  -4.571  0.00  0.00    +0.015 C 
ATOM     19  C   UNL     1       2.762   0.619  -5.806  0.00  0.00    +0.018 C 
ATOM     20  C   UNL     1       2.512   1.549  -6.997  0.00  0.00    +0.109 C 
ATOM     21  N   UNL     1       1.063   1.726  -7.164  0.00  0.00    -0.176 NA
ATOM     22  C   UNL     1       0.269   2.171  -6.011  0.00  0.00    +0.122 C 
BRANCH  21  23
ATOM     23  S   UNL     1       0.339   1.427  -8.623  0.00  0.00    +0.061 S 
ATOM     24  O   UNL     1      -0.863   2.185  -8.642  0.00  0.00    -0.153 OA
ATOM     25  O   UNL     1       1.347   1.572  -9.614  0.00  0.00    -0.153 OA
BRANCH  23  26
ATOM     26  C   UNL     1      -0.136  -0.270  -8.631  0.00  0.00    +0.106 A 
ATOM     27  C   UNL     1       0.738  -1.229  -9.107  0.00  0.00    +0.029 A 
ATOM     28  C   UNL     1       0.368  -2.561  -9.109  0.00  0.00    +0.017 A 
ATOM     29  C   UNL     1      -0.881  -2.932  -8.645  0.00  0.00    +0.018 A 
ATOM     30  C   UNL     1      -1.757  -1.971  -8.174  0.00  0.00    +0.017 A 
ATOM     31  C   UNL     1      -1.384  -0.640  -8.167  0.00  0.00    +0.029 A 
ATOM     32 BR   UNL     1      -1.391  -4.753  -8.654  0.00  0.00    -0.050 Br
ENDBRANCH  23  26
ENDBRANCH  21  23
ENDBRANCH   2  17
TORSDOF 4
