REMARK  Name = ZINC13600807
REMARK  7 active torsions:
REMARK  status: ('A' for Active; 'I' for Inactive)
REMARK    1  A    between atoms: C_1  and  O_2
REMARK    2  A    between atoms: O_2  and  C_3
REMARK    3  A    between atoms: C_10  and  C_32
REMARK    4  A    between atoms: C_18  and  S_21
REMARK    5  A    between atoms: S_21  and  C_22
REMARK    6  A    between atoms: C_27  and  N_28
REMARK    7  A    between atoms: C_35  and  N_38
REMARK                            x       y       z     vdW  Elec       q    Type
REMARK                         _______ _______ _______ _____ _____    ______ ____
ROOT
ATOM      1  C   UNL     1       1.695   3.575   3.515  0.00  0.00    +0.141 A 
ATOM      2  C   UNL     1       2.505   2.596   4.059  0.00  0.00    +0.047 A 
ATOM      3  C   UNL     1       2.326   1.274   3.691  0.00  0.00    +0.004 A 
ATOM      4  C   UNL     1       1.342   0.937   2.785  0.00  0.00    +0.006 A 
ATOM      5  C   UNL     1       0.522   1.913   2.232  0.00  0.00    -0.018 A 
ATOM      6  C   UNL     1       0.696   3.235   2.597  0.00  0.00    +0.073 A 
ATOM      7  N   UNL     1      -0.096   4.264   2.081  0.00  0.00    -0.334 N 
ATOM      8  C   UNL     1      -0.676   3.925   0.781  0.00  0.00    +0.104 C 
ATOM      9  C   UNL     1      -1.487   2.634   0.912  0.00  0.00    +0.024 C 
ATOM     10  C   UNL     1      -0.525   1.477   1.249  0.00  0.00    +0.045 C 
ATOM     11  C   UNL     1       0.131   1.104  -0.092  0.00  0.00    +0.101 C 
ATOM     12  C   UNL     1      -0.811   1.608  -1.200  0.00  0.00    +0.070 C 
ATOM     13  C   UNL     1      -2.021   2.251  -0.491  0.00  0.00    +0.022 C 
ATOM     14 CL   UNL     1       1.739   1.905  -0.237  0.00  0.00    -0.120 Cl
ATOM     15  H   UNL     1      -0.813   4.532   2.738  0.00  0.00    +0.147 HD
ENDROOT
BRANCH   8  16
ATOM     16  C   UNL     1      -1.579   5.042   0.325  0.00  0.00    -0.027 A 
ATOM     17  C   UNL     1      -2.398   5.684   1.235  0.00  0.00    +0.008 A 
ATOM     18  C   UNL     1      -3.223   6.712   0.817  0.00  0.00    +0.033 A 
ATOM     19  C   UNL     1      -3.235   7.091  -0.512  0.00  0.00    +0.126 A 
ATOM     20  C   UNL     1      -2.420   6.447  -1.423  0.00  0.00    +0.033 A 
ATOM     21  C   UNL     1      -1.592   5.422  -1.004  0.00  0.00    +0.008 A 
BRANCH  19  22
ATOM     22  N   UNL     1      -4.122   8.189  -0.960  0.00  0.00    +0.056 N 
ATOM     23  O   UNL     1      -4.133   8.523  -2.131  0.00  0.00    -0.126 OA
ATOM     24  O   UNL     1      -4.841   8.757  -0.157  0.00  0.00    -0.126 OA
ENDBRANCH  19  22
ENDBRANCH   8  16
BRANCH   1  26
ATOM     25  C   UNL     1       2.907   5.154   4.817  0.00  0.00    +0.277 C 
ATOM     26  O   UNL     1       1.869   4.875   3.874  0.00  0.00    -0.493 OA
ENDBRANCH   1  26
BRANCH  12  27
ATOM     27  S   UNL     1      -1.360   0.219  -2.229  0.00  0.00    -0.118 S 
BRANCH  27  28
ATOM     28  C   UNL     1      -2.210   0.989  -3.567  0.00  0.00    +0.038 A 
ATOM     29  C   UNL     1      -2.214   2.373  -3.685  0.00  0.00    +0.017 A 
ATOM     30  C   UNL     1      -2.876   2.973  -4.737  0.00  0.00    +0.001 A 
ATOM     31  C   UNL     1      -3.545   2.198  -5.668  0.00  0.00    +0.002 A 
ATOM     32  C   UNL     1      -3.548   0.820  -5.550  0.00  0.00    +0.034 A 
ATOM     33  C   UNL     1      -2.883   0.213  -4.503  0.00  0.00    +0.140 A 
BRANCH  33  34
ATOM     34  N   UNL     1      -2.887  -1.262  -4.378  0.00  0.00    +0.058 N 
ATOM     35  O   UNL     1      -3.477  -1.941  -5.199  0.00  0.00    -0.126 OA
ATOM     36  O   UNL     1      -2.300  -1.796  -3.454  0.00  0.00    -0.126 OA
ENDBRANCH  33  34
ENDBRANCH  27  28
ENDBRANCH  12  27
TORSDOF 6
