REMARK  Name = ZINC33116544
REMARK  8 active torsions:
REMARK  status: ('A' for Active; 'I' for Inactive)
REMARK    1  A    between atoms: C_1  and  C_2
REMARK    2  A    between atoms: C_2  and  N_3
REMARK    3  A    between atoms: C_11  and  C_12
REMARK    4  A    between atoms: C_12  and  C_13
REMARK    5  A    between atoms: C_13  and  C_14
REMARK    6  A    between atoms: C_18  and  N_20
REMARK    7  A    between atoms: N_20  and  S_21
REMARK    8  A    between atoms: S_21  and  C_24
REMARK                            x       y       z     vdW  Elec       q    Type
REMARK                         _______ _______ _______ _____ _____    ______ ____
ROOT
ATOM      1  C   UNL     1      -0.612  -1.727  -4.436  0.00  0.00    -0.045 A 
ATOM      2  C   UNL     1      -1.481  -2.032  -5.468  0.00  0.00    +0.004 A 
ATOM      3  C   UNL     1      -1.081  -1.873  -6.782  0.00  0.00    +0.002 A 
ATOM      4  C   UNL     1       0.187  -1.407  -7.068  0.00  0.00    +0.027 A 
ATOM      5  C   UNL     1       1.062  -1.099  -6.035  0.00  0.00    +0.075 A 
ATOM      6  C   UNL     1       0.656  -1.256  -4.715  0.00  0.00    +0.030 A 
ENDROOT
BRANCH   1   7
ATOM      7  C   UNL     1      -1.051  -1.902  -3.005  0.00  0.00    +0.043 C 
BRANCH   7   8
ATOM      8  C   UNL     1      -1.700  -0.609  -2.508  0.00  0.00    +0.079 C 
BRANCH   8  17
ATOM      9  N   UNL     1      -1.372  -0.511   0.012  0.00  0.00    -0.328 N 
ATOM     10  C   UNL     1      -2.131  -0.795   1.130  0.00  0.00    +0.069 A 
ATOM     11  C   UNL     1      -1.906  -0.716   2.498  0.00  0.00    +0.028 A 
ATOM     12  C   UNL     1      -2.901  -1.086   3.377  0.00  0.00    +0.002 A 
ATOM     13  C   UNL     1      -4.125  -1.536   2.903  0.00  0.00    +0.002 A 
ATOM     14  C   UNL     1      -4.365  -1.621   1.561  0.00  0.00    +0.030 A 
ATOM     15  C   UNL     1      -3.371  -1.251   0.651  0.00  0.00    +0.089 A 
ATOM     16  N   UNL     1      -3.306  -1.222  -0.705  0.00  0.00    -0.232 NA
ATOM     17  C   UNL     1      -2.139  -0.784  -1.077  0.00  0.00    +0.111 A 
BRANCH   9  19
ATOM     18  C   UNL     1      -0.019   1.526   0.010  0.00  0.00    +0.027 C 
ATOM     19  C   UNL     1       0.002  -0.004   0.002  0.00  0.00    +0.120 C 
ENDBRANCH   9  19
ENDBRANCH   8  17
ENDBRANCH   7   8
ENDBRANCH   1   7
BRANCH   5  20
ATOM     20  N   UNL     1       2.346  -0.629  -6.321  0.00  0.00    -0.097 NA
BRANCH  20  21
ATOM     21  S   UNL     1       2.826  -0.437  -7.894  0.00  0.00    +0.098 S 
ATOM     22  O   UNL     1       2.878  -1.738  -8.464  0.00  0.00    -0.148 OA
ATOM     23  O   UNL     1       2.025   0.602  -8.439  0.00  0.00    -0.148 OA
BRANCH  21  24
ATOM     24  C   UNL     1       4.481   0.166  -7.864  0.00  0.00    +0.149 A 
ATOM     25  C   UNL     1       5.643  -0.531  -7.865  0.00  0.00    +0.038 A 
ATOM     26  C   UNL     1       6.840   0.160  -7.838  0.00  0.00    +0.025 A 
ATOM     27  C   UNL     1       6.815   1.516  -7.811  0.00  0.00    +0.057 A 
ATOM     28  S   UNL     1       5.062   1.854  -7.831  0.00  0.00    -0.061 S 
ATOM     29 BR   UNL     1       8.262   2.733  -7.770  0.00  0.00    -0.043 Br
ENDBRANCH  21  24
ENDBRANCH  20  21
ENDBRANCH   5  20
TORSDOF 7
