REMARK  Name = ZINC60361339
REMARK  5 active torsions:
REMARK  status: ('A' for Active; 'I' for Inactive)
REMARK    1  A    between atoms: C_1  and  C_2
REMARK    2  A    between atoms: C_2  and  C_4
REMARK    3  A    between atoms: C_2  and  N_14
REMARK    4  A    between atoms: N_10  and  C_11
REMARK    5  A    between atoms: N_10  and  C_12
REMARK                            x       y       z     vdW  Elec       q    Type
REMARK                         _______ _______ _______ _____ _____    ______ ____
ROOT
ATOM      1  N   UNL     1       0.814  -0.489   1.126  0.00  0.00    +0.392 N 
ATOM      2  C   UNL     1       2.129   0.152   1.079  0.00  0.00    -0.041 C 
ATOM      3  C   UNL     1       2.996  -0.443   0.006  0.00  0.00    -0.056 A 
ATOM      4  C   UNL     1       3.187   0.204  -1.197  0.00  0.00    +0.002 A 
ATOM      5  C   UNL     1       4.007  -0.358  -2.160  0.00  0.00    +0.000 A 
ATOM      6  C   UNL     1       4.640  -1.565  -1.925  0.00  0.00    +0.001 A 
ATOM      7  C   UNL     1       4.451  -2.226  -0.726  0.00  0.00    +0.009 A 
ATOM      8  C   UNL     1       3.621  -1.669   0.238  0.00  0.00    -0.016 A 
ATOM      9  C   UNL     1       3.346  -2.359   1.521  0.00  0.00    -0.016 A 
ATOM     10  C   UNL     1       4.367  -2.884   2.302  0.00  0.00    +0.009 A 
ATOM     11  C   UNL     1       4.061  -3.501   3.499  0.00  0.00    +0.001 A 
ATOM     12  C   UNL     1       2.744  -3.593   3.916  0.00  0.00    +0.000 A 
ATOM     13  C   UNL     1       1.724  -3.078   3.136  0.00  0.00    +0.002 A 
ATOM     14  C   UNL     1       2.017  -2.469   1.934  0.00  0.00    -0.056 A 
ATOM     15  C   UNL     1       0.927  -1.945   1.042  0.00  0.00    -0.041 C 
ATOM     16  H   UNL     1       0.358  -0.243   1.992  0.00  0.00    -0.080 HD
ENDROOT
BRANCH   1  18
ATOM     17  C   UNL     1      -0.217   1.504   0.144  0.00  0.00    -0.005 C 
ATOM     18  C   UNL     1       0.002  -0.004   0.002  0.00  0.00    -0.001 C 
BRANCH  18  19
ATOM     19  C   UNL     1      -1.331  -0.707   0.005  0.00  0.00    +0.123 A 
ATOM     20  N   UNL     1      -2.001  -0.845   1.135  0.00  0.00    -0.201 NA
ATOM     21  C   UNL     1      -3.179  -1.465   1.142  0.00  0.00    +0.217 A 
ATOM     22  N   UNL     1      -3.680  -1.946   0.009  0.00  0.00    -0.181 NA
ATOM     23  C   UNL     1      -3.003  -1.806  -1.125  0.00  0.00    +0.222 A 
ATOM     24  N   UNL     1      -1.829  -1.180  -1.124  0.00  0.00    -0.201 NA
ATOM     25  N   UNL     1      -3.520  -2.304  -2.304  0.00  0.00    -0.306 N 
ATOM     26  C   UNL     1      -4.815  -2.988  -2.305  0.00  0.00    +0.132 C 
ATOM     27  C   UNL     1      -2.773  -2.149  -3.555  0.00  0.00    +0.132 C 
ATOM     28  N   UNL     1      -3.878  -1.609   2.323  0.00  0.00    -0.327 N 
ATOM     29  H   UNL     1      -3.511  -1.258   3.149  0.00  0.00    +0.145 HD
ATOM     30  H   UNL     1      -4.736  -2.061   2.327  0.00  0.00    +0.145 HD
ENDBRANCH  18  19
ENDBRANCH   1  18
TORSDOF 2
