REMARK  Name = ZINC01322722
REMARK  6 active torsions:
REMARK  status: ('A' for Active; 'I' for Inactive)
REMARK    1  A    between atoms: C_1  and  N_51
REMARK    2  A    between atoms: C_8  and  O_28
REMARK    3  A    between atoms: C_10  and  C_12
REMARK    4  A    between atoms: N_17  and  C_20
REMARK    5  A    between atoms: C_18  and  O_19
REMARK    6  A    between atoms: O_28  and  C_29
REMARK                            x       y       z     vdW  Elec       q    Type
REMARK                         _______ _______ _______ _____ _____    ______ ____
ROOT
ATOM      1  C   UNL     1       2.347   2.942  -2.238  0.00  0.00    -0.095 C 
ATOM      2  C   UNL     1       2.848   4.964  -1.000  0.00  0.00    -0.073 C 
ATOM      3  C   UNL     1       3.511   5.438   0.293  0.00  0.00    +0.017 C 
ATOM      4  C   UNL     1       2.752   4.909   1.484  0.00  0.00    -0.040 A 
ATOM      5  C   UNL     1       2.967   5.502   2.719  0.00  0.00    +0.053 A 
ATOM      6  C   UNL     1       2.296   5.050   3.842  0.00  0.00    +0.170 A 
ATOM      7  C   UNL     1       1.399   3.992   3.730  0.00  0.00    +0.208 A 
ATOM      8  C   UNL     1       1.184   3.403   2.492  0.00  0.00    +0.167 A 
ATOM      9  C   UNL     1       1.861   3.864   1.367  0.00  0.00    -0.008 A 
ATOM     10  C   UNL     1       1.590   3.194   0.045  0.00  0.00    +0.007 C 
ATOM     11  O   UNL     1       0.872   3.733   4.963  0.00  0.00    -0.449 OA
ATOM     12  C   UNL     1       1.146   4.906   5.752  0.00  0.00    +0.467 C 
ATOM     13  O   UNL     1       2.331   5.455   5.145  0.00  0.00    -0.452 OA
ATOM     14  N   UNL     1       2.671   3.500  -0.907  0.00  0.00    +0.386 N 
ATOM     15  H   UNL     1       3.544   3.077  -0.571  0.00  0.00    -0.081 HD
ENDROOT
BRANCH  10  16
ATOM     16  C   UNL     1       1.527   1.702   0.247  0.00  0.00    +0.070 A 
ATOM     17  C   UNL     1       0.299   1.015   0.144  0.00  0.00    +0.279 A 
ATOM     18  O   UNL     1      -0.728   1.628  -0.112  0.00  0.00    -0.265 OA
ATOM     19  N   UNL     1       0.262  -0.313   0.327  0.00  0.00    -0.183 NA
ATOM     20  C   UNL     1       1.358  -0.989   0.603  0.00  0.00    +0.190 A 
ATOM     21  N   UNL     1       2.565  -0.361   0.711  0.00  0.00    -0.259 N 
ATOM     22  C   UNL     1       2.655   0.995   0.532  0.00  0.00    +0.207 A 
ATOM     23  S   UNL     1       1.265  -2.732   0.837  0.00  0.00    -0.010 SA
BRANCH  21  24
ATOM     24  C   UNL     1       3.715  -1.105   1.005  0.00  0.00    +0.052 A 
ATOM     25  C   UNL     1       4.736  -1.206   0.069  0.00  0.00    +0.027 A 
ATOM     26  C   UNL     1       5.871  -1.936   0.363  0.00  0.00    +0.017 A 
ATOM     27  C   UNL     1       5.986  -2.575   1.585  0.00  0.00    +0.018 A 
ATOM     28  C   UNL     1       4.968  -2.481   2.517  0.00  0.00    +0.017 A 
ATOM     29  C   UNL     1       3.833  -1.747   2.230  0.00  0.00    +0.027 A 
ATOM     30 BR   UNL     1       7.539  -3.579   1.982  0.00  0.00    -0.050 Br
ENDBRANCH  21  24
BRANCH  22  31
ATOM     31  O   UNL     1       3.847   1.622   0.643  0.00  0.00    -0.493 OA
ATOM     32  H   UNL     1       4.373   1.614  -0.168  0.00  0.00    +0.294 HD
ENDBRANCH  22  31
ENDBRANCH  10  16
BRANCH   8  33
ATOM     33  O   UNL     1       0.308   2.369   2.378  0.00  0.00    -0.491 OA
ATOM     34  C   UNL     1      -1.077   2.703   2.259  0.00  0.00    +0.277 C 
ENDBRANCH   8  33
TORSDOF 4
