REMARK  Name = ZINC22807631
REMARK  9 active torsions:
REMARK  status: ('A' for Active; 'I' for Inactive)
REMARK    1  A    between atoms: C_1  and  C_2
REMARK    2  A    between atoms: C_5  and  C_7
REMARK    3  A    between atoms: C_7  and  N_8
REMARK    4  A    between atoms: N_8  and  C_9
REMARK    5  A    between atoms: C_10  and  C_12
REMARK    6  A    between atoms: C_12  and  N_13
REMARK    7  A    between atoms: N_16  and  C_19
REMARK    8  A    between atoms: C_19  and  C_20
REMARK    9  A    between atoms: C_26  and  C_31
REMARK                            x       y       z     vdW  Elec       q    Type
REMARK                         _______ _______ _______ _____ _____    ______ ____
ROOT
ATOM      1  N   UNL     1       0.535  -5.897  -3.929  0.00  0.00    -0.298 NA
ATOM      2  C   UNL     1       0.676  -7.161  -3.192  0.00  0.00    +0.066 C 
ATOM      3  C   UNL     1      -0.400  -8.143  -3.661  0.00  0.00    -0.063 C 
ATOM      4  N   UNL     1      -0.254  -8.379  -5.103  0.00  0.00    +0.386 N 
ATOM      5  C   UNL     1      -0.422  -7.112  -5.827  0.00  0.00    -0.063 C 
ATOM      6  C   UNL     1       0.654  -6.121  -5.377  0.00  0.00    +0.066 C 
ATOM      7  H   UNL     1       0.663  -8.755  -5.291  0.00  0.00    -0.081 HD
ENDROOT
BRANCH   1   8
ATOM      8  C   UNL     1       1.516  -4.907  -3.467  0.00  0.00    +0.180 C 
BRANCH   8  11
ATOM      9  N   UNL     1       1.983  -3.620  -1.407  0.00  0.00    -0.296 N 
ATOM     10  C   UNL     1       3.123  -3.014  -2.100  0.00  0.00    +0.132 C 
ATOM     11  C   UNL     1       1.209  -4.521  -2.043  0.00  0.00    +0.230 C 
ATOM     12  O   UNL     1       0.265  -5.023  -1.470  0.00  0.00    -0.274 OA
BRANCH   9  13
ATOM     13  C   UNL     1       1.684  -3.245  -0.023  0.00  0.00    +0.181 C 
BRANCH  13  18
ATOM     14  C   UNL     1      -0.018   1.503   0.010  0.00  0.00    +0.086 C 
ATOM     15  C   UNL     1       0.002  -0.004   0.002  0.00  0.00    +0.102 A 
ATOM     16  C   UNL     1      -1.078  -0.805   0.003  0.00  0.00    +0.045 A 
ATOM     17  C   UNL     1      -0.601  -2.136  -0.007  0.00  0.00    +0.046 A 
ATOM     18  C   UNL     1       0.742  -2.069  -0.013  0.00  0.00    +0.122 A 
ATOM     19  O   UNL     1       1.102  -0.775  -0.013  0.00  0.00    -0.463 OA
ENDBRANCH  13  18
ENDBRANCH   9  13
ENDBRANCH   8  11
ENDBRANCH   1   8
BRANCH   4  20
ATOM     20  C   UNL     1      -1.276  -9.336  -5.549  0.00  0.00    -0.003 C 
BRANCH  20  21
ATOM     21  C   UNL     1      -1.051  -9.671  -7.000  0.00  0.00    +0.094 A 
ATOM     22  N   UNL     1      -1.890 -10.540  -7.622  0.00  0.00    -0.312 N 
ATOM     23  H   UNL     1      -2.623 -10.932  -7.123  0.00  0.00    +0.170 HD
ATOM     24  C   UNL     1      -1.724 -10.865  -8.918  0.00  0.00    +0.260 A 
ATOM     25  O   UNL     1      -2.485 -11.646  -9.462  0.00  0.00    -0.267 OA
ATOM     26  C   UNL     1      -0.640 -10.281  -9.646  0.00  0.00    +0.080 A 
ATOM     27  C   UNL     1      -0.256 -10.472 -11.041  0.00  0.00    +0.010 A 
ATOM     28  C   UNL     1       0.823  -9.802 -11.517  0.00  0.00    +0.057 A 
ATOM     29  S   UNL     1       1.386  -8.871 -10.105  0.00  0.00    -0.076 S 
ATOM     30  C   UNL     1       0.174  -9.396  -8.921  0.00  0.00    +0.116 A 
ATOM     31  N   UNL     1      -0.056  -9.118  -7.640  0.00  0.00    -0.229 NA
BRANCH  27  32
ATOM     32  C   UNL     1      -1.027 -11.378 -11.917  0.00  0.00    +0.021 A 
ATOM     33  C   UNL     1      -1.534 -11.145 -13.168  0.00  0.00    +0.016 A 
ATOM     34  C   UNL     1      -2.229 -12.154 -13.800  0.00  0.00    +0.008 A 
ATOM     35  C   UNL     1      -2.389 -13.343 -13.167  0.00  0.00    +0.046 A 
ATOM     36  S   UNL     1      -1.535 -13.065 -11.624  0.00  0.00    -0.097 S 
ENDBRANCH  27  32
ENDBRANCH  20  21
ENDBRANCH   4  20
TORSDOF 7
