REMARK  Name = ZINC36214720
REMARK  11 active torsions:
REMARK  status: ('A' for Active; 'I' for Inactive)
REMARK    1  A    between atoms: C_1  and  C_2
REMARK    2  A    between atoms: C_2  and  C_4
REMARK    3  A    between atoms: C_2  and  N_7
REMARK    4  A    between atoms: C_4  and  C_5
REMARK    5  A    between atoms: C_4  and  C_6
REMARK    6  A    between atoms: C_8  and  C_10
REMARK    7  A    between atoms: C_10  and  C_12
REMARK    8  A    between atoms: C_10  and  N_28
REMARK    9  A    between atoms: N_15  and  S_18
REMARK   10  A    between atoms: S_18  and  C_21
REMARK   11  A    between atoms: C_29  and  C_31
REMARK                            x       y       z     vdW  Elec       q    Type
REMARK                         _______ _______ _______ _____ _____    ______ ____
ROOT
ATOM      1  C   UNL     1      -3.426  -1.258  -1.185  0.00  0.00    +0.162 C 
ENDROOT
BRANCH   1   2
ATOM      2  C   UNL     1      -4.405  -0.370  -0.415  0.00  0.00    +0.021 C 
ATOM      3  C   UNL     1      -3.878  -0.142   1.004  0.00  0.00    +0.023 C 
ATOM      4  C   UNL     1      -4.844   0.775   1.761  0.00  0.00    +0.110 C 
ATOM      5  N   UNL     1      -6.192   0.194   1.704  0.00  0.00    -0.177 NA
ATOM      6  C   UNL     1      -6.758  -0.149   0.392  0.00  0.00    +0.110 C 
ATOM      7  C   UNL     1      -5.772  -1.056  -0.349  0.00  0.00    +0.023 C 
BRANCH   5   8
ATOM      8  S   UNL     1      -7.056  -0.071   3.092  0.00  0.00    +0.061 S 
ATOM      9  O   UNL     1      -7.995  -1.096   2.796  0.00  0.00    -0.153 OA
ATOM     10  O   UNL     1      -6.108  -0.187   4.144  0.00  0.00    -0.153 OA
BRANCH   8  11
ATOM     11  C   UNL     1      -7.989   1.389   3.412  0.00  0.00    +0.106 A 
ATOM     12  C   UNL     1      -7.446   2.401   4.180  0.00  0.00    +0.030 A 
ATOM     13  C   UNL     1      -8.177   3.547   4.431  0.00  0.00    +0.022 A 
ATOM     14  C   UNL     1      -9.453   3.680   3.913  0.00  0.00    +0.041 A 
ATOM     15  C   UNL     1      -9.996   2.667   3.144  0.00  0.00    +0.022 A 
ATOM     16  C   UNL     1      -9.261   1.524   2.889  0.00  0.00    +0.030 A 
ATOM     17 CL   UNL     1     -10.372   5.119   4.229  0.00  0.00    -0.084 Cl
ENDBRANCH   8  11
ENDBRANCH   5   8
ENDBRANCH   1   2
BRANCH   1  19
ATOM     18  N   UNL     1      -1.188  -0.849  -0.213  0.00  0.00    -0.311 N 
ATOM     19  C   UNL     1      -2.067  -0.607  -1.206  0.00  0.00    +0.234 C 
ATOM     20  O   UNL     1      -1.764   0.135  -2.116  0.00  0.00    -0.274 OA
ATOM     21  H   UNL     1      -1.455  -1.383   0.551  0.00  0.00    +0.149 HD
BRANCH  18  23
ATOM     22  C   UNL     1       0.179   1.125   0.250  0.00  0.00    +0.028 C 
ATOM     23  C   UNL     1       0.171  -0.307  -0.289  0.00  0.00    +0.072 C 
BRANCH  23  24
ATOM     24  C   UNL     1       1.113  -1.174   0.548  0.00  0.00    +0.003 C 
ATOM     25  C   UNL     1       1.105  -2.605   0.008  0.00  0.00    +0.009 C 
ATOM     26  C   UNL     1       2.532  -0.607   0.469  0.00  0.00    +0.009 C 
ENDBRANCH  23  24
ENDBRANCH  18  23
ENDBRANCH   1  19
BRANCH   1  27
ATOM     27  N   UNL     1      -3.904  -1.435  -2.559  0.00  0.00    -0.300 N 
ATOM     28  C   UNL     1      -3.536  -2.523  -3.265  0.00  0.00    +0.245 C 
ATOM     29  O   UNL     1      -2.808  -3.356  -2.763  0.00  0.00    -0.270 OA
ATOM     30  H   UNL     1      -4.485  -0.770  -2.959  0.00  0.00    +0.150 HD
BRANCH  28  31
ATOM     31  C   UNL     1      -4.019  -2.701  -4.651  0.00  0.00    +0.037 A 
ATOM     32  C   UNL     1      -4.850  -1.743  -5.233  0.00  0.00    +0.013 A 
ATOM     33  C   UNL     1      -5.296  -1.915  -6.527  0.00  0.00    +0.001 A 
ATOM     34  C   UNL     1      -4.922  -3.035  -7.248  0.00  0.00    +0.000 A 
ATOM     35  C   UNL     1      -4.098  -3.989  -6.677  0.00  0.00    +0.001 A 
ATOM     36  C   UNL     1      -3.640  -3.826  -5.386  0.00  0.00    +0.013 A 
ENDBRANCH  28  31
ENDBRANCH   1  27
TORSDOF 8
