REMARK  Name = ZINC14731401
REMARK  14 active torsions:
REMARK  status: ('A' for Active; 'I' for Inactive)
REMARK    1  A    between atoms: C_1  and  C_2
REMARK    2  A    between atoms: C_2  and  N_3
REMARK    3  A    between atoms: N_6  and  C_27
REMARK    4  A    between atoms: C_14  and  C_15
REMARK    5  A    between atoms: C_14  and  N_67
REMARK    6  A    between atoms: C_18  and  C_21
REMARK    7  A    between atoms: C_22  and  C_23
REMARK    8  A    between atoms: C_23  and  C_24
REMARK    9  A    between atoms: C_23  and  C_25
REMARK   10  A    between atoms: C_23  and  O_26
REMARK   11  A    between atoms: C_27  and  C_28
REMARK   12  A    between atoms: C_28  and  N_69
REMARK   13  A    between atoms: C_29  and  N_69
REMARK   14  A    between atoms: C_30  and  N_69
REMARK                            x       y       z     vdW  Elec       q    Type
REMARK                         _______ _______ _______ _____ _____    ______ ____
ROOT
ATOM      1  N   UNL     1       1.095   1.977   0.003  0.00  0.00    -0.271 N 
ATOM      2  C   UNL     1      -0.015   1.214  -0.021  0.00  0.00    +0.312 C 
ATOM      3  O   UNL     1       0.001  -0.001  -0.061  0.00  0.00    -0.252 OA
ATOM      4  N   UNL     1      -1.137   1.944  -0.002  0.00  0.00    -0.226 N 
ATOM      5  C   UNL     1      -0.869   3.266   0.045  0.00  0.00    +0.247 C 
ATOM      6  O   UNL     1      -1.668   4.176   0.075  0.00  0.00    -0.273 OA
ATOM      7  C   UNL     1       0.639   3.371   0.048  0.00  0.00    +0.112 C 
ATOM      8  C   UNL     1       1.123   4.133  -1.181  0.00  0.00    +0.017 C 
ATOM      9  C   UNL     1       2.649   4.248  -1.138  0.00  0.00    -0.076 C 
ATOM     10  C   UNL     1       2.651   4.170   1.286  0.00  0.00    -0.076 C 
ATOM     11  C   UNL     1       1.124   4.052   1.324  0.00  0.00    +0.017 C 
ATOM     12  N   UNL     1       3.040   4.960   0.098  0.00  0.00    +0.382 N 
ATOM     13  H   UNL     1       2.556   5.866   0.128  0.00  0.00    -0.081 HD
ENDROOT
BRANCH   1  15
ATOM     14  C   UNL     1       2.784   0.760   1.287  0.00  0.00    +0.024 C 
ATOM     15  C   UNL     1       2.483   1.508  -0.014  0.00  0.00    +0.107 C 
ENDBRANCH   1  15
BRANCH  12  16
ATOM     16  C   UNL     1       4.498   5.195   0.105  0.00  0.00    -0.043 C 
BRANCH  16  17
ATOM     17  C   UNL     1       4.836   6.178  -0.986  0.00  0.00    -0.064 A 
ATOM     18  C   UNL     1       5.165   5.719  -2.249  0.00  0.00    +0.003 A 
ATOM     19  C   UNL     1       5.470   6.614  -3.254  0.00  0.00    +0.017 A 
ATOM     20  C   UNL     1       5.457   7.985  -2.991  0.00  0.00    +0.025 A 
ATOM     21  C   UNL     1       5.130   8.441  -1.714  0.00  0.00    +0.017 A 
ATOM     22  C   UNL     1       4.821   7.536  -0.719  0.00  0.00    +0.003 A 
BRANCH  20  23
ATOM     23  C   UNL     1       5.777   8.919  -4.028  0.00  0.00    -0.063 C 
ATOM     24  C   UNL     1       6.040   9.685  -4.878  0.00  0.00    -0.063 C 
BRANCH  24  25
ATOM     25  C   UNL     1       6.370  10.645  -5.944  0.00  0.00    +0.121 C 
ATOM     26  C   UNL     1       6.687   9.886  -7.234  0.00  0.00    +0.055 C 
ATOM     27  C   UNL     1       5.177  11.574  -6.180  0.00  0.00    +0.055 C 
BRANCH  25  28
ATOM     28  O   UNL     1       7.506  11.418  -5.554  0.00  0.00    -0.377 OA
ATOM     29  H   UNL     1       8.301  10.893  -5.388  0.00  0.00    +0.211 HD
ENDBRANCH  25  28
ENDBRANCH  24  25
ENDBRANCH  20  23
ENDBRANCH  16  17
ENDBRANCH  12  16
BRANCH   4  30
ATOM     30  C   UNL     1      -2.488   1.379  -0.027  0.00  0.00    +0.099 C 
BRANCH  30  31
ATOM     31  C   UNL     1      -2.965   1.135   1.406  0.00  0.00    -0.060 C 
BRANCH  31  34
ATOM     32  C   UNL     1      -4.319  -0.773   0.781  0.00  0.00    -0.097 C 
ATOM     33  C   UNL     1      -4.904   0.540   2.729  0.00  0.00    -0.097 C 
ATOM     34  N   UNL     1      -4.336   0.585   1.365  0.00  0.00    +0.377 N 
ATOM     35  H   UNL     1      -4.922   1.192   0.780  0.00  0.00    -0.083 HD
ENDBRANCH  31  34
ENDBRANCH  30  31
ENDBRANCH   4  30
TORSDOF 9
