REMARK  Name = ZINC22880520
REMARK  5 active torsions:
REMARK  status: ('A' for Active; 'I' for Inactive)
REMARK    1  A    between atoms: C_1  and  C_2
REMARK    2  A    between atoms: C_3  and  C_22
REMARK    3  A    between atoms: C_8  and  C_10
REMARK    4  A    between atoms: N_18  and  C_21
REMARK    5  A    between atoms: C_22  and  C_23
REMARK                            x       y       z     vdW  Elec       q    Type
REMARK                         _______ _______ _______ _____ _____    ______ ____
ROOT
ATOM      1  C   UNL     1      -0.018   1.503   0.010  0.00  0.00    +0.066 C 
ATOM      2  C   UNL     1       0.002  -0.004   0.002  0.00  0.00    +0.051 A 
ATOM      3  C   UNL     1       0.006  -0.706  -1.158  0.00  0.00    +0.018 A 
ATOM      4  S   UNL     1       0.032  -2.379  -0.535  0.00  0.00    -0.056 S 
ATOM      5  C   UNL     1       0.035  -2.015   1.108  0.00  0.00    +0.165 A 
ATOM      6  N   UNL     1       0.023  -0.699   1.124  0.00  0.00    -0.230 NA
ATOM      7  N   UNL     1       0.052  -2.891   2.186  0.00  0.00    -0.261 N 
ATOM      8  C   UNL     1       0.052  -2.410   3.445  0.00  0.00    +0.250 C 
ATOM      9  O   UNL     1       0.036  -1.210   3.637  0.00  0.00    -0.270 OA
ATOM     10  H   UNL     1       0.064  -3.848   2.033  0.00  0.00    +0.157 HD
ENDROOT
BRANCH   8  11
ATOM     11  C   UNL     1       0.070  -3.343   4.593  0.00  0.00    +0.038 A 
ATOM     12  C   UNL     1       0.093  -4.720   4.371  0.00  0.00    +0.014 A 
ATOM     13  C   UNL     1       0.111  -5.600   5.439  0.00  0.00    +0.014 A 
ATOM     14  C   UNL     1       0.106  -5.112   6.736  0.00  0.00    +0.049 A 
ATOM     15  C   UNL     1       0.082  -3.721   6.968  0.00  0.00    +0.050 A 
ATOM     16  C   UNL     1       0.070  -2.842   5.899  0.00  0.00    +0.027 A 
ATOM     17  C   UNL     1       0.083  -3.555   8.437  0.00  0.00    +0.254 C 
ATOM     18  O   UNL     1       0.065  -2.496   9.030  0.00  0.00    -0.270 OA
ATOM     19  N   UNL     1       0.105  -4.774   9.007  0.00  0.00    -0.237 N 
ATOM     20  C   UNL     1       0.120  -5.744   8.075  0.00  0.00    +0.254 C 
ATOM     21  O   UNL     1       0.141  -6.938   8.295  0.00  0.00    -0.270 OA
ATOM     22  C   UNL     1       0.113  -5.013  10.452  0.00  0.00    +0.142 C 
ENDBRANCH   8  11
BRANCH   3  23
ATOM     23  C   UNL     1      -0.009  -0.210  -2.581  0.00  0.00    +0.079 C 
BRANCH  23  24
ATOM     24  C   UNL     1       1.407  -0.025  -3.063  0.00  0.00    -0.039 A 
ATOM     25  C   UNL     1       2.043   1.189  -2.885  0.00  0.00    +0.008 A 
ATOM     26  C   UNL     1       3.342   1.364  -3.324  0.00  0.00    +0.050 A 
ATOM     27  C   UNL     1       4.010   0.321  -3.946  0.00  0.00    +0.166 A 
ATOM     28  C   UNL     1       3.369  -0.902  -4.126  0.00  0.00    +0.166 A 
ATOM     29  C   UNL     1       2.069  -1.072  -3.678  0.00  0.00    +0.053 A 
ATOM     30  O   UNL     1       4.228  -1.756  -4.756  0.00  0.00    -0.453 OA
ATOM     31  C   UNL     1       5.253  -0.920  -5.325  0.00  0.00    +0.466 C 
ATOM     32  O   UNL     1       5.270   0.234  -4.463  0.00  0.00    -0.453 OA
ENDBRANCH  23  24
ENDBRANCH   3  23
TORSDOF 3
