REMARK  Name = ZINC38592208
REMARK  4 active torsions:
REMARK  status: ('A' for Active; 'I' for Inactive)
REMARK    1  A    between atoms: C_6  and  C_10
REMARK    2  A    between atoms: N_17  and  C_20
REMARK    3  A    between atoms: C_20  and  C_21
REMARK    4  A    between atoms: C_21  and  C_22
REMARK                            x       y       z     vdW  Elec       q    Type
REMARK                         _______ _______ _______ _____ _____    ______ ____
ROOT
ATOM      1  C   UNL     1       3.534  -2.776  -1.283  0.00  0.00    +0.037 C 
ATOM      2  C   UNL     1       4.385  -3.822  -1.184  0.00  0.00    +0.101 C 
ATOM      3  C   UNL     1       4.952  -4.475  -2.385  0.00  0.00    +0.276 C 
ATOM      4  O   UNL     1       4.635  -4.042  -3.621  0.00  0.00    -0.268 OA
ATOM      5  N   UNL     1       5.775  -5.492  -2.216  0.00  0.00    -0.123 NA
ATOM      6  C   UNL     1       6.107  -5.942  -1.006  0.00  0.00    +0.335 C 
ATOM      7  O   UNL     1       6.875  -6.885  -0.936  0.00  0.00    -0.250 OA
ATOM      8  N   UNL     1       5.646  -5.417   0.138  0.00  0.00    -0.220 N 
ATOM      9  C   UNL     1       4.798  -4.367   0.132  0.00  0.00    +0.259 C 
ATOM     10  O   UNL     1       4.384  -3.886   1.170  0.00  0.00    -0.269 OA
ENDROOT
BRANCH   1  16
ATOM     11  C   UNL     1      -0.139   1.251  -0.041  0.00  0.00    +0.002 A 
ATOM     12  C   UNL     1       1.022   1.946   0.343  0.00  0.00    +0.002 A 
ATOM     13  C   UNL     1       2.217   1.340   0.489  0.00  0.00    +0.027 A 
ATOM     14  C   UNL     1       2.333  -0.104   0.243  0.00  0.00    +0.060 A 
ATOM     15  N   UNL     1       3.333  -0.935   0.304  0.00  0.00    -0.360 N 
ATOM     16  C   UNL     1       2.824  -2.265  -0.056  0.00  0.00    +0.199 C 
ATOM     17  N   UNL     1       1.392  -2.098  -0.336  0.00  0.00    -0.360 N 
ATOM     18  C   UNL     1       1.104  -0.840  -0.163  0.00  0.00    +0.060 A 
ATOM     19  C   UNL     1      -0.143  -0.074  -0.290  0.00  0.00    +0.027 A 
ATOM     20  H   UNL     1       4.247  -0.717   0.544  0.00  0.00    +0.162 HD
ATOM     21  H   UNL     1       0.774  -2.796  -0.603  0.00  0.00    +0.162 HD
ENDBRANCH   1  16
BRANCH   8  22
ATOM     22  C   UNL     1       6.075  -5.990   1.417  0.00  0.00    +0.123 C 
BRANCH  22  23
ATOM     23  C   UNL     1       7.343  -5.278   1.894  0.00  0.00    +0.054 C 
BRANCH  23  24
ATOM     24  C   UNL     1       7.784  -5.867   3.210  0.00  0.00    -0.046 A 
ATOM     25  C   UNL     1       7.311  -5.338   4.396  0.00  0.00    +0.006 A 
ATOM     26  C   UNL     1       7.714  -5.877   5.603  0.00  0.00    +0.038 A 
ATOM     27  C   UNL     1       8.592  -6.947   5.623  0.00  0.00    +0.123 A 
ATOM     28  C   UNL     1       9.065  -7.476   4.434  0.00  0.00    +0.038 A 
ATOM     29  C   UNL     1       8.656  -6.939   3.229  0.00  0.00    +0.006 A 
ATOM     30  F   UNL     1       8.988  -7.475   6.803  0.00  0.00    -0.205 F 
ENDBRANCH  23  24
ENDBRANCH  22  23
ENDBRANCH   8  22
TORSDOF 4
