REMARK  Name = ZINC25157768
REMARK  14 active torsions:
REMARK  status: ('A' for Active; 'I' for Inactive)
REMARK    1  A    between atoms: C_1  and  C_2
REMARK    2  A    between atoms: C_2  and  O_4
REMARK    3  A    between atoms: O_4  and  C_5
REMARK    4  A    between atoms: C_5  and  C_6
REMARK    5  A    between atoms: C_9  and  C_11
REMARK    6  A    between atoms: C_17  and  O_23
REMARK    7  A    between atoms: O_23  and  C_24
REMARK    8  A    between atoms: C_28  and  C_30
REMARK    9  A    between atoms: C_30  and  O_31
REMARK   10  A    between atoms: O_31  and  C_32
REMARK   11  A    between atoms: C_35  and  C_38
REMARK   12  A    between atoms: C_38  and  C_39
REMARK   13  A    between atoms: C_38  and  C_40
REMARK   14  A    between atoms: C_38  and  C_41
REMARK                            x       y       z     vdW  Elec       q    Type
REMARK                         _______ _______ _______ _____ _____    ______ ____
ROOT
ATOM      1  C   UNL     1       2.338  -0.368  -0.694  0.00  0.00    +0.189 C 
ATOM      2  C   UNL     1       1.000  -0.811  -0.145  0.00  0.00    +0.049 A 
ATOM      3  C   UNL     1      -0.003   0.044   0.153  0.00  0.00    -0.015 A 
ATOM      4  C   UNL     1      -1.103  -0.753   0.656  0.00  0.00    +0.007 A 
ATOM      5  C   UNL     1      -2.382  -0.419   1.113  0.00  0.00    +0.056 A 
ATOM      6  C   UNL     1      -3.190  -1.468   1.528  0.00  0.00    +0.121 A 
ATOM      7  C   UNL     1      -2.755  -2.787   1.492  0.00  0.00    +0.047 A 
ATOM      8  C   UNL     1      -1.493  -3.135   1.043  0.00  0.00    +0.030 A 
ATOM      9  C   UNL     1      -0.661  -2.100   0.621  0.00  0.00    +0.047 A 
ATOM     10  N   UNL     1       0.615  -2.096   0.130  0.00  0.00    -0.356 N 
ATOM     11  H   UNL     1       1.309  -2.929  -0.054  0.00  0.00    +0.166 HD
ATOM     12  C   UNL     1       0.061   1.539  -0.024  0.00  0.00    +0.056 C 
ATOM     13  C   UNL     1       1.529   1.964  -0.153  0.00  0.00    +0.114 C 
ATOM     14  N   UNL     1       2.212   1.048  -1.079  0.00  0.00    -0.283 N 
ATOM     15  C   UNL     1       2.709   1.493  -2.250  0.00  0.00    +0.254 C 
ATOM     16  O   UNL     1       3.208   0.712  -3.033  0.00  0.00    -0.272 OA
ENDROOT
BRANCH   1  20
ATOM     17  C   UNL     1       2.577  -2.144  -3.876  0.00  0.00    +0.143 A 
ATOM     18  C   UNL     1       3.740  -2.535  -3.325  0.00  0.00    +0.048 A 
ATOM     19  C   UNL     1       3.818  -1.921  -2.054  0.00  0.00    +0.047 A 
ATOM     20  C   UNL     1       2.695  -1.197  -1.901  0.00  0.00    +0.132 A 
ATOM     21  O   UNL     1       1.948  -1.333  -3.009  0.00  0.00    -0.459 OA
BRANCH  17  22
ATOM     22  C   UNL     1       2.066  -2.546  -5.236  0.00  0.00    +0.306 C 
BRANCH  22  23
ATOM     23  O   UNL     1       1.274  -3.757  -5.117  0.00  0.00    -0.457 OA
BRANCH  23  25
ATOM     24  C   UNL     1      -0.091  -5.505  -6.200  0.00  0.00    +0.136 C 
ATOM     25  C   UNL     1       0.743  -4.251  -6.246  0.00  0.00    +0.304 C 
ATOM     26  O   UNL     1       0.933  -3.690  -7.299  0.00  0.00    -0.251 OA
ENDBRANCH  23  25
ENDBRANCH  22  23
ENDBRANCH  17  22
ENDBRANCH   1  20
BRANCH   6  27
ATOM     27  O   UNL     1      -4.444  -1.197   1.982  0.00  0.00    -0.495 OA
ATOM     28  C   UNL     1      -5.237  -2.310   2.398  0.00  0.00    +0.277 C 
ENDBRANCH   6  27
BRANCH  15  29
ATOM     29  C   UNL     1       2.645   2.960  -2.587  0.00  0.00    +0.324 C 
BRANCH  29  30
ATOM     30  O   UNL     1       3.232   3.180  -3.871  0.00  0.00    -0.483 OA
BRANCH  30  31
ATOM     31  C   UNL     1       3.255   4.460  -4.328  0.00  0.00    +0.121 A 
ATOM     32  C   UNL     1       2.719   5.482  -3.558  0.00  0.00    +0.046 A 
ATOM     33  C   UNL     1       2.748   6.783  -4.023  0.00  0.00    +0.008 A 
ATOM     34  C   UNL     1       3.302   7.065  -5.258  0.00  0.00    -0.042 A 
ATOM     35  C   UNL     1       3.832   6.047  -6.029  0.00  0.00    +0.008 A 
ATOM     36  C   UNL     1       3.810   4.745  -5.567  0.00  0.00    +0.046 A 
BRANCH  34  37
ATOM     37  C   UNL     1       3.328   8.484  -5.764  0.00  0.00    -0.013 C 
ATOM     38  C   UNL     1       2.549   8.571  -7.078  0.00  0.00    +0.015 C 
ATOM     39  C   UNL     1       2.685   9.407  -4.728  0.00  0.00    +0.015 C 
ATOM     40  C   UNL     1       4.777   8.915  -6.001  0.00  0.00    +0.015 C 
ENDBRANCH  34  37
ENDBRANCH  30  31
ENDBRANCH  29  30
ENDBRANCH  15  29
TORSDOF 9
