REMARK  Name = ZINC04567173
REMARK  7 active torsions:
REMARK  status: ('A' for Active; 'I' for Inactive)
REMARK    1  A    between atoms: C_1  and  C_2
REMARK    2  A    between atoms: C_5  and  C_9
REMARK    3  A    between atoms: C_6  and  C_8
REMARK    4  A    between atoms: C_14  and  C_15
REMARK    5  A    between atoms: C_18  and  C_22
REMARK    6  A    between atoms: C_20  and  C_21
REMARK    7  A    between atoms: C_25  and  N_53
REMARK                            x       y       z     vdW  Elec       q    Type
REMARK                         _______ _______ _______ _____ _____    ______ ____
ROOT
ATOM      1  C   UNL     1      -2.625   4.213  -0.287  0.00  0.00    +0.013 C 
ATOM      2  C   UNL     1      -3.679   3.381  -0.147  0.00  0.00    -0.016 C 
ATOM      3  C   UNL     1      -3.502   1.905   0.147  0.00  0.00    -0.039 C 
ATOM      4  C   UNL     1      -5.801   1.744   0.942  0.00  0.00    -0.039 C 
ATOM      5  C   UNL     1      -6.032   3.216   0.660  0.00  0.00    -0.016 C 
ATOM      6  C   UNL     1      -7.047   3.901   1.228  0.00  0.00    +0.013 C 
ATOM      7  C   UNL     1      -5.078   3.857  -0.276  0.00  0.00    +0.182 C 
ATOM      8  O   UNL     1      -5.415   4.705  -1.085  0.00  0.00    -0.287 OA
ATOM      9  C   UNL     1      -4.138   0.158   1.705  0.00  0.00    -0.095 C 
ATOM     10  N   UNL     1      -4.376   1.557   1.299  0.00  0.00    +0.383 N 
ATOM     11  H   UNL     1      -4.148   2.176   2.086  0.00  0.00    -0.081 HD
ENDROOT
BRANCH   1  16
ATOM     12  C   UNL     1       2.722   2.103  -0.281  0.00  0.00    +0.044 C 
ATOM     13  C   UNL     1       1.320   2.656  -0.283  0.00  0.00    -0.050 A 
ATOM     14  C   UNL     1       0.292   1.924  -0.852  0.00  0.00    +0.004 A 
ATOM     15  C   UNL     1      -0.992   2.426  -0.862  0.00  0.00    +0.008 A 
ATOM     16  C   UNL     1      -1.257   3.673  -0.286  0.00  0.00    -0.022 A 
ATOM     17  C   UNL     1      -0.212   4.406   0.287  0.00  0.00    -0.043 A 
ATOM     18  C   UNL     1       1.068   3.893   0.284  0.00  0.00    +0.007 A 
ATOM     19  C   UNL     1      -0.485   5.753   0.905  0.00  0.00    +0.044 C 
ENDBRANCH   1  16
BRANCH   6  20
ATOM     20  C   UNL     1      -8.058   3.191   2.027  0.00  0.00    -0.022 A 
ATOM     21  C   UNL     1      -8.531   1.942   1.613  0.00  0.00    +0.008 A 
ATOM     22  C   UNL     1      -9.474   1.280   2.370  0.00  0.00    +0.004 A 
ATOM     23  C   UNL     1      -9.962   1.855   3.531  0.00  0.00    -0.050 A 
ATOM     24  C   UNL     1      -9.503   3.094   3.944  0.00  0.00    +0.007 A 
ATOM     25  C   UNL     1      -8.556   3.765   3.201  0.00  0.00    -0.043 A 
ATOM     26  C   UNL     1      -8.057   5.114   3.653  0.00  0.00    +0.044 C 
ATOM     27  C   UNL     1     -10.998   1.128   4.349  0.00  0.00    +0.044 C 
ENDBRANCH   6  20
TORSDOF 2
