REMARK  Name = ZINC26533663
REMARK  13 active torsions:
REMARK  status: ('A' for Active; 'I' for Inactive)
REMARK    1  A    between atoms: C_1  and  C_2
REMARK    2  A    between atoms: C_2  and  C_3
REMARK    3  A    between atoms: C_3  and  C_4
REMARK    4  A    between atoms: C_4  and  C_5
REMARK    5  A    between atoms: C_5  and  C_7
REMARK    6  A    between atoms: C_5  and  C_9
REMARK    7  A    between atoms: C_7  and  C_8
REMARK    8  A    between atoms: C_9  and  N_10
REMARK    9  A    between atoms: C_14  and  C_15
REMARK   10  A    between atoms: C_16  and  N_27
REMARK   11  A    between atoms: C_21  and  C_26
REMARK   12  A    between atoms: C_29  and  C_36
REMARK   13  A    between atoms: C_32  and  C_35
REMARK                            x       y       z     vdW  Elec       q    Type
REMARK                         _______ _______ _______ _____ _____    ______ ____
ROOT
ATOM      1  C   UNL     1       5.505  -6.096   6.208  0.00  0.00    +0.081 A 
ATOM      2  C   UNL     1       6.804  -6.208   6.757  0.00  0.00    +0.136 A 
ATOM      3  N   UNL     1       6.949  -6.595   8.016  0.00  0.00    -0.214 NA
ATOM      4  C   UNL     1       5.899  -6.883   8.786  0.00  0.00    +0.142 A 
ATOM      5  C   UNL     1       6.115  -7.287  10.115  0.00  0.00    +0.047 A 
ATOM      6  C   UNL     1       5.048  -7.584  10.910  0.00  0.00    +0.008 A 
ATOM      7  C   UNL     1       3.750  -7.481  10.391  0.00  0.00    -0.034 A 
ATOM      8  C   UNL     1       3.561  -7.091   9.110  0.00  0.00    +0.099 A 
ATOM      9  N   UNL     1       4.622  -6.791   8.308  0.00  0.00    -0.267 N 
ATOM     10  C   UNL     1       4.397  -6.399   7.035  0.00  0.00    +0.267 A 
ATOM     11  O   UNL     1       3.260  -6.311   6.605  0.00  0.00    -0.267 OA
ATOM     12  C   UNL     1       2.564  -7.808  11.261  0.00  0.00    +0.045 C 
ENDROOT
BRANCH   1  17
ATOM     13  N   UNL     1       3.674  -2.791   3.338  0.00  0.00    -0.255 N 
ATOM     14  C   UNL     1       4.290  -3.960   3.341  0.00  0.00    +0.258 C 
ATOM     15  O   UNL     1       4.522  -4.549   2.300  0.00  0.00    -0.269 OA
ATOM     16  C   UNL     1       4.677  -4.512   4.596  0.00  0.00    +0.077 C 
ATOM     17  C   UNL     1       5.318  -5.686   4.867  0.00  0.00    +0.037 C 
ATOM     18  S   UNL     1       4.096  -3.248   5.718  0.00  0.00    -0.061 S 
ATOM     19  C   UNL     1       3.422  -2.135   4.493  0.00  0.00    +0.121 C 
ATOM     20  S   UNL     1       2.652  -0.624   4.724  0.00  0.00    -0.027 S 
BRANCH  13  21
ATOM     21  C   UNL     1       3.262  -2.195   2.065  0.00  0.00    +0.118 C 
BRANCH  21  22
ATOM     22  C   UNL     1       4.394  -1.321   1.522  0.00  0.00    +0.007 C 
BRANCH  22  23
ATOM     23  C   UNL     1       5.600  -2.200   1.185  0.00  0.00    +0.002 C 
ATOM     24  C   UNL     1       6.768  -1.315   0.743  0.00  0.00    +0.004 C 
ENDBRANCH  22  23
BRANCH  22  25
ATOM     25  C   UNL     1       3.920  -0.601   0.258  0.00  0.00    +0.005 C 
BRANCH  25  26
ATOM     26  C   UNL     1       2.796   0.374   0.617  0.00  0.00    +0.000 C 
BRANCH  26  28
ATOM     27  C   UNL     1       1.289   2.163  -0.260  0.00  0.00    +0.004 C 
ATOM     28  C   UNL     1       2.413   1.189  -0.620  0.00  0.00    -0.003 C 
ENDBRANCH  26  28
ENDBRANCH  25  26
ENDBRANCH  22  25
ENDBRANCH  21  22
ENDBRANCH  13  21
ENDBRANCH   1  17
BRANCH   2  29
ATOM     29  N   UNL     1       7.910  -5.918   5.988  0.00  0.00    -0.314 N 
ATOM     30  C   UNL     1       7.906  -4.766   5.076  0.00  0.00    +0.109 C 
ATOM     31  C   UNL     1       9.126  -3.891   5.383  0.00  0.00    +0.004 C 
ATOM     32  C   UNL     1      10.393  -4.746   5.311  0.00  0.00    +0.009 C 
ATOM     33  C   UNL     1      10.321  -5.858   6.360  0.00  0.00    +0.004 C 
ATOM     34  C   UNL     1       9.117  -6.752   6.069  0.00  0.00    +0.109 C 
ATOM     35  C   UNL     1      11.603  -6.691   6.310  0.00  0.00    +0.009 C 
ATOM     36  C   UNL     1       9.213  -2.760   4.357  0.00  0.00    +0.009 C 
ENDBRANCH   2  29
TORSDOF 8
