REMARK  Name = ZINC66178506
REMARK  9 active torsions:
REMARK  status: ('A' for Active; 'I' for Inactive)
REMARK    1  A    between atoms: C_1  and  C_2
REMARK    2  A    between atoms: C_5  and  C_30
REMARK    3  A    between atoms: N_8  and  C_10
REMARK    4  A    between atoms: C_10  and  C_11
REMARK    5  A    between atoms: C_11  and  C_12
REMARK    6  A    between atoms: C_12  and  N_13
REMARK    7  A    between atoms: N_16  and  C_17
REMARK    8  A    between atoms: N_16  and  C_18
REMARK    9  A    between atoms: N_21  and  C_24
REMARK                            x       y       z     vdW  Elec       q    Type
REMARK                         _______ _______ _______ _____ _____    ______ ____
ROOT
ATOM      1  N   UNL     1       2.207   0.402   6.106  0.00  0.00    -0.299 N 
ATOM      2  C   UNL     1       2.669   0.154   7.348  0.00  0.00    +0.302 C 
ATOM      3  O   UNL     1       3.621  -0.587   7.506  0.00  0.00    -0.253 OA
ATOM      4  N   UNL     1       2.078   0.728   8.414  0.00  0.00    -0.286 N 
ATOM      5  C   UNL     1       0.932   1.621   8.224  0.00  0.00    +0.134 C 
ATOM      6  H   UNL     1       1.448   0.993   5.981  0.00  0.00    +0.150 HD
ENDROOT
BRANCH   4   7
ATOM      7  C   UNL     1       2.581   0.459   9.764  0.00  0.00    +0.074 C 
ATOM      8  C   UNL     1       1.469  -0.170  10.609  0.00  0.00    +0.004 C 
ATOM      9  C   UNL     1       1.976  -0.375  12.038  0.00  0.00    -0.077 C 
ATOM     10  N   UNL     1       2.359   0.919  12.615  0.00  0.00    +0.382 N 
ATOM     11  C   UNL     1       3.473   1.496  11.852  0.00  0.00    -0.077 C 
ATOM     12  C   UNL     1       3.023   1.772  10.416  0.00  0.00    +0.004 C 
ATOM     13  H   UNL     1       1.570   1.548  12.583  0.00  0.00    -0.081 HD
BRANCH  10  14
ATOM     14  C   UNL     1       2.771   0.728  14.012  0.00  0.00    -0.064 C 
ATOM     15  C   UNL     1       1.604   0.146  14.816  0.00  0.00    +0.013 C 
ATOM     16  C   UNL     1       2.017   0.024  16.285  0.00  0.00    +0.158 C 
ATOM     17  O   UNL     1       2.406   1.308  16.777  0.00  0.00    -0.380 OA
ATOM     18  C   UNL     1       3.523   1.880  16.095  0.00  0.00    +0.158 C 
ATOM     19  C   UNL     1       3.171   2.077  14.618  0.00  0.00    +0.013 C 
ENDBRANCH  10  14
ENDBRANCH   4   7
BRANCH   1  20
ATOM     20  C   UNL     1       2.850  -0.222   4.947  0.00  0.00    +0.104 C 
BRANCH  20  21
ATOM     21  C   UNL     1       2.136   0.221   3.668  0.00  0.00    +0.000 C 
BRANCH  21  22
ATOM     22  C   UNL     1       2.808  -0.431   2.458  0.00  0.00    -0.077 C 
BRANCH  22  28
ATOM     23  C   UNL     1      -0.019   1.526   0.010  0.00  0.00    +0.005 C 
ATOM     24  C   UNL     1       0.002  -0.004   0.002  0.00  0.00    -0.031 C 
ATOM     25  C   UNL     1       0.721  -0.499  -1.257  0.00  0.00    +0.003 C 
ATOM     26  C   UNL     1       2.177  -0.027  -1.220  0.00  0.00    -0.031 C 
ATOM     27  C   UNL     1       2.839  -0.534   0.063  0.00  0.00    -0.076 C 
ATOM     28  N   UNL     1       2.123  -0.005   1.230  0.00  0.00    +0.380 N 
ATOM     29  C   UNL     1       0.744  -0.512   1.240  0.00  0.00    -0.076 C 
ATOM     30  C   UNL     1       2.924  -0.581  -2.434  0.00  0.00    +0.005 C 
ATOM     31  H   UNL     1       2.109   1.003   1.187  0.00  0.00    -0.082 HD
ENDBRANCH  22  28
ENDBRANCH  21  22
ENDBRANCH  20  21
ENDBRANCH   1  20
TORSDOF 6
