REMARK  Name = ZINC16157831
REMARK  7 active torsions:
REMARK  status: ('A' for Active; 'I' for Inactive)
REMARK    1  A    between atoms: C_1  and  C_2
REMARK    2  A    between atoms: C_2  and  C_27
REMARK    3  A    between atoms: N_3  and  N_4
REMARK    4  A    between atoms: C_5  and  C_7
REMARK    5  A    between atoms: C_7  and  N_18
REMARK    6  A    between atoms: C_8  and  C_9
REMARK    7  A    between atoms: C_19  and  C_21
REMARK                            x       y       z     vdW  Elec       q    Type
REMARK                         _______ _______ _______ _____ _____    ______ ____
ROOT
ATOM      1  C   UNL     1      -2.598   0.858  -0.060  0.00  0.00    +0.098 C 
ATOM      2  C   UNL     1      -2.645  -0.480   0.141  0.00  0.00    +0.036 C 
ENDROOT
BRANCH   2   3
ATOM      3  C   UNL     1      -1.419  -1.214   0.487  0.00  0.00    -0.019 A 
ATOM      4  C   UNL     1      -0.182  -0.788  -0.008  0.00  0.00    +0.012 A 
ATOM      5  C   UNL     1       0.966  -1.475   0.322  0.00  0.00    +0.050 A 
ATOM      6  C   UNL     1       0.898  -2.598   1.137  0.00  0.00    +0.166 A 
ATOM      7  C   UNL     1      -0.333  -3.032   1.630  0.00  0.00    +0.167 A 
ATOM      8  C   UNL     1      -1.487  -2.345   1.308  0.00  0.00    +0.057 A 
ATOM      9  O   UNL     1      -0.127  -4.143   2.397  0.00  0.00    -0.453 OA
ATOM     10  C   UNL     1       1.280  -4.144   2.702  0.00  0.00    +0.466 C 
ATOM     11  O   UNL     1       1.871  -3.437   1.596  0.00  0.00    -0.453 OA
ENDBRANCH   2   3
BRANCH   1  13
ATOM     12  N   UNL     1      -0.984   1.821   1.495  0.00  0.00    -0.202 N 
ATOM     13  C   UNL     1      -1.363   1.600   0.220  0.00  0.00    +0.277 C 
ATOM     14  O   UNL     1      -0.681   2.017  -0.698  0.00  0.00    -0.267 OA
ATOM     15  H   UNL     1      -1.492   1.435   2.226  0.00  0.00    +0.178 HD
BRANCH  12  18
ATOM     16  C   UNL     1      -0.354   2.330   4.128  0.00  0.00    +0.068 C 
ATOM     17  C   UNL     1       0.455   2.898   2.990  0.00  0.00    +0.063 C 
ATOM     18  N   UNL     1       0.147   2.602   1.764  0.00  0.00    -0.184 NA
BRANCH  17  19
ATOM     19  C   UNL     1       1.596   3.789   3.269  0.00  0.00    -0.002 A 
ATOM     20  C   UNL     1       1.933   4.111   4.587  0.00  0.00    +0.010 A 
ATOM     21  C   UNL     1       2.999   4.946   4.831  0.00  0.00    +0.004 A 
ATOM     22  C   UNL     1       3.745   5.473   3.782  0.00  0.00    -0.044 A 
ATOM     23  C   UNL     1       3.421   5.155   2.481  0.00  0.00    -0.044 A 
ATOM     24  C   UNL     1       2.351   4.313   2.222  0.00  0.00    +0.013 A 
ATOM     25  C   UNL     1       4.195   5.684   1.301  0.00  0.00    +0.035 C 
ATOM     26  C   UNL     1       5.029   6.898   1.706  0.00  0.00    +0.005 C 
ATOM     27  C   UNL     1       5.846   6.529   2.950  0.00  0.00    +0.005 C 
ATOM     28  C   UNL     1       4.888   6.391   4.131  0.00  0.00    +0.035 C 
ENDBRANCH  17  19
ENDBRANCH  12  18
ENDBRANCH   1  13
BRANCH   1  29
ATOM     29  N   UNL     1      -3.728   1.534  -0.535  0.00  0.00    -0.277 N 
ATOM     30  C   UNL     1      -3.716   2.878  -0.635  0.00  0.00    +0.248 C 
ATOM     31  O   UNL     1      -2.696   3.496  -0.401  0.00  0.00    -0.270 OA
ATOM     32  H   UNL     1      -4.519   1.035  -0.792  0.00  0.00    +0.155 HD
BRANCH  30  33
ATOM     33  C   UNL     1      -4.944   3.600  -1.029  0.00  0.00    +0.037 A 
ATOM     34  C   UNL     1      -6.115   2.893  -1.304  0.00  0.00    +0.013 A 
ATOM     35  C   UNL     1      -7.260   3.573  -1.667  0.00  0.00    +0.001 A 
ATOM     36  C   UNL     1      -7.245   4.953  -1.768  0.00  0.00    +0.000 A 
ATOM     37  C   UNL     1      -6.085   5.660  -1.503  0.00  0.00    +0.001 A 
ATOM     38  C   UNL     1      -4.936   4.992  -1.134  0.00  0.00    +0.013 A 
ENDBRANCH  30  33
ENDBRANCH   1  29
TORSDOF 6
