REMARK  Name = ZINC08724004
REMARK  9 active torsions:
REMARK  status: ('A' for Active; 'I' for Inactive)
REMARK    1  A    between atoms: C_1  and  C_2
REMARK    2  A    between atoms: C_5  and  N_9
REMARK    3  A    between atoms: C_6  and  C_8
REMARK    4  A    between atoms: C_13  and  S_15
REMARK    5  A    between atoms: S_15  and  C_16
REMARK    6  A    between atoms: C_16  and  C_17
REMARK    7  A    between atoms: N_19  and  C_20
REMARK    8  A    between atoms: C_22  and  S_27
REMARK    9  A    between atoms: S_27  and  C_30
REMARK                            x       y       z     vdW  Elec       q    Type
REMARK                         _______ _______ _______ _____ _____    ______ ____
ROOT
ATOM      1  S   UNL     1      -0.833   1.223  -0.133  0.00  0.00    -0.088 S 
ENDROOT
BRANCH   1   6
ATOM      2  N   UNL     1       4.618   3.197  -0.208  0.00  0.00    -0.292 N 
ATOM      3  C   UNL     1       3.414   2.502  -0.195  0.00  0.00    +0.187 A 
ATOM      4  N   UNL     1       3.200   1.200  -0.209  0.00  0.00    -0.125 NA
ATOM      5  N   UNL     1       1.912   0.718  -0.186  0.00  0.00    -0.133 NA
ATOM      6  C   UNL     1       0.896   1.560  -0.161  0.00  0.00    +0.160 A 
ATOM      7  S   UNL     1       1.744   3.132  -0.154  0.00  0.00    -0.024 S 
ATOM      8  H   UNL     1       4.622   4.163  -0.120  0.00  0.00    +0.154 HD
BRANCH   2  13
ATOM      9  C   UNL     1       9.510   0.384  -0.776  0.00  0.00    +0.044 C 
ATOM     10  C   UNL     1       8.210   1.132  -0.625  0.00  0.00    -0.050 A 
ATOM     11  C   UNL     1       7.024   0.433  -0.493  0.00  0.00    +0.005 A 
ATOM     12  C   UNL     1       5.832   1.114  -0.350  0.00  0.00    +0.024 A 
ATOM     13  C   UNL     1       5.823   2.504  -0.348  0.00  0.00    +0.036 A 
ATOM     14  C   UNL     1       7.017   3.203  -0.480  0.00  0.00    -0.029 A 
ATOM     15  C   UNL     1       8.206   2.514  -0.619  0.00  0.00    +0.008 A 
ATOM     16  C   UNL     1       7.013   4.710  -0.473  0.00  0.00    +0.045 C 
ENDBRANCH   2  13
ENDBRANCH   1   6
BRANCH   1  17
ATOM     17  C   UNL     1      -0.927  -0.589  -0.157  0.00  0.00    +0.172 C 
BRANCH  17  18
ATOM     18  C   UNL     1      -2.372  -1.017  -0.136  0.00  0.00    +0.227 C 
ATOM     19  O   UNL     1      -3.251  -0.182  -0.108  0.00  0.00    -0.275 OA
ATOM     20  N   UNL     1      -2.687  -2.327  -0.149  0.00  0.00    -0.284 N 
ATOM     21  H   UNL     1      -1.987  -2.993  -0.232  0.00  0.00    +0.155 HD
BRANCH  20  22
ATOM     22  C   UNL     1      -4.024  -2.727  -0.042  0.00  0.00    +0.054 A 
ATOM     23  C   UNL     1      -5.029  -1.955  -0.611  0.00  0.00    +0.051 A 
ATOM     24  C   UNL     1      -6.347  -2.354  -0.507  0.00  0.00    +0.090 A 
ATOM     25  C   UNL     1      -6.668  -3.516   0.171  0.00  0.00    +0.028 A 
ATOM     26  C   UNL     1      -5.672  -4.284   0.743  0.00  0.00    +0.024 A 
ATOM     27  C   UNL     1      -4.350  -3.893   0.639  0.00  0.00    +0.062 A 
ATOM     28 CL   UNL     1      -3.099  -4.858   1.358  0.00  0.00    -0.082 Cl
BRANCH  24  29
ATOM     29  S   UNL     1      -7.621  -1.378  -1.235  0.00  0.00    -0.006 S 
ATOM     30  O   UNL     1      -6.985  -0.688  -2.302  0.00  0.00    -0.170 OA
ATOM     31  O   UNL     1      -8.677  -2.294  -1.491  0.00  0.00    -0.170 OA
ATOM     32  C   UNL     1      -8.110  -0.209   0.063  0.00  0.00    +0.200 C 
ENDBRANCH  24  29
ENDBRANCH  20  22
ENDBRANCH  17  18
ENDBRANCH   1  17
TORSDOF 6
