REMARK  Name = ZINC23858254
REMARK  10 active torsions:
REMARK  status: ('A' for Active; 'I' for Inactive)
REMARK    1  A    between atoms: C_1  and  C_2
REMARK    2  A    between atoms: C_4  and  C_11
REMARK    3  A    between atoms: C_7  and  N_8
REMARK    4  A    between atoms: N_13  and  C_14
REMARK    5  A    between atoms: C_14  and  C_15
REMARK    6  A    between atoms: C_15  and  C_17
REMARK    7  A    between atoms: C_15  and  N_28
REMARK    8  A    between atoms: N_26  and  C_27
REMARK    9  A    between atoms: N_28  and  C_29
REMARK   10  A    between atoms: N_28  and  C_30
REMARK                            x       y       z     vdW  Elec       q    Type
REMARK                         _______ _______ _______ _____ _____    ______ ____
ROOT
ATOM      1  C   UNL     1      -0.956   1.200  -2.773  0.00  0.00    -0.021 C 
ENDROOT
BRANCH   1   2
ATOM      2  C   UNL     1       0.104   0.478  -3.564  0.00  0.00    -0.059 A 
ATOM      3  C   UNL     1       0.839  -0.535  -2.975  0.00  0.00    +0.004 A 
ATOM      4  C   UNL     1       1.805  -1.196  -3.701  0.00  0.00    +0.023 A 
ATOM      5  C   UNL     1       2.058  -0.842  -5.028  0.00  0.00    +0.033 A 
ATOM      6  C   UNL     1       1.321   0.173  -5.612  0.00  0.00    -0.026 A 
ATOM      7  C   UNL     1       0.347   0.830  -4.876  0.00  0.00    +0.007 A 
ATOM      8  C   UNL     1       1.537   0.596  -7.043  0.00  0.00    +0.038 C 
ATOM      9  C   UNL     1       2.871   0.042  -7.548  0.00  0.00    +0.024 C 
ATOM     10  C   UNL     1       2.944  -1.440  -7.160  0.00  0.00    +0.105 C 
ATOM     11  N   UNL     1       3.059  -1.538  -5.704  0.00  0.00    -0.333 N 
ATOM     12  C   UNL     1       3.107  -2.942  -5.273  0.00  0.00    +0.129 C 
ENDBRANCH   1   2
BRANCH   1  13
ATOM     13  N   UNL     1      -2.137   0.337  -2.635  0.00  0.00    +0.382 N 
ATOM     14  C   UNL     1      -2.851   0.214  -3.912  0.00  0.00    -0.096 C 
ATOM     15  C   UNL     1      -1.766  -0.984  -2.110  0.00  0.00    -0.096 C 
ATOM     16  H   UNL     1      -2.818   0.809  -1.911  0.00  0.00    -0.082 HD
ENDBRANCH   1  13
BRANCH   1  17
ATOM     17  C   UNL     1      -0.411   1.544  -1.385  0.00  0.00    +0.094 C 
BRANCH  17  20
ATOM     18  C   UNL     1      -1.226   2.523   0.692  0.00  0.00    +0.244 C 
ATOM     19  O   UNL     1      -0.115   2.376   1.163  0.00  0.00    -0.270 OA
ATOM     20  N   UNL     1      -1.477   2.138  -0.575  0.00  0.00    -0.313 N 
ATOM     21  H   UNL     1      -2.483   2.271  -1.001  0.00  0.00    +0.149 HD
BRANCH  18  25
ATOM     22  C   UNL     1      -2.780   4.512   4.997  0.00  0.00    +0.046 C 
ATOM     23  C   UNL     1      -3.054   4.081   3.579  0.00  0.00    -0.020 A 
ATOM     24  C   UNL     1      -2.046   3.522   2.822  0.00  0.00    +0.018 A 
ATOM     25  C   UNL     1      -2.303   3.123   1.510  0.00  0.00    +0.037 A 
ATOM     26  C   UNL     1      -3.578   3.297   0.970  0.00  0.00    +0.015 A 
ATOM     27  C   UNL     1      -4.579   3.853   1.740  0.00  0.00    +0.034 A 
ATOM     28  C   UNL     1      -4.318   4.247   3.040  0.00  0.00    +0.129 A 
BRANCH  28  29
ATOM     29  N   UNL     1      -5.395   4.847   3.859  0.00  0.00    +0.057 N 
ATOM     30  O   UNL     1      -6.535   4.427   3.768  0.00  0.00    -0.126 OA
ATOM     31  O   UNL     1      -5.142   5.762   4.623  0.00  0.00    -0.126 OA
ENDBRANCH  28  29
ENDBRANCH  18  25
ENDBRANCH  17  20
ENDBRANCH   1  17
TORSDOF 6
