REMARK  Name = ZINC39007491
REMARK  9 active torsions:
REMARK  status: ('A' for Active; 'I' for Inactive)
REMARK    1  A    between atoms: C_1  and  C_2
REMARK    2  A    between atoms: C_2  and  C_3
REMARK    3  A    between atoms: C_2  and  O_4
REMARK    4  A    between atoms: O_4  and  C_5
REMARK    5  A    between atoms: C_9  and  C_11
REMARK    6  A    between atoms: N_17  and  N_18
REMARK    7  A    between atoms: C_19  and  C_20
REMARK    8  A    between atoms: C_25  and  O_26
REMARK    9  A    between atoms: O_26  and  C_27
REMARK                            x       y       z     vdW  Elec       q    Type
REMARK                         _______ _______ _______ _____ _____    ______ ____
ROOT
ATOM      1  C   UNL     1       4.920  -1.331  -3.448  0.00  0.00    +0.264 C 
ATOM      2  N   UNL     1       4.152  -2.267  -4.284  0.00  0.00    -0.189 NA
ATOM      3  N   UNL     1       4.784  -3.324  -4.357  0.00  0.00    -0.219 N 
ATOM      4  C   UNL     1       5.955  -3.302  -3.666  0.00  0.00    +0.174 C 
ATOM      5  S   UNL     1       7.060  -4.606  -3.567  0.00  0.00    -0.015 S 
ATOM      6  N   UNL     1       6.123  -2.097  -3.070  0.00  0.00    -0.172 N 
ATOM      7  H   UNL     1       4.475  -4.096  -4.857  0.00  0.00    +0.176 HD
ENDROOT
BRANCH   1  12
ATOM      8  C   UNL     1       2.030  -0.489  -1.165  0.00  0.00    +0.121 A 
ATOM      9  C   UNL     1       2.689  -0.237   0.030  0.00  0.00    +0.045 A 
ATOM     10  C   UNL     1       4.065  -0.340   0.094  0.00  0.00    +0.004 A 
ATOM     11  C   UNL     1       4.786  -0.695  -1.032  0.00  0.00    +0.007 A 
ATOM     12  C   UNL     1       4.132  -0.946  -2.223  0.00  0.00    +0.001 A 
ATOM     13  C   UNL     1       2.755  -0.850  -2.291  0.00  0.00    +0.053 A 
BRANCH   8  14
ATOM     14  O   UNL     1       0.676  -0.389  -1.230  0.00  0.00    -0.489 OA
BRANCH  14  16
ATOM     15  C   UNL     1       0.015   1.613  -0.049  0.00  0.00    +0.051 C 
ATOM     16  C   UNL     1       0.004   0.083  -0.061  0.00  0.00    +0.167 C 
ATOM     17  C   UNL     1      -1.442  -0.417  -0.067  0.00  0.00    +0.051 C 
ENDBRANCH  14  16
ENDBRANCH   8  14
ENDBRANCH   1  12
BRANCH   6  18
ATOM     18  N   UNL     1       7.194  -1.673  -2.273  0.00  0.00    -0.183 NA
ATOM     19  C   UNL     1       8.237  -2.433  -2.129  0.00  0.00    +0.142 C 
BRANCH  19  20
ATOM     20  C   UNL     1       9.410  -1.941  -1.385  0.00  0.00    +0.037 A 
ATOM     21  C   UNL     1      10.536  -2.754  -1.232  0.00  0.00    +0.028 A 
ATOM     22  C   UNL     1      11.631  -2.287  -0.534  0.00  0.00    +0.019 A 
ATOM     23  C   UNL     1      11.618  -1.016   0.016  0.00  0.00    +0.019 A 
ATOM     24  C   UNL     1      10.509  -0.203  -0.128  0.00  0.00    +0.047 A 
ATOM     25  C   UNL     1       9.403  -0.654  -0.830  0.00  0.00    +0.129 A 
ATOM     26 BR   UNL     1      13.155  -3.387  -0.328  0.00  0.00    -0.050 Br
BRANCH  25  27
ATOM     27  O   UNL     1       8.316   0.146  -0.977  0.00  0.00    -0.494 OA
ATOM     28  C   UNL     1       8.382   1.445  -0.384  0.00  0.00    +0.277 C 
ENDBRANCH  25  27
ENDBRANCH  19  20
ENDBRANCH   6  18
TORSDOF 6
