REMARK  Name = ZINC53364042
REMARK  11 active torsions:
REMARK  status: ('A' for Active; 'I' for Inactive)
REMARK    1  A    between atoms: C_1  and  C_2
REMARK    2  A    between atoms: C_2  and  C_3
REMARK    3  A    between atoms: C_6  and  C_9
REMARK    4  A    between atoms: C_11  and  C_27
REMARK    5  A    between atoms: C_14  and  C_17
REMARK    6  A    between atoms: C_21  and  O_24
REMARK    7  A    between atoms: C_22  and  O_23
REMARK    8  A    between atoms: O_24  and  C_25
REMARK    9  A    between atoms: C_25  and  C_26
REMARK   10  A    between atoms: C_30  and  O_34
REMARK   11  A    between atoms: O_34  and  C_35
REMARK                            x       y       z     vdW  Elec       q    Type
REMARK                         _______ _______ _______ _____ _____    ______ ____
ROOT
ATOM      1  C   UNL     1       2.695  -1.860  -4.731  0.00  0.00    +0.047 C 
ATOM      2  N   UNL     1       2.002  -2.057  -5.788  0.00  0.00    -0.264 NA
ATOM      3  C   UNL     1       2.553  -2.535  -7.050  0.00  0.00    +0.204 C 
ATOM      4  N   UNL     1       4.010  -2.357  -7.080  0.00  0.00    -0.284 NA
ATOM      5  C   UNL     1       4.617  -2.933  -5.868  0.00  0.00    +0.095 C 
ATOM      6  C   UNL     1       4.180  -2.085  -4.668  0.00  0.00    +0.079 C 
ATOM      7  H   UNL     1       4.407  -2.766  -7.913  0.00  0.00    +0.125 HD
ENDROOT
BRANCH   3   8
ATOM      8  C   UNL     1       2.229  -3.998  -7.211  0.00  0.00    -0.008 A 
ATOM      9  C   UNL     1       3.088  -4.822  -7.915  0.00  0.00    +0.010 A 
ATOM     10  C   UNL     1       2.793  -6.163  -8.065  0.00  0.00    +0.047 A 
ATOM     11  C   UNL     1       1.635  -6.684  -7.507  0.00  0.00    +0.134 A 
ATOM     12  C   UNL     1       0.774  -5.855  -6.801  0.00  0.00    +0.060 A 
ATOM     13  C   UNL     1       1.076  -4.515  -6.650  0.00  0.00    +0.026 A 
ATOM     14 BR   UNL     1      -0.807  -6.561  -6.040  0.00  0.00    -0.047 Br
BRANCH  11  15
ATOM     15  O   UNL     1       1.342  -8.003  -7.654  0.00  0.00    -0.494 OA
ATOM     16  C   UNL     1       2.273  -8.796  -8.393  0.00  0.00    +0.277 C 
ENDBRANCH  11  15
ENDBRANCH   3   8
BRANCH   1  20
ATOM     17  C   UNL     1       0.707  -0.490  -1.238  0.00  0.00    -0.048 A 
ATOM     18  C   UNL     1      -0.014  -0.718  -2.396  0.00  0.00    +0.004 A 
ATOM     19  C   UNL     1       0.625  -1.163  -3.535  0.00  0.00    +0.010 A 
ATOM     20  C   UNL     1       2.004  -1.383  -3.516  0.00  0.00    -0.004 A 
ATOM     21  C   UNL     1       2.726  -1.151  -2.344  0.00  0.00    +0.010 A 
ATOM     22  C   UNL     1       2.075  -0.701  -1.214  0.00  0.00    +0.004 A 
BRANCH  17  24
ATOM     23  C   UNL     1      -0.019   1.526   0.010  0.00  0.00    +0.009 C 
ATOM     24  C   UNL     1       0.002  -0.004   0.002  0.00  0.00    +0.032 C 
ENDBRANCH  17  24
ENDBRANCH   1  20
BRANCH   5  25
ATOM     25  C   UNL     1       6.119  -2.904  -5.989  0.00  0.00    +0.015 A 
ATOM     26  C   UNL     1       6.729  -1.971  -6.807  0.00  0.00    +0.009 A 
ATOM     27  C   UNL     1       8.106  -1.942  -6.920  0.00  0.00    +0.004 A 
ATOM     28  C   UNL     1       8.880  -2.846  -6.217  0.00  0.00    +0.049 A 
ATOM     29  C   UNL     1       8.276  -3.784  -5.397  0.00  0.00    +0.162 A 
ATOM     30  C   UNL     1       6.889  -3.810  -5.278  0.00  0.00    +0.163 A 
BRANCH  30  31
ATOM     31  O   UNL     1       6.291  -4.725  -4.469  0.00  0.00    -0.503 OA
ATOM     32  H   UNL     1       6.074  -5.558  -4.910  0.00  0.00    +0.292 HD
ENDBRANCH  30  31
BRANCH  29  33
ATOM     33  O   UNL     1       9.035  -4.675  -4.705  0.00  0.00    -0.489 OA
BRANCH  33  34
ATOM     34  C   UNL     1      10.452  -4.587  -4.871  0.00  0.00    +0.226 C 
ATOM     35  C   UNL     1      11.133  -5.661  -4.021  0.00  0.00    +0.048 C 
ENDBRANCH  33  34
ENDBRANCH  29  33
ENDBRANCH   5  25
TORSDOF 8
