REMARK  Name = ZINC14142041
REMARK  3 active torsions:
REMARK  status: ('A' for Active; 'I' for Inactive)
REMARK    1  A    between atoms: C_1  and  C_2
REMARK    2  A    between atoms: N_5  and  C_9
REMARK    3  A    between atoms: C_9  and  N_10
REMARK                            x       y       z     vdW  Elec       q    Type
REMARK                         _______ _______ _______ _____ _____    ______ ____
ROOT
ATOM      1  N   UNL     1       2.128   0.669   0.027  0.00  0.00    -0.211 N 
ATOM      2  C   UNL     1       1.453   1.833  -0.002  0.00  0.00    +0.248 C 
ATOM      3  O   UNL     1       1.914   2.954  -0.036  0.00  0.00    -0.273 OA
ATOM      4  C   UNL     1      -0.018   1.461   0.010  0.00  0.00    +0.113 C 
ATOM      5  C   UNL     1      -0.738   1.986   1.240  0.00  0.00    +0.035 C 
ATOM      6  C   UNL     1      -2.254   1.850   1.049  0.00  0.00    +0.003 C 
ATOM      7  C   UNL     1      -2.657   0.386   1.019  0.00  0.00    +0.000 C 
ATOM      8  C   UNL     1      -3.019  -0.155  -0.351  0.00  0.00    +0.000 C 
ATOM      9  C   UNL     1      -2.841   0.820  -1.500  0.00  0.00    +0.000 C 
ATOM     10  C   UNL     1      -1.387   0.858  -1.981  0.00  0.00    +0.003 C 
ATOM     11  C   UNL     1      -0.672   2.017  -1.264  0.00  0.00    +0.035 C 
ATOM     12  N   UNL     1       0.002  -0.004   0.002  0.00  0.00    -0.285 N 
ATOM     13  C   UNL     1       1.297  -0.379   0.022  0.00  0.00    +0.310 C 
ATOM     14  O   UNL     1       1.666  -1.536   0.032  0.00  0.00    -0.252 OA
ATOM     15  H   UNL     1      -0.943  -0.567  -0.017  0.00  0.00    +0.151 HD
ENDROOT
BRANCH   1  16
ATOM     16  C   UNL     1       3.590   0.563   0.054  0.00  0.00    +0.205 C 
BRANCH  16  20
ATOM     17  C   UNL     1       7.421   1.440  -2.907  0.00  0.00    +0.039 C 
ATOM     18  C   UNL     1       6.005   0.869  -2.820  0.00  0.00    +0.129 C 
ATOM     19  C   UNL     1       5.491   0.993  -1.383  0.00  0.00    +0.117 C 
ATOM     20  N   UNL     1       4.103   0.513  -1.321  0.00  0.00    -0.282 NA
ATOM     21  C   UNL     1       3.244   1.285  -2.232  0.00  0.00    +0.114 C 
ATOM     22  C   UNL     1       3.781   1.157  -3.660  0.00  0.00    +0.175 C 
ATOM     23  O   UNL     1       5.141   1.599  -3.695  0.00  0.00    -0.374 OA
ENDBRANCH  16  20
ENDBRANCH   1  16
TORSDOF 2
