REMARK  Name = ZINC09278364
REMARK  9 active torsions:
REMARK  status: ('A' for Active; 'I' for Inactive)
REMARK    1  A    between atoms: C_1  and  C_2
REMARK    2  A    between atoms: C_5  and  C_36
REMARK    3  A    between atoms: C_6  and  C_8
REMARK    4  A    between atoms: C_8  and  N_9
REMARK    5  A    between atoms: C_10  and  C_22
REMARK    6  A    between atoms: N_20  and  C_21
REMARK    7  A    between atoms: C_22  and  N_67
REMARK    8  A    between atoms: N_25  and  C_28
REMARK    9  A    between atoms: C_33  and  C_34
REMARK                            x       y       z     vdW  Elec       q    Type
REMARK                         _______ _______ _______ _____ _____    ______ ____
ROOT
ATOM      1  N   UNL     1       1.821   3.201   0.081  0.00  0.00    -0.319 N 
ATOM      2  C   UNL     1       0.503   3.482   0.104  0.00  0.00    +0.096 A 
ATOM      3  N   UNL     1      -0.185   2.382  -0.071  0.00  0.00    -0.216 NA
ATOM      4  C   UNL     1       0.645   1.345  -0.206  0.00  0.00    +0.168 A 
ATOM      5  C   UNL     1       1.940   1.840  -0.116  0.00  0.00    +0.152 A 
ATOM      6  C   UNL     1       3.027   0.947  -0.232  0.00  0.00    +0.280 A 
ATOM      7  O   UNL     1       4.172   1.356  -0.157  0.00  0.00    -0.265 OA
ATOM      8  N   UNL     1       2.783  -0.366  -0.427  0.00  0.00    -0.273 N 
ATOM      9  H   UNL     1       3.550  -1.003  -0.509  0.00  0.00    +0.173 HD
ATOM     10  C   UNL     1       1.525  -0.831  -0.511  0.00  0.00    +0.331 A 
ATOM     11  O   UNL     1       1.343  -2.021  -0.688  0.00  0.00    -0.246 OA
ATOM     12  N   UNL     1       0.460  -0.013  -0.406  0.00  0.00    -0.280 N 
ATOM     13  C   UNL     1      -0.895  -0.560  -0.504  0.00  0.00    +0.155 C 
ENDROOT
BRANCH   1  14
ATOM     14  C   UNL     1       2.919   4.158   0.236  0.00  0.00    +0.159 C 
BRANCH  14  20
ATOM     15  C   UNL     1       1.941   7.745   3.586  0.00  0.00    +0.044 C 
ATOM     16  C   UNL     1       2.482   6.378   3.259  0.00  0.00    -0.050 A 
ATOM     17  C   UNL     1       3.007   5.584   4.262  0.00  0.00    +0.003 A 
ATOM     18  C   UNL     1       3.504   4.330   3.962  0.00  0.00    +0.004 A 
ATOM     19  C   UNL     1       3.470   3.866   2.660  0.00  0.00    -0.046 A 
ATOM     20  C   UNL     1       2.950   4.661   1.656  0.00  0.00    -0.025 A 
ATOM     21  C   UNL     1       2.454   5.916   1.956  0.00  0.00    +0.009 A 
ATOM     22  C   UNL     1       4.006   2.496   2.334  0.00  0.00    +0.044 C 
ENDBRANCH  14  20
ENDBRANCH   1  14
BRANCH   2  23
ATOM     23  C   UNL     1      -0.088   4.854   0.296  0.00  0.00    -0.003 C 
BRANCH  23  29
ATOM     24  C   UNL     1       0.776   5.802  -1.758  0.00  0.00    -0.059 C 
ATOM     25  C   UNL     1       0.378   6.318  -3.143  0.00  0.00    +0.086 C 
ATOM     26  N   UNL     1      -0.523   7.469  -2.994  0.00  0.00    -0.333 N 
ATOM     27  C   UNL     1      -1.732   7.093  -2.248  0.00  0.00    +0.086 C 
ATOM     28  C   UNL     1      -1.335   6.577  -0.863  0.00  0.00    -0.059 C 
ATOM     29  N   UNL     1      -0.446   5.407  -1.028  0.00  0.00    +0.386 N 
ATOM     30  H   UNL     1      -0.940   4.686  -1.568  0.00  0.00    -0.081 HD
BRANCH  26  31
ATOM     31  C   UNL     1      -0.852   8.012  -4.238  0.00  0.00    +0.034 A 
ATOM     32  C   UNL     1      -1.565   7.258  -5.160  0.00  0.00    +0.043 A 
ATOM     33  C   UNL     1      -1.889   7.800  -6.390  0.00  0.00    +0.043 A 
ATOM     34  C   UNL     1      -1.502   9.092  -6.702  0.00  0.00    +0.020 A 
ATOM     35  C   UNL     1      -0.791   9.844  -5.785  0.00  0.00    +0.006 A 
ATOM     36  C   UNL     1      -0.469   9.310  -4.553  0.00  0.00    -0.029 A 
ATOM     37  C   UNL     1       0.300  10.133  -3.552  0.00  0.00    +0.045 C 
ATOM     38 CL   UNL     1      -2.781   6.859  -7.545  0.00  0.00    -0.083 Cl
ENDBRANCH  26  31
ENDBRANCH  23  29
ENDBRANCH   2  23
TORSDOF 5
