REMARK  Name = ZINC27277261
REMARK  8 active torsions:
REMARK  status: ('A' for Active; 'I' for Inactive)
REMARK    1  A    between atoms: C_1  and  C_2
REMARK    2  A    between atoms: C_4  and  N_29
REMARK    3  A    between atoms: C_7  and  N_8
REMARK    4  A    between atoms: C_9  and  C_11
REMARK    5  A    between atoms: C_11  and  C_13
REMARK    6  A    between atoms: C_11  and  S_14
REMARK    7  A    between atoms: S_14  and  C_15
REMARK    8  A    between atoms: N_25  and  C_26
REMARK                            x       y       z     vdW  Elec       q    Type
REMARK                         _______ _______ _______ _____ _____    ______ ____
ROOT
ATOM      1  C   UNL     1      -3.703  -1.206   0.110  0.00  0.00    +0.137 C 
ATOM      2  C   UNL     1      -4.394  -1.442   1.454  0.00  0.00    +0.029 C 
ENDROOT
BRANCH   1   4
ATOM      3  N   UNL     1      -2.384   0.842   0.538  0.00  0.00    -0.284 N 
ATOM      4  C   UNL     1      -2.396  -0.490   0.336  0.00  0.00    +0.230 C 
ATOM      5  O   UNL     1      -1.355  -1.113   0.336  0.00  0.00    -0.274 OA
ATOM      6  H   UNL     1      -3.331   1.394   0.626  0.00  0.00    +0.155 HD
BRANCH   3  13
ATOM      7  C   UNL     1      -2.332   3.303   1.965  0.00  0.00    +0.046 C 
ATOM      8  C   UNL     1      -1.095   2.728   1.323  0.00  0.00    -0.027 A 
ATOM      9  C   UNL     1       0.107   3.402   1.412  0.00  0.00    +0.038 A 
ATOM     10  C   UNL     1       1.242   2.875   0.823  0.00  0.00    +0.127 A 
ATOM     11  C   UNL     1       1.177   1.672   0.143  0.00  0.00    +0.034 A 
ATOM     12  C   UNL     1      -0.023   0.994   0.050  0.00  0.00    +0.026 A 
ATOM     13  C   UNL     1      -1.166   1.524   0.635  0.00  0.00    +0.036 A 
BRANCH  10  14
ATOM     14  N   UNL     1       2.529   3.599   0.920  0.00  0.00    +0.056 N 
ATOM     15  O   UNL     1       3.529   3.137   0.402  0.00  0.00    -0.126 OA
ATOM     16  O   UNL     1       2.588   4.659   1.519  0.00  0.00    -0.126 OA
ENDBRANCH  10  14
ENDBRANCH   3  13
ENDBRANCH   1   4
BRANCH   1  17
ATOM     17  S   UNL     1      -3.388  -2.797  -0.694  0.00  0.00    -0.075 S 
BRANCH  17  18
ATOM     18  C   UNL     1      -5.043  -3.334  -0.970  0.00  0.00    +0.173 A 
ATOM     19  N   UNL     1      -6.024  -2.560  -0.575  0.00  0.00    -0.223 NA
ATOM     20  C   UNL     1      -7.314  -2.906  -0.758  0.00  0.00    +0.079 A 
ATOM     21  C   UNL     1      -8.361  -2.079  -0.341  0.00  0.00    +0.028 A 
ATOM     22  C   UNL     1      -9.655  -2.471  -0.541  0.00  0.00    +0.002 A 
ATOM     23  C   UNL     1      -9.947  -3.683  -1.154  0.00  0.00    +0.001 A 
ATOM     24  C   UNL     1      -8.945  -4.514  -1.573  0.00  0.00    +0.015 A 
ATOM     25  C   UNL     1      -7.616  -4.138  -1.381  0.00  0.00    +0.065 A 
ATOM     26  C   UNL     1      -6.499  -4.991  -1.810  0.00  0.00    +0.263 A 
ATOM     27  O   UNL     1      -6.694  -6.063  -2.353  0.00  0.00    -0.267 OA
ATOM     28  N   UNL     1      -5.244  -4.539  -1.580  0.00  0.00    -0.284 N 
BRANCH  28  29
ATOM     29  C   UNL     1      -4.093  -5.348  -1.988  0.00  0.00    +0.093 C 
ATOM     30  C   UNL     1      -4.118  -6.838  -1.640  0.00  0.00    +0.027 C 
ATOM     31  C   UNL     1      -3.184  -5.891  -0.883  0.00  0.00    +0.027 C 
ENDBRANCH  28  29
ENDBRANCH  17  18
ENDBRANCH   1  17
TORSDOF 6
