REMARK  Name = ZINC08718689
REMARK  4 active torsions:
REMARK  status: ('A' for Active; 'I' for Inactive)
REMARK    1  A    between atoms: N_7  and  C_20
REMARK    2  A    between atoms: C_9  and  C_12
REMARK    3  A    between atoms: C_20  and  C_21
REMARK    4  A    between atoms: N_26  and  C_29
REMARK                            x       y       z     vdW  Elec       q    Type
REMARK                         _______ _______ _______ _____ _____    ______ ____
ROOT
ATOM      1  C   UNL     1       2.277  12.173  -0.189  0.00  0.00    +0.002 A 
ATOM      2  C   UNL     1       2.495  13.461  -0.640  0.00  0.00    +0.004 A 
ATOM      3  C   UNL     1       2.166  13.806  -1.937  0.00  0.00    +0.047 A 
ATOM      4  C   UNL     1       1.615  12.861  -2.791  0.00  0.00    +0.143 A 
ATOM      5  C   UNL     1       1.398  11.564  -2.342  0.00  0.00    +0.073 A 
ATOM      6  C   UNL     1       1.732  11.226  -1.034  0.00  0.00    +0.027 A 
ATOM      7  N   UNL     1       0.851  10.578  -3.168  0.00  0.00    -0.314 N 
ATOM      8  C   UNL     1       0.132  11.151  -4.312  0.00  0.00    +0.160 C 
ATOM      9  C   UNL     1       1.043  12.179  -4.996  0.00  0.00    +0.276 C 
ATOM     10  O   UNL     1       1.297  13.233  -4.061  0.00  0.00    -0.476 OA
ENDROOT
BRANCH   9  11
ATOM     11  C   UNL     1       0.358  12.734  -6.218  0.00  0.00    +0.258 C 
ATOM     12  O   UNL     1       0.001  13.893  -6.240  0.00  0.00    -0.271 OA
ATOM     13  N   UNL     1       0.142  11.942  -7.287  0.00  0.00    -0.298 N 
ATOM     14  C   UNL     1       0.658  10.567  -7.317  0.00  0.00    +0.108 C 
ATOM     15  C   UNL     1      -0.507   9.615  -7.627  0.00  0.00    +0.019 C 
ATOM     16  C   UNL     1      -1.189  10.058  -8.924  0.00  0.00    +0.003 C 
ATOM     17  C   UNL     1      -1.754  11.469  -8.748  0.00  0.00    +0.019 C 
ATOM     18  C   UNL     1      -0.608  12.440  -8.448  0.00  0.00    +0.108 C 
ENDBRANCH   9  11
BRANCH   7  19
ATOM     19  C   UNL     1      -0.015   9.670  -2.404  0.00  0.00    +0.201 C 
BRANCH  19  20
ATOM     20  C   UNL     1      -0.262   8.418  -3.204  0.00  0.00    +0.233 C 
ATOM     21  O   UNL     1       0.323   8.243  -4.253  0.00  0.00    -0.274 OA
ATOM     22  N   UNL     1      -1.131   7.491  -2.755  0.00  0.00    -0.297 N 
ATOM     23  C   UNL     1      -1.387   6.261  -3.521  0.00  0.00    +0.126 C 
ATOM     24  C   UNL     1      -2.901   6.099  -3.690  0.00  0.00    +0.125 C 
ATOM     25  N   UNL     1      -3.547   6.156  -2.372  0.00  0.00    -0.314 N 
ATOM     26  C   UNL     1      -3.346   7.465  -1.736  0.00  0.00    +0.125 C 
ATOM     27  C   UNL     1      -1.849   7.683  -1.486  0.00  0.00    +0.126 C 
BRANCH  25  28
ATOM     28  C   UNL     1      -4.900   5.851  -2.467  0.00  0.00    +0.099 A 
ATOM     29  C   UNL     1      -5.689   5.851  -1.321  0.00  0.00    +0.042 A 
ATOM     30  C   UNL     1      -7.034   5.551  -1.431  0.00  0.00    +0.005 A 
ATOM     31  C   UNL     1      -7.546   5.249  -2.686  0.00  0.00    +0.018 A 
ATOM     32  C   UNL     1      -6.705   5.268  -3.781  0.00  0.00    +0.084 A 
ATOM     33  N   UNL     1      -5.380   5.563  -3.711  0.00  0.00    -0.350 N 
ATOM     34  H   UNL     1      -4.778   5.570  -4.543  0.00  0.00    +0.166 HD
ENDBRANCH  25  28
ENDBRANCH  19  20
ENDBRANCH   7  19
TORSDOF 4
