REMARK  Name = ZINC15747868
REMARK  9 active torsions:
REMARK  status: ('A' for Active; 'I' for Inactive)
REMARK    1  A    between atoms: C_1  and  C_2
REMARK    2  A    between atoms: N_13  and  C_29
REMARK    3  A    between atoms: C_14  and  S_16
REMARK    4  A    between atoms: S_16  and  C_17
REMARK    5  A    between atoms: C_17  and  C_18
REMARK    6  A    between atoms: C_29  and  C_30
REMARK    7  A    between atoms: C_30  and  C_31
REMARK    8  A    between atoms: C_31  and  C_32
REMARK    9  A    between atoms: C_31  and  C_33
REMARK                            x       y       z     vdW  Elec       q    Type
REMARK                         _______ _______ _______ _____ _____    ______ ____
ROOT
ATOM      1  C   UNL     1     -11.486  -4.423  -0.989  0.00  0.00    +0.008 C 
ATOM      2  C   UNL     1     -10.501  -3.358  -0.505  0.00  0.00    -0.009 C 
ATOM      3  C   UNL     1     -10.067  -3.673   0.930  0.00  0.00    +0.008 C 
ATOM      4  C   UNL     1      -9.284  -2.494   1.507  0.00  0.00    +0.037 C 
ATOM      5  C   UNL     1      -8.158  -2.131   0.543  0.00  0.00    -0.023 A 
ATOM      6  C   UNL     1      -8.192  -2.540  -0.741  0.00  0.00    -0.004 A 
ATOM      7  S   UNL     1      -6.710  -1.897  -1.469  0.00  0.00    -0.073 S 
ATOM      8  C   UNL     1      -6.045  -1.078  -0.042  0.00  0.00    +0.117 A 
ATOM      9  C   UNL     1      -7.001  -1.334   0.956  0.00  0.00    +0.076 A 
ATOM     10  C   UNL     1      -6.719  -0.782   2.245  0.00  0.00    +0.263 A 
ATOM     11  O   UNL     1      -7.491  -0.953   3.173  0.00  0.00    -0.267 OA
ATOM     12  N   UNL     1      -5.590  -0.071   2.420  0.00  0.00    -0.287 N 
ATOM     13  C   UNL     1      -4.714   0.131   1.393  0.00  0.00    +0.173 A 
ATOM     14  N   UNL     1      -4.952  -0.363   0.195  0.00  0.00    -0.216 NA
ATOM     15  C   UNL     1      -9.257  -3.359  -1.405  0.00  0.00    +0.046 C 
ENDROOT
BRANCH  13  16
ATOM     16  S   UNL     1      -3.249   1.070   1.671  0.00  0.00    -0.081 S 
BRANCH  16  17
ATOM     17  C   UNL     1      -2.513   1.002   0.019  0.00  0.00    +0.133 C 
BRANCH  17  18
ATOM     18  C   UNL     1      -1.212   1.761   0.017  0.00  0.00    +0.059 A 
ATOM     19  C   UNL     1      -0.013   1.076   0.008  0.00  0.00    +0.094 A 
ATOM     20  C   UNL     1       1.183   1.803   0.000  0.00  0.00    +0.259 A 
ATOM     21  O   UNL     1       2.259   1.227  -0.013  0.00  0.00    -0.267 OA
ATOM     22  N   UNL     1       1.128   3.152   0.008  0.00  0.00    -0.268 N 
ATOM     23  C   UNL     1       2.282   3.874   0.001  0.00  0.00    +0.096 A 
ATOM     24  C   UNL     1       2.252   5.226   0.009  0.00  0.00    +0.018 A 
ATOM     25  C   UNL     1       1.025   5.903   0.025  0.00  0.00    +0.005 A 
ATOM     26  C   UNL     1      -0.137   5.190   0.032  0.00  0.00    +0.047 A 
ATOM     27  C   UNL     1      -0.085   3.784   0.023  0.00  0.00    +0.140 A 
ATOM     28  N   UNL     1      -1.218   3.085   0.030  0.00  0.00    -0.233 NA
ENDBRANCH  17  18
ENDBRANCH  16  17
ENDBRANCH  13  16
BRANCH  12  29
ATOM     29  C   UNL     1      -5.295   0.497   3.738  0.00  0.00    +0.127 C 
BRANCH  29  30
ATOM     30  C   UNL     1      -5.895   1.901   3.834  0.00  0.00    +0.025 C 
BRANCH  30  31
ATOM     31  C   UNL     1      -5.588   2.494   5.210  0.00  0.00    -0.016 C 
ATOM     32  C   UNL     1      -6.079   3.942   5.263  0.00  0.00    +0.007 C 
ATOM     33  C   UNL     1      -6.298   1.675   6.289  0.00  0.00    +0.007 C 
ENDBRANCH  30  31
ENDBRANCH  29  30
ENDBRANCH  12  29
TORSDOF 6
