REMARK  Name = ZINC21226016
REMARK  4 active torsions:
REMARK  status: ('A' for Active; 'I' for Inactive)
REMARK    1  A    between atoms: C_1  and  C_2
REMARK    2  A    between atoms: C_2  and  C_4
REMARK    3  A    between atoms: C_2  and  S_14
REMARK    4  A    between atoms: S_14  and  C_15
REMARK                            x       y       z     vdW  Elec       q    Type
REMARK                         _______ _______ _______ _____ _____    ______ ____
ROOT
ATOM      1  C   UNL     1       3.790   2.872   0.007  0.00  0.00    +0.192 A 
ATOM      2  N   UNL     1       4.263   1.635   0.056  0.00  0.00    -0.207 NA
ATOM      3  C   UNL     1       3.497   0.547   0.064  0.00  0.00    +0.129 A 
ATOM      4  C   UNL     1       2.091   0.774   0.014  0.00  0.00    +0.051 A 
ATOM      5  C   UNL     1       1.041  -0.232   0.011  0.00  0.00    -0.025 A 
ATOM      6  C   UNL     1      -0.232   0.219  -0.042  0.00  0.00    -0.004 A 
ATOM      7  S   UNL     1      -0.099   1.989  -0.088  0.00  0.00    -0.073 S 
ATOM      8  C   UNL     1       1.659   2.123  -0.037  0.00  0.00    +0.115 A 
ATOM      9  N   UNL     1       2.485   3.150  -0.040  0.00  0.00    -0.214 NA
ATOM     10  C   UNL     1      -1.486  -0.600  -0.060  0.00  0.00    +0.043 C 
ATOM     11  C   UNL     1      -1.113  -2.054  -0.382  0.00  0.00    +0.005 C 
ATOM     12  C   UNL     1       0.066  -2.465   0.506  0.00  0.00    +0.005 C 
ATOM     13  C   UNL     1       1.330  -1.730   0.062  0.00  0.00    +0.037 C 
ATOM     14  N   UNL     1       4.033  -0.726   0.115  0.00  0.00    -0.343 N 
ATOM     15  H   UNL     1       3.369  -1.603   0.120  0.00  0.00    +0.144 HD
ATOM     16  H   UNL     1       5.124  -0.863   0.152  0.00  0.00    +0.144 HD
ENDROOT
BRANCH   1  17
ATOM     17  S   UNL     1       4.935   4.211   0.004  0.00  0.00    -0.073 S 
BRANCH  17  19
ATOM     18  C   UNL     1       6.583   2.545   1.408  0.00  0.00    +0.029 C 
ATOM     19  C   UNL     1       6.493   3.292   0.076  0.00  0.00    +0.137 C 
BRANCH  19  20
ATOM     20  C   UNL     1       7.649   4.252  -0.040  0.00  0.00    +0.231 C 
ATOM     21  O   UNL     1       7.509   5.411   0.288  0.00  0.00    -0.274 OA
ATOM     22  N   UNL     1       8.837   3.822  -0.509  0.00  0.00    -0.269 N 
ATOM     23  C   UNL     1       9.937   4.679  -0.509  0.00  0.00    +0.125 A 
ATOM     24  C   UNL     1      11.128   4.270  -1.098  0.00  0.00    +0.045 A 
ATOM     25  C   UNL     1      12.213   5.129  -1.091  0.00  0.00    +0.025 A 
ATOM     26  C   UNL     1      12.068   6.375  -0.492  0.00  0.00    +0.059 A 
ATOM     27  C   UNL     1      10.854   6.715   0.074  0.00  0.00    +0.132 A 
ATOM     28  N   UNL     1       9.836   5.876   0.047  0.00  0.00    -0.239 NA
ATOM     29 CL   UNL     1      13.397   7.491  -0.456  0.00  0.00    -0.082 Cl
ATOM     30  H   UNL     1       8.939   2.796  -0.892  0.00  0.00    +0.156 HD
ENDBRANCH  19  20
ENDBRANCH  17  19
ENDBRANCH   1  17
TORSDOF 3
