REMARK  Name = ZINC50396703
REMARK  3 active torsions:
REMARK  status: ('A' for Active; 'I' for Inactive)
REMARK    1  A    between atoms: C_4  and  N_20
REMARK    2  A    between atoms: C_7  and  N_11
REMARK    3  A    between atoms: N_11  and  C_12
REMARK                            x       y       z     vdW  Elec       q    Type
REMARK                         _______ _______ _______ _____ _____    ______ ____
ROOT
ATOM      1  C   UNL     1       0.063   1.389  -0.780  0.00  0.00    +0.020 A 
ATOM      2  C   UNL     1       1.212   2.086  -0.536  0.00  0.00    +0.014 A 
ATOM      3  C   UNL     1       2.390   1.359  -0.280  0.00  0.00    +0.032 A 
ATOM      4  C   UNL     1       3.608   2.008  -0.021  0.00  0.00    +0.135 A 
ATOM      5  C   UNL     1       4.729   1.276   0.224  0.00  0.00    +0.035 A 
ATOM      6  C   UNL     1       4.691  -0.115   0.221  0.00  0.00    +0.027 A 
ATOM      7  C   UNL     1       3.516  -0.789  -0.029  0.00  0.00    +0.054 A 
ATOM      8  C   UNL     1       2.336  -0.057  -0.286  0.00  0.00    +0.094 A 
ATOM      9  N   UNL     1       1.179  -0.678  -0.531  0.00  0.00    -0.253 NA
ATOM     10  C   UNL     1       0.081  -0.004  -0.770  0.00  0.00    +0.111 A 
ENDROOT
BRANCH   4  11
ATOM     11  N   UNL     1       3.672   3.487  -0.014  0.00  0.00    +0.057 N 
ATOM     12  O   UNL     1       4.642   4.052  -0.463  0.00  0.00    -0.126 OA
ATOM     13  O   UNL     1       2.754   4.130   0.440  0.00  0.00    -0.126 OA
ENDBRANCH   4  11
BRANCH   7  14
ATOM     14  N   UNL     1       3.492  -2.183  -0.029  0.00  0.00    -0.331 N 
ATOM     15  H   UNL     1       2.663  -2.654  -0.206  0.00  0.00    +0.147 HD
BRANCH  14  16
ATOM     16  C   UNL     1       4.720  -2.937   0.237  0.00  0.00    +0.157 C 
ATOM     17  C   UNL     1       4.616  -4.321  -0.408  0.00  0.00    +0.033 C 
ATOM     18  C   UNL     1       5.774  -5.184   0.107  0.00  0.00    +0.021 C 
ATOM     19  C   UNL     1       5.559  -5.453   1.597  0.00  0.00    +0.104 C 
ATOM     20  N   UNL     1       5.303  -4.207   2.309  0.00  0.00    -0.314 N 
ATOM     21  C   UNL     1       4.906  -3.079   1.720  0.00  0.00    +0.233 C 
ATOM     22  O   UNL     1       4.684  -2.115   2.422  0.00  0.00    -0.274 OA
ATOM     23  H   UNL     1       5.429  -4.198   3.270  0.00  0.00    +0.149 HD
ENDBRANCH  14  16
ENDBRANCH   7  14
TORSDOF 3
