REMARK  Name = ZINC15307356
REMARK  3 active torsions:
REMARK  status: ('A' for Active; 'I' for Inactive)
REMARK    1  A    between atoms: C_9  and  C_11
REMARK    2  A    between atoms: N_14  and  C_17
REMARK    3  A    between atoms: N_22  and  C_25
REMARK                            x       y       z     vdW  Elec       q    Type
REMARK                         _______ _______ _______ _____ _____    ______ ____
ROOT
ATOM      1  C   UNL     1       4.575  -3.304   0.042  0.00  0.00    +0.052 C 
ATOM      2  C   UNL     1       3.580  -4.204  -0.697  0.00  0.00    -0.008 C 
ATOM      3  C   UNL     1       4.129  -5.632  -0.742  0.00  0.00    -0.077 C 
ATOM      4  N   UNL     1       4.321  -6.130   0.625  0.00  0.00    +0.388 N 
ATOM      5  C   UNL     1       5.327  -5.315   1.316  0.00  0.00    -0.077 C 
ATOM      6  C   UNL     1       4.824  -3.875   1.441  0.00  0.00    -0.008 C 
ATOM      7  H   UNL     1       3.447  -6.080   1.126  0.00  0.00    -0.081 HD
ENDROOT
BRANCH   1  16
ATOM      8  C   UNL     1       1.740   1.987   0.570  0.00  0.00    +0.002 A 
ATOM      9  C   UNL     1       3.029   2.483   0.433  0.00  0.00    +0.002 A 
ATOM     10  C   UNL     1       4.089   1.636   0.276  0.00  0.00    +0.030 A 
ATOM     11  C   UNL     1       3.879   0.254   0.252  0.00  0.00    +0.089 A 
ATOM     12  C   UNL     1       2.574  -0.249   0.390  0.00  0.00    +0.066 A 
ATOM     13  C   UNL     1       1.509   0.628   0.549  0.00  0.00    +0.028 A 
ATOM     14  N   UNL     1       2.687  -1.623   0.328  0.00  0.00    -0.342 N 
ATOM     15  H   UNL     1       1.961  -2.263   0.392  0.00  0.00    +0.167 HD
ATOM     16  C   UNL     1       4.005  -1.914   0.159  0.00  0.00    +0.111 A 
ATOM     17  N   UNL     1       4.703  -0.816   0.115  0.00  0.00    -0.232 NA
ENDBRANCH   1  16
BRANCH   4  18
ATOM     18  C   UNL     1       4.774  -7.527   0.576  0.00  0.00    +0.029 C 
ATOM     19  C   UNL     1       3.708  -8.420  -0.089  0.00  0.00    +0.090 C 
ATOM     20  C   UNL     1       3.336  -9.402   1.001  0.00  0.00    +0.225 C 
ATOM     21  O   UNL     1       2.520 -10.291   0.897  0.00  0.00    -0.275 OA
ATOM     22  N   UNL     1       4.053  -9.131   2.099  0.00  0.00    -0.212 N 
ATOM     23  C   UNL     1       4.897  -8.096   1.973  0.00  0.00    +0.213 C 
ATOM     24  O   UNL     1       5.639  -7.681   2.837  0.00  0.00    -0.277 OA
BRANCH  22  25
ATOM     25  C   UNL     1       3.932  -9.871   3.285  0.00  0.00    +0.044 A 
ATOM     26  C   UNL     1       4.352 -11.193   3.325  0.00  0.00    +0.025 A 
ATOM     27  C   UNL     1       4.232 -11.919   4.494  0.00  0.00    +0.017 A 
ATOM     28  C   UNL     1       3.695 -11.330   5.624  0.00  0.00    +0.018 A 
ATOM     29  C   UNL     1       3.276 -10.011   5.587  0.00  0.00    +0.017 A 
ATOM     30  C   UNL     1       3.399  -9.279   4.422  0.00  0.00    +0.025 A 
ATOM     31 BR   UNL     1       3.532 -12.327   7.222  0.00  0.00    -0.050 Br
ENDBRANCH  22  25
ENDBRANCH   4  18
TORSDOF 3
