REMARK  Name = ZINC20663930
REMARK  10 active torsions:
REMARK  status: ('A' for Active; 'I' for Inactive)
REMARK    1  A    between atoms: C_1  and  O_2
REMARK    2  A    between atoms: O_2  and  C_3
REMARK    3  A    between atoms: C_6  and  C_11
REMARK    4  A    between atoms: C_8  and  O_9
REMARK    5  A    between atoms: O_9  and  C_10
REMARK    6  A    between atoms: C_11  and  C_12
REMARK    7  A    between atoms: C_12  and  N_13
REMARK    8  A    between atoms: N_13  and  C_14
REMARK    9  A    between atoms: C_17  and  C_23
REMARK   10  A    between atoms: C_19  and  N_20
REMARK                            x       y       z     vdW  Elec       q    Type
REMARK                         _______ _______ _______ _____ _____    ______ ____
ROOT
ATOM      1  C   UNL     1      -4.955   5.112  -2.555  0.00  0.00    +0.058 A 
ATOM      2  C   UNL     1      -4.383   4.705  -3.758  0.00  0.00    +0.026 A 
ATOM      3  C   UNL     1      -4.947   5.085  -4.954  0.00  0.00    +0.015 A 
ATOM      4  C   UNL     1      -6.097   5.881  -4.960  0.00  0.00    +0.039 A 
ATOM      5  C   UNL     1      -6.670   6.287  -3.752  0.00  0.00    +0.047 A 
ATOM      6  C   UNL     1      -6.103   5.899  -2.559  0.00  0.00    +0.148 A 
ENDROOT
BRANCH   4   7
ATOM      7  C   UNL     1      -6.705   6.290  -6.241  0.00  0.00    +0.247 C 
ATOM      8  O   UNL     1      -7.911   6.422  -6.327  0.00  0.00    -0.270 OA
ATOM      9  N   UNL     1      -5.924   6.519  -7.315  0.00  0.00    -0.297 N 
ATOM     10  C   UNL     1      -6.517   6.806  -8.626  0.00  0.00    +0.113 C 
ATOM     11  C   UNL     1      -5.886   8.063  -9.220  0.00  0.00    +0.027 C 
ATOM     12  C   UNL     1      -4.360   7.980  -9.183  0.00  0.00    +0.018 C 
ATOM     13  C   UNL     1      -3.920   7.823  -7.725  0.00  0.00    +0.054 C 
ATOM     14  C   UNL     1      -4.457   6.481  -7.200  0.00  0.00    +0.117 C 
ATOM     15  C   UNL     1      -4.529   8.923  -6.888  0.00  0.00    +0.027 A 
ATOM     16  C   UNL     1      -3.856   9.306  -5.770  0.00  0.00    +0.022 A 
ATOM     17  C   UNL     1      -4.394  10.270  -4.912  0.00  0.00    +0.007 A 
ATOM     18  C   UNL     1      -5.618  10.799  -5.199  0.00  0.00    +0.070 A 
ATOM     19  C   UNL     1      -6.288  10.380  -6.357  0.00  0.00    +0.251 A 
ATOM     20  O   UNL     1      -7.411  10.795  -6.590  0.00  0.00    -0.268 OA
ATOM     21  N   UNL     1      -5.699   9.516  -7.221  0.00  0.00    -0.312 N 
ATOM     22  C   UNL     1      -6.352   9.325  -8.516  0.00  0.00    +0.130 C 
ENDBRANCH   4   7
BRANCH   6  23
ATOM     23  N   UNL     1      -6.712   6.324  -1.278  0.00  0.00    +0.058 N 
ATOM     24  O   UNL     1      -7.924   6.376  -1.168  0.00  0.00    -0.126 OA
ATOM     25  O   UNL     1      -6.001   6.623  -0.336  0.00  0.00    -0.126 OA
ENDBRANCH   6  23
BRANCH   1  26
ATOM     26  N   UNL     1      -4.382   4.726  -1.349  0.00  0.00    -0.342 N 
ATOM     27  H   UNL     1      -4.788   5.108  -0.400  0.00  0.00    +0.146 HD
BRANCH  26  28
ATOM     28  C   UNL     1      -3.238   3.811  -1.340  0.00  0.00    +0.106 C 
BRANCH  28  29
ATOM     29  C   UNL     1      -2.804   3.550   0.103  0.00  0.00    +0.054 C 
BRANCH  29  33
ATOM     30  C   UNL     1       0.531   0.874   0.127  0.00  0.00    +0.161 A 
ATOM     31  C   UNL     1      -0.761   0.376   0.179  0.00  0.00    +0.049 A 
ATOM     32  C   UNL     1      -1.837   1.243   0.166  0.00  0.00    +0.007 A 
ATOM     33  C   UNL     1      -1.627   2.609   0.112  0.00  0.00    -0.042 A 
ATOM     34  C   UNL     1      -0.341   3.112   0.059  0.00  0.00    +0.053 A 
ATOM     35  C   UNL     1       0.742   2.248   0.067  0.00  0.00    +0.162 A 
BRANCH  30  37
ATOM     36  C   UNL     1       1.299  -1.376   0.197  0.00  0.00    +0.277 C 
ATOM     37  O   UNL     1       1.591   0.021   0.134  0.00  0.00    -0.491 OA
ENDBRANCH  30  37
BRANCH  35  38
ATOM     38  O   UNL     1       2.008   2.741   0.015  0.00  0.00    -0.491 OA
ATOM     39  C   UNL     1       2.149   4.162  -0.045  0.00  0.00    +0.277 C 
ENDBRANCH  35  38
ENDBRANCH  29  33
ENDBRANCH  28  29
ENDBRANCH  26  28
ENDBRANCH   1  26
TORSDOF 8
