REMARK  Name = ZINC36599056
REMARK  15 active torsions:
REMARK  status: ('A' for Active; 'I' for Inactive)
REMARK    1  A    between atoms: C_1  and  C_2
REMARK    2  A    between atoms: C_5  and  C_8
REMARK    3  A    between atoms: C_8  and  C_10
REMARK    4  A    between atoms: C_8  and  N_17
REMARK    5  A    between atoms: N_12  and  C_13
REMARK    6  A    between atoms: C_13  and  C_14
REMARK    7  A    between atoms: C_13  and  C_15
REMARK    8  A    between atoms: C_13  and  C_16
REMARK    9  A    between atoms: N_17  and  C_18
REMARK   10  A    between atoms: C_18  and  C_19
REMARK   11  A    between atoms: C_22  and  C_24
REMARK   12  A    between atoms: C_25  and  C_27
REMARK   13  A    between atoms: C_27  and  C_28
REMARK   14  A    between atoms: C_27  and  C_34
REMARK   15  A    between atoms: C_27  and  O_40
REMARK                            x       y       z     vdW  Elec       q    Type
REMARK                         _______ _______ _______ _____ _____    ______ ____
ROOT
ATOM      1  N   UNL     1      -0.805  -5.509   2.715  0.00  0.00    -0.276 N 
ATOM      2  C   UNL     1      -1.731  -5.956   1.844  0.00  0.00    +0.258 C 
ATOM      3  O   UNL     1      -1.424  -6.764   0.994  0.00  0.00    -0.272 OA
ENDROOT
BRANCH   1   4
ATOM      4  C   UNL     1       0.601  -5.887   2.548  0.00  0.00    +0.193 C 
BRANCH   4   9
ATOM      5  C   UNL     1       2.573  -3.797  -2.465  0.00  0.00    +0.044 C 
ATOM      6  C   UNL     1       2.059  -4.342  -1.158  0.00  0.00    -0.050 A 
ATOM      7  C   UNL     1       2.273  -5.667  -0.830  0.00  0.00    +0.004 A 
ATOM      8  C   UNL     1       1.802  -6.168   0.370  0.00  0.00    +0.006 A 
ATOM      9  C   UNL     1       1.116  -5.342   1.241  0.00  0.00    -0.018 A 
ATOM     10  C   UNL     1       0.902  -4.016   0.913  0.00  0.00    +0.006 A 
ATOM     11  C   UNL     1       1.378  -3.515  -0.284  0.00  0.00    +0.004 A 
ENDBRANCH   4   9
BRANCH   4  12
ATOM     12  C   UNL     1       1.412  -5.319   3.684  0.00  0.00    +0.238 C 
ATOM     13  O   UNL     1       0.855  -4.893   4.673  0.00  0.00    -0.273 OA
ATOM     14  N   UNL     1       2.757  -5.286   3.601  0.00  0.00    -0.309 N 
ATOM     15  H   UNL     1       3.207  -5.705   2.850  0.00  0.00    +0.149 HD
BRANCH  14  16
ATOM     16  C   UNL     1       3.539  -4.617   4.643  0.00  0.00    +0.026 C 
ATOM     17  C   UNL     1       3.327  -5.332   5.979  0.00  0.00    +0.031 C 
ATOM     18  C   UNL     1       5.023  -4.658   4.273  0.00  0.00    +0.031 C 
ATOM     19  C   UNL     1       3.085  -3.161   4.766  0.00  0.00    +0.031 C 
ENDBRANCH  14  16
ENDBRANCH   4  12
ENDBRANCH   1   4
BRANCH   1  20
ATOM     20  C   UNL     1      -1.203  -4.644   3.829  0.00  0.00    +0.183 C 
BRANCH  20  21
ATOM     21  C   UNL     1      -1.473  -5.489   5.048  0.00  0.00    +0.122 A 
ATOM     22  C   UNL     1      -0.698  -5.558   6.145  0.00  0.00    +0.046 A 
ATOM     23  C   UNL     1      -1.324  -6.463   7.032  0.00  0.00    +0.045 A 
ATOM     24  C   UNL     1      -2.444  -6.893   6.425  0.00  0.00    +0.102 A 
ATOM     25  O   UNL     1      -2.533  -6.295   5.226  0.00  0.00    -0.463 OA
ATOM     26  C   UNL     1      -3.435  -7.875   6.995  0.00  0.00    +0.086 C 
ENDBRANCH  20  21
ENDBRANCH   1  20
BRANCH   2  27
ATOM     27  C   UNL     1      -3.148  -5.450   1.927  0.00  0.00    +0.192 C 
BRANCH  27  28
ATOM     28  C   UNL     1      -3.215  -4.050   1.373  0.00  0.00    -0.003 A 
ATOM     29  C   UNL     1      -2.561  -3.740   0.195  0.00  0.00    +0.007 A 
ATOM     30  C   UNL     1      -2.623  -2.456  -0.312  0.00  0.00    +0.000 A 
ATOM     31  C   UNL     1      -3.339  -1.482   0.358  0.00  0.00    +0.000 A 
ATOM     32  C   UNL     1      -3.994  -1.792   1.535  0.00  0.00    +0.000 A 
ATOM     33  C   UNL     1      -3.936  -3.077   2.041  0.00  0.00    +0.007 A 
ENDBRANCH  27  28
BRANCH  27  34
ATOM     34  C   UNL     1      -4.050  -6.352   1.123  0.00  0.00    -0.003 A 
ATOM     35  C   UNL     1      -3.795  -6.567  -0.218  0.00  0.00    +0.007 A 
ATOM     36  C   UNL     1      -4.623  -7.394  -0.955  0.00  0.00    +0.000 A 
ATOM     37  C   UNL     1      -5.705  -8.005  -0.350  0.00  0.00    +0.000 A 
ATOM     38  C   UNL     1      -5.959  -7.791   0.992  0.00  0.00    +0.000 A 
ATOM     39  C   UNL     1      -5.129  -6.968   1.729  0.00  0.00    +0.007 A 
ENDBRANCH  27  34
BRANCH  27  40
ATOM     40  O   UNL     1      -3.573  -5.444   3.291  0.00  0.00    -0.371 OA
ATOM     41  H   UNL     1      -3.556  -6.314   3.712  0.00  0.00    +0.212 HD
ENDBRANCH  27  40
ENDBRANCH   2  27
TORSDOF 10
