REMARK  Name = ZINC23311184
REMARK  5 active torsions:
REMARK  status: ('A' for Active; 'I' for Inactive)
REMARK    1  A    between atoms: C_1  and  C_2
REMARK    2  A    between atoms: C_4  and  C_24
REMARK    3  A    between atoms: N_5  and  C_7
REMARK    4  A    between atoms: C_7  and  C_8
REMARK    5  A    between atoms: C_16  and  C_18
REMARK                            x       y       z     vdW  Elec       q    Type
REMARK                         _______ _______ _______ _____ _____    ______ ____
ROOT
ATOM      1  C   UNL     1       1.482  -3.682   1.773  0.00  0.00    +0.070 A 
ATOM      2  C   UNL     1       1.753  -4.794   2.574  0.00  0.00    +0.097 A 
ATOM      3  C   UNL     1       3.049  -5.137   2.829  0.00  0.00    +0.275 A 
ATOM      4  O   UNL     1       3.336  -6.210   3.601  0.00  0.00    -0.266 OA
ATOM      5  N   UNL     1       4.054  -4.380   2.292  0.00  0.00    -0.178 N 
ATOM      6  C   UNL     1       3.746  -3.295   1.510  0.00  0.00    +0.160 A 
ATOM      7  N   UNL     1       2.467  -2.974   1.265  0.00  0.00    -0.231 NA
ATOM      8  C   UNL     1       4.945  -2.727   1.110  0.00  0.00    +0.078 A 
ATOM      9  C   UNL     1       5.979  -3.487   1.664  0.00  0.00    +0.095 A 
ATOM     10  N   UNL     1       5.449  -4.472   2.368  0.00  0.00    -0.162 NA
ENDROOT
BRANCH   9  11
ATOM     11  C   UNL     1       7.430  -3.232   1.490  0.00  0.00    +0.002 A 
ATOM     12  C   UNL     1       7.863  -2.152   0.723  0.00  0.00    +0.010 A 
ATOM     13  C   UNL     1       9.214  -1.919   0.565  0.00  0.00    +0.001 A 
ATOM     14  C   UNL     1      10.138  -2.755   1.165  0.00  0.00    +0.000 A 
ATOM     15  C   UNL     1       9.714  -3.829   1.927  0.00  0.00    +0.001 A 
ATOM     16  C   UNL     1       8.365  -4.068   2.096  0.00  0.00    +0.010 A 
ENDBRANCH   9  11
BRANCH   1  17
ATOM     17  C   UNL     1       0.055  -3.295   1.485  0.00  0.00    +0.199 C 
BRANCH  17  22
ATOM     18  C   UNL     1      -0.018   1.503   0.010  0.00  0.00    +0.067 C 
ATOM     19  C   UNL     1       0.002  -0.004   0.002  0.00  0.00    +0.060 A 
ATOM     20  C   UNL     1       0.008  -0.818  -1.135  0.00  0.00    +0.047 A 
ATOM     21  C   UNL     1       0.028  -2.107  -0.725  0.00  0.00    +0.037 A 
ATOM     22  N   UNL     1       0.034  -2.109   0.625  0.00  0.00    -0.263 N 
ATOM     23  N   UNL     1       0.023  -0.777   1.058  0.00  0.00    -0.176 NA
ATOM     24  C   UNL     1       0.040  -3.323  -1.615  0.00  0.00    +0.065 C 
ENDBRANCH  17  22
ENDBRANCH   1  17
TORSDOF 3
