REMARK  Name = ZINC44714500
REMARK  10 active torsions:
REMARK  status: ('A' for Active; 'I' for Inactive)
REMARK    1  A    between atoms: C_1  and  C_2
REMARK    2  A    between atoms: C_3  and  C_14
REMARK    3  A    between atoms: C_6  and  C_12
REMARK    4  A    between atoms: C_14  and  C_15
REMARK    5  A    between atoms: C_15  and  N_16
REMARK    6  A    between atoms: C_17  and  C_19
REMARK    7  A    between atoms: C_30  and  C_32
REMARK    8  A    between atoms: C_32  and  C_34
REMARK    9  A    between atoms: C_32  and  O_35
REMARK   10  A    between atoms: O_35  and  C_36
REMARK                            x       y       z     vdW  Elec       q    Type
REMARK                         _______ _______ _______ _____ _____    ______ ____
ROOT
ATOM      1  C   UNL     1       3.189   1.531  -6.883  0.00  0.00    +0.100 C 
ATOM      2  C   UNL     1       2.360   0.430  -7.580  0.00  0.00    +0.121 C 
ATOM      3  N   UNL     1       3.093   0.148  -8.837  0.00  0.00    -0.297 N 
ATOM      4  C   UNL     1       4.523   0.204  -8.450  0.00  0.00    +0.115 C 
ATOM      5  C   UNL     1       4.609   1.379  -7.456  0.00  0.00    -0.004 C 
ATOM      6  C   UNL     1       5.597   1.054  -6.340  0.00  0.00    -0.010 C 
ATOM      7  C   UNL     1       7.009   0.966  -6.925  0.00  0.00    -0.082 C 
ATOM      8  N   UNL     1       7.359   2.242  -7.560  0.00  0.00    +0.379 N 
ATOM      9  C   UNL     1       6.461   2.502  -8.691  0.00  0.00    -0.082 C 
ATOM     10  C   UNL     1       5.025   2.655  -8.181  0.00  0.00    -0.010 C 
ATOM     11  C   UNL     1       2.576  -0.101 -10.057  0.00  0.00    +0.256 C 
ATOM     12  O   UNL     1       3.313  -0.316 -10.995  0.00  0.00    -0.272 OA
ATOM     13  H   UNL     1       7.271   2.987  -6.885  0.00  0.00    -0.086 HD
ATOM     14  H   UNL     1       8.312   2.202  -7.890  0.00  0.00    -0.086 HD
ENDROOT
BRANCH   1  16
ATOM     15  N   UNL     1       3.351   2.365  -4.560  0.00  0.00    -0.315 N 
ATOM     16  C   UNL     1       3.200   1.315  -5.392  0.00  0.00    +0.218 C 
ATOM     17  O   UNL     1       3.072   0.197  -4.940  0.00  0.00    -0.275 OA
ATOM     18  H   UNL     1       3.453   3.259  -4.921  0.00  0.00    +0.149 HD
BRANCH  15  19
ATOM     19  C   UNL     1       3.361   2.155  -3.110  0.00  0.00    +0.109 C 
BRANCH  19  20
ATOM     20  C   UNL     1       3.546   3.498  -2.401  0.00  0.00    +0.056 C 
BRANCH  20  23
ATOM     21  C   UNL     1       6.046   2.927  -0.653  0.00  0.00    +0.063 C 
ATOM     22  C   UNL     1       4.631   3.035  -0.146  0.00  0.00    +0.017 A 
ATOM     23  C   UNL     1       3.556   3.282  -0.910  0.00  0.00    -0.018 A 
ATOM     24  C   UNL     1       2.394   3.303  -0.017  0.00  0.00    +0.004 A 
ATOM     25  C   UNL     1       1.029   3.505  -0.211  0.00  0.00    +0.029 A 
ATOM     26  C   UNL     1       0.169   3.458   0.882  0.00  0.00    +0.052 A 
ATOM     27  C   UNL     1       0.678   3.209   2.165  0.00  0.00    +0.021 A 
ATOM     28  C   UNL     1       2.013   3.011   2.357  0.00  0.00    +0.027 A 
ATOM     29  C   UNL     1       2.892   3.054   1.276  0.00  0.00    +0.047 A 
ATOM     30  N   UNL     1       4.252   2.891   1.161  0.00  0.00    -0.358 N 
ATOM     31  H   UNL     1       4.855   2.703   1.898  0.00  0.00    +0.166 HD
BRANCH  26  32
ATOM     32  C   UNL     1      -1.236   3.665   0.697  0.00  0.00    +0.099 C 
ATOM     33  N   UNL     1      -2.350   3.829   0.551  0.00  0.00    -0.191 NA
ENDBRANCH  26  32
ENDBRANCH  20  23
ENDBRANCH  19  20
ENDBRANCH  15  19
ENDBRANCH   1  16
BRANCH  11  34
ATOM     34  C   UNL     1       1.082  -0.115 -10.254  0.00  0.00    +0.256 C 
ATOM     35  C   UNL     1       0.473  -1.270  -9.457  0.00  0.00    +0.062 C 
BRANCH  34  36
ATOM     36  O   UNL     1       0.786  -0.284 -11.641  0.00  0.00    -0.480 OA
BRANCH  36  37
ATOM     37  C   UNL     1      -0.411   0.186 -12.079  0.00  0.00    +0.122 A 
ATOM     38  C   UNL     1      -1.325   0.709 -11.175  0.00  0.00    +0.045 A 
ATOM     39  C   UNL     1      -2.541   1.188 -11.623  0.00  0.00    +0.004 A 
ATOM     40  C   UNL     1      -2.849   1.145 -12.970  0.00  0.00    +0.000 A 
ATOM     41  C   UNL     1      -1.940   0.623 -13.873  0.00  0.00    +0.004 A 
ATOM     42  C   UNL     1      -0.720   0.150 -13.431  0.00  0.00    +0.045 A 
ENDBRANCH  36  37
ENDBRANCH  34  36
ENDBRANCH  11  34
TORSDOF 8
