REMARK  Name = ZINC33483416
REMARK  7 active torsions:
REMARK  status: ('A' for Active; 'I' for Inactive)
REMARK    1  A    between atoms: C_4  and  C_7
REMARK    2  A    between atoms: C_7  and  C_8
REMARK    3  A    between atoms: C_8  and  N_9
REMARK    4  A    between atoms: C_10  and  C_12
REMARK    5  A    between atoms: N_17  and  C_28
REMARK    6  A    between atoms: N_19  and  C_20
REMARK    7  A    between atoms: C_28  and  C_29
REMARK                            x       y       z     vdW  Elec       q    Type
REMARK                         _______ _______ _______ _____ _____    ______ ____
ROOT
ATOM      1  C   UNL     1       7.365  -2.749   2.524  0.00  0.00    +0.148 C 
ATOM      2  C   UNL     1       8.174  -2.394   3.773  0.00  0.00    +0.120 C 
ATOM      3  C   UNL     1       9.389  -3.242   3.926  0.00  0.00    +0.223 C 
ATOM      4  O   UNL     1      10.314  -2.733   4.522  0.00  0.00    -0.275 OA
ATOM      5  N   UNL     1       9.593  -4.479   3.497  0.00  0.00    -0.246 N 
ATOM      6  C   UNL     1       8.719  -5.173   2.680  0.00  0.00    +0.164 C 
ATOM      7  N   UNL     1       9.097  -6.251   2.035  0.00  0.00    -0.226 NA
ATOM      8  S   UNL     1       7.066  -4.547   2.540  0.00  0.00    -0.077 S 
ENDROOT
BRANCH   7   9
ATOM      9  C   UNL     1       8.208  -6.917   1.233  0.00  0.00    +0.068 A 
ATOM     10  C   UNL     1       6.909  -7.164   1.682  0.00  0.00    +0.028 A 
ATOM     11  C   UNL     1       6.018  -7.835   0.870  0.00  0.00    +0.003 A 
ATOM     12  C   UNL     1       6.409  -8.264  -0.386  0.00  0.00    +0.020 A 
ATOM     13  C   UNL     1       7.696  -8.024  -0.837  0.00  0.00    +0.043 A 
ATOM     14  C   UNL     1       8.595  -7.347  -0.037  0.00  0.00    +0.047 A 
ATOM     15 CL   UNL     1       8.177  -8.567  -2.414  0.00  0.00    -0.083 Cl
ENDBRANCH   7   9
BRANCH   1  17
ATOM     16  N   UNL     1       5.450  -1.678   1.382  0.00  0.00    -0.314 N 
ATOM     17  C   UNL     1       6.050  -2.013   2.541  0.00  0.00    +0.227 C 
ATOM     18  O   UNL     1       5.532  -1.722   3.599  0.00  0.00    -0.275 OA
ATOM     19  H   UNL     1       5.864  -1.911   0.536  0.00  0.00    +0.149 HD
BRANCH  16  20
ATOM     20  C   UNL     1       4.171  -0.963   1.399  0.00  0.00    +0.109 C 
BRANCH  20  21
ATOM     21  C   UNL     1       3.711  -0.707  -0.038  0.00  0.00    +0.054 C 
BRANCH  21  25
ATOM     22  C   UNL     1      -0.017   1.378   0.010  0.00  0.00    +0.000 A 
ATOM     23  C   UNL     1       1.171   2.086   0.002  0.00  0.00    +0.000 A 
ATOM     24  C   UNL     1       2.377   1.411  -0.013  0.00  0.00    +0.004 A 
ATOM     25  C   UNL     1       2.396   0.029  -0.020  0.00  0.00    -0.046 A 
ATOM     26  C   UNL     1       1.208  -0.679  -0.012  0.00  0.00    +0.004 A 
ATOM     27  C   UNL     1       0.002  -0.004   0.002  0.00  0.00    +0.000 A 
ENDBRANCH  21  25
ENDBRANCH  20  21
ENDBRANCH  16  20
ENDBRANCH   1  17
BRANCH   5  28
ATOM     28  C   UNL     1      10.824  -5.154   3.914  0.00  0.00    +0.150 C 
BRANCH  28  29
ATOM     29  C   UNL     1      10.579  -5.894   5.204  0.00  0.00    -0.026 A 
ATOM     30  C   UNL     1      10.785  -5.257   6.414  0.00  0.00    +0.009 A 
ATOM     31  C   UNL     1      10.561  -5.931   7.600  0.00  0.00    +0.050 A 
ATOM     32  C   UNL     1      10.130  -7.247   7.578  0.00  0.00    +0.166 A 
ATOM     33  C   UNL     1       9.922  -7.889   6.360  0.00  0.00    +0.167 A 
ATOM     34  C   UNL     1      10.143  -7.205   5.175  0.00  0.00    +0.054 A 
ATOM     35  O   UNL     1       9.503  -9.165   6.604  0.00  0.00    -0.453 OA
ATOM     36  C   UNL     1       9.848  -9.426   7.977  0.00  0.00    +0.466 C 
ATOM     37  O   UNL     1       9.841  -8.122   8.586  0.00  0.00    -0.453 OA
ENDBRANCH  28  29
ENDBRANCH   5  28
TORSDOF 7
