REMARK  Name = ZINC33729879
REMARK  2 active torsions:
REMARK  status: ('A' for Active; 'I' for Inactive)
REMARK    1  A    between atoms: C_3  and  N_10
REMARK    2  A    between atoms: C_5  and  N_7
REMARK                            x       y       z     vdW  Elec       q    Type
REMARK                         _______ _______ _______ _____ _____    ______ ____
ROOT
ATOM      1  N   UNL     1       3.586   2.125  -0.021  0.00  0.00    -0.210 N 
ATOM      2  C   UNL     1       4.817   1.533  -0.042  0.00  0.00    +0.232 C 
ATOM      3  O   UNL     1       5.072   0.384  -0.332  0.00  0.00    -0.274 OA
ATOM      4  C   UNL     1       5.792   2.605   0.370  0.00  0.00    +0.107 C 
ATOM      5  C   UNL     1       7.120   2.736  -0.372  0.00  0.00    +0.071 C 
ATOM      6  C   UNL     1       6.988   2.266  -1.833  0.00  0.00    +0.021 C 
ATOM      7  C   UNL     1       8.024   3.172  -2.551  0.00  0.00    +0.017 C 
ATOM      8  C   UNL     1       7.907   4.508  -1.787  0.00  0.00    +0.086 C 
ATOM      9  N   UNL     1       7.347   4.216  -0.443  0.00  0.00    -0.281 NA
ATOM     10  C   UNL     1       6.019   4.883  -0.300  0.00  0.00    +0.138 C 
ATOM     11  C   UNL     1       5.030   3.793  -0.346  0.00  0.00    +0.123 C 
ATOM     12  C   UNL     1       3.655   3.496  -0.015  0.00  0.00    +0.233 C 
ATOM     13  O   UNL     1       2.763   4.283   0.218  0.00  0.00    -0.274 OA
ATOM     14  C   UNL     1       5.986   5.661   0.991  0.00  0.00    +0.005 A 
ATOM     15  C   UNL     1       6.084   5.295   2.314  0.00  0.00    +0.023 A 
ATOM     16  C   UNL     1       6.015   6.259   3.306  0.00  0.00    +0.018 A 
ATOM     17  C   UNL     1       5.848   7.589   2.962  0.00  0.00    +0.017 A 
ATOM     18  C   UNL     1       5.751   7.959   1.637  0.00  0.00    +0.025 A 
ATOM     19  C   UNL     1       5.819   6.995   0.634  0.00  0.00    +0.039 A 
ATOM     20  N   UNL     1       5.749   7.117  -0.755  0.00  0.00    -0.283 N 
ATOM     21  C   UNL     1       5.860   5.929  -1.376  0.00  0.00    +0.243 C 
ATOM     22  O   UNL     1       5.836   5.735  -2.573  0.00  0.00    -0.273 OA
ATOM     23 BR   UNL     1       6.147   5.759   5.125  0.00  0.00    -0.050 Br
ATOM     24  H   UNL     1       5.635   7.962  -1.219  0.00  0.00    +0.155 HD
ENDROOT
BRANCH   1  27
ATOM     25  C   UNL     1      -0.017   1.378   0.010  0.00  0.00    +0.004 A 
ATOM     26  C   UNL     1       1.169   2.087   0.002  0.00  0.00    +0.024 A 
ATOM     27  C   UNL     1       2.381   1.409  -0.013  0.00  0.00    +0.046 A 
ATOM     28  C   UNL     1       2.396   0.021  -0.021  0.00  0.00    +0.056 A 
ATOM     29  C   UNL     1       1.207  -0.682  -0.013  0.00  0.00    +0.128 A 
ATOM     30  C   UNL     1       0.002  -0.004   0.002  0.00  0.00    +0.033 A 
BRANCH  29  31
ATOM     31  N   UNL     1       1.223  -2.162  -0.022  0.00  0.00    +0.056 N 
ATOM     32  O   UNL     1       2.277  -2.755  -0.035  0.00  0.00    -0.126 OA
ATOM     33  O   UNL     1       0.183  -2.778  -0.015  0.00  0.00    -0.126 OA
ENDBRANCH  29  31
ENDBRANCH   1  27
TORSDOF 2
