REMARK  Name = ZINC63140198
REMARK  11 active torsions:
REMARK  status: ('A' for Active; 'I' for Inactive)
REMARK    1  A    between atoms: C_1  and  C_2
REMARK    2  A    between atoms: C_2  and  C_3
REMARK    3  A    between atoms: C_2  and  C_4
REMARK    4  A    between atoms: C_4  and  N_5
REMARK    5  A    between atoms: C_25  and  C_27
REMARK    6  A    between atoms: C_29  and  O_37
REMARK    7  A    between atoms: C_30  and  O_35
REMARK    8  A    between atoms: C_31  and  O_33
REMARK    9  A    between atoms: O_33  and  C_34
REMARK   10  A    between atoms: O_35  and  C_36
REMARK   11  A    between atoms: O_37  and  C_38
REMARK                            x       y       z     vdW  Elec       q    Type
REMARK                         _______ _______ _______ _____ _____    ______ ____
ROOT
ATOM      1  N   UNL     1      -1.163  -2.047   0.257  0.00  0.00    -0.291 N 
ATOM      2  C   UNL     1      -1.286  -2.495  -1.121  0.00  0.00    +0.203 C 
ATOM      3  C   UNL     1      -1.359  -3.982  -1.226  0.00  0.00    +0.234 C 
ATOM      4  O   UNL     1      -1.466  -4.464  -2.334  0.00  0.00    -0.274 OA
ATOM      5  N   UNL     1      -1.316  -4.822  -0.185  0.00  0.00    -0.279 N 
ATOM      6  C   UNL     1      -1.172  -4.363   1.192  0.00  0.00    +0.167 C 
ATOM      7  C   UNL     1      -1.105  -2.876   1.298  0.00  0.00    +0.237 C 
ATOM      8  O   UNL     1      -0.995  -2.390   2.404  0.00  0.00    -0.274 OA
ATOM      9  C   UNL     1       0.090  -4.980   1.822  0.00  0.00    +0.065 C 
ATOM     10  C   UNL     1       0.073  -6.447   1.469  0.00  0.00    -0.034 C 
ATOM     11  C   UNL     1       0.199  -7.534   2.220  0.00  0.00    -0.001 A 
ATOM     12  C   UNL     1       0.512  -7.709   3.648  0.00  0.00    +0.010 A 
ATOM     13  C   UNL     1       0.541  -8.989   4.103  0.00  0.00    +0.001 A 
ATOM     14  C   UNL     1       0.294 -10.101   3.291  0.00  0.00    +0.002 A 
ATOM     15  C   UNL     1       0.009 -10.034   1.966  0.00  0.00    +0.026 A 
ATOM     16  C   UNL     1      -0.043  -8.740   1.370  0.00  0.00    +0.043 A 
ATOM     17  N   UNL     1      -0.267  -8.389   0.138  0.00  0.00    -0.375 N 
ATOM     18  C   UNL     1      -0.136  -6.935   0.041  0.00  0.00    +0.131 C 
ATOM     19  C   UNL     1      -1.421  -6.272  -0.463  0.00  0.00    +0.134 C 
ATOM     20  H   UNL     1      -0.483  -8.990  -0.593  0.00  0.00    +0.160 HD
ENDROOT
BRANCH  19  21
ATOM     21  C   UNL     1      -2.611  -6.847   0.262  0.00  0.00    -0.018 A 
ATOM     22  C   UNL     1      -2.698  -6.738   1.637  0.00  0.00    +0.055 A 
ATOM     23  C   UNL     1      -3.791  -7.266   2.308  0.00  0.00    +0.165 A 
ATOM     24  C   UNL     1      -4.799  -7.905   1.597  0.00  0.00    +0.204 A 
ATOM     25  C   UNL     1      -4.707  -8.012   0.214  0.00  0.00    +0.165 A 
ATOM     26  C   UNL     1      -3.614  -7.477  -0.450  0.00  0.00    +0.055 A 
BRANCH  25  27
ATOM     27  O   UNL     1      -5.691  -8.636  -0.487  0.00  0.00    -0.491 OA
ATOM     28  C   UNL     1      -5.531  -8.710  -1.905  0.00  0.00    +0.277 C 
ENDBRANCH  25  27
BRANCH  24  29
ATOM     29  O   UNL     1      -5.873  -8.425   2.252  0.00  0.00    -0.488 OA
ATOM     30  C   UNL     1      -6.998  -7.564   2.438  0.00  0.00    +0.277 C 
ENDBRANCH  24  29
BRANCH  23  31
ATOM     31  O   UNL     1      -3.876  -7.159   3.662  0.00  0.00    -0.491 OA
ATOM     32  C   UNL     1      -2.803  -6.490   4.328  0.00  0.00    +0.277 C 
ENDBRANCH  23  31
ENDBRANCH  19  21
BRANCH   1  33
ATOM     33  C   UNL     1      -1.093  -0.607   0.513  0.00  0.00    +0.111 C 
BRANCH  33  35
ATOM     34  C   UNL     1       0.433   1.368   0.626  0.00  0.00    +0.009 C 
ATOM     35  C   UNL     1       0.368  -0.154   0.483  0.00  0.00    +0.000 C 
ATOM     36  C   UNL     1       1.128  -0.808   1.639  0.00  0.00    +0.009 C 
ENDBRANCH  33  35
ENDBRANCH   1  33
TORSDOF 6
