REMARK  Name = ZINC66078063
REMARK  5 active torsions:
REMARK  status: ('A' for Active; 'I' for Inactive)
REMARK    1  A    between atoms: C_1  and  N_2
REMARK    2  A    between atoms: N_10  and  C_13
REMARK    3  A    between atoms: C_13  and  C_14
REMARK    4  A    between atoms: N_16  and  C_17
REMARK    5  A    between atoms: N_21  and  C_23
REMARK                            x       y       z     vdW  Elec       q    Type
REMARK                         _______ _______ _______ _____ _____    ______ ____
ROOT
ATOM      1  C   UNL     1       0.038  -3.860  -3.992  0.00  0.00    +0.221 C 
ENDROOT
BRANCH   1  11
ATOM      2  C   UNL     1      -0.018   1.461   0.010  0.00  0.00    +0.174 C 
ATOM      3  N   UNL     1       0.002  -0.004   0.002  0.00  0.00    -0.248 N 
ATOM      4  C   UNL     1       0.008  -0.793  -1.103  0.00  0.00    +0.166 A 
ATOM      5  C   UNL     1       0.029  -2.121  -0.648  0.00  0.00    +0.117 A 
ATOM      6  C   UNL     1       0.035  -2.080   0.759  0.00  0.00    +0.142 A 
ATOM      7  N   UNL     1       0.025  -0.830   1.133  0.00  0.00    -0.162 NA
ATOM      8 BR   UNL     1       0.061  -3.580   1.910  0.00  0.00    -0.026 Br
ATOM      9  C   UNL     1       0.039  -3.191  -1.645  0.00  0.00    +0.266 A 
ATOM     10  O   UNL     1       0.057  -4.363  -1.314  0.00  0.00    -0.267 OA
ATOM     11  N   UNL     1       0.028  -2.830  -2.950  0.00  0.00    -0.290 N 
ATOM     12  C   UNL     1       0.009  -1.519  -3.297  0.00  0.00    +0.204 A 
ATOM     13  N   UNL     1      -0.001  -0.554  -2.424  0.00  0.00    -0.218 NA
ENDBRANCH   1  11
BRANCH   1  14
ATOM     14  C   UNL     1      -1.379  -4.234  -4.342  0.00  0.00    +0.233 C 
ATOM     15  O   UNL     1      -2.306  -3.693  -3.778  0.00  0.00    -0.274 OA
ATOM     16  N   UNL     1      -1.616  -5.169  -5.284  0.00  0.00    -0.313 N 
ATOM     17  H   UNL     1      -0.875  -5.601  -5.735  0.00  0.00    +0.149 HD
BRANCH  16  18
ATOM     18  C   UNL     1      -2.994  -5.532  -5.625  0.00  0.00    +0.055 C 
ATOM     19  C   UNL     1      -3.537  -4.598  -6.730  0.00  0.00    +0.002 C 
ATOM     20  C   UNL     1      -3.310  -5.423  -8.022  0.00  0.00    -0.077 C 
ATOM     21  N   UNL     1      -3.606  -6.814  -7.594  0.00  0.00    +0.383 N 
ATOM     22  C   UNL     1      -3.040  -6.946  -6.231  0.00  0.00    -0.056 C 
ATOM     23  H   UNL     1      -4.603  -6.967  -7.572  0.00  0.00    -0.081 HD
BRANCH  21  24
ATOM     24  C   UNL     1      -2.964  -7.771  -8.504  0.00  0.00    -0.069 C 
ATOM     25  C   UNL     1      -3.876  -8.634  -9.379  0.00  0.00    -0.017 C 
ATOM     26  C   UNL     1      -3.133  -9.261  -8.197  0.00  0.00    -0.017 C 
ENDBRANCH  21  24
ENDBRANCH  16  18
ENDBRANCH   1  14
TORSDOF 4
