REMARK  Name = ZINC24477888
REMARK  11 active torsions:
REMARK  status: ('A' for Active; 'I' for Inactive)
REMARK    1  A    between atoms: C_1  and  C_2
REMARK    2  A    between atoms: C_2  and  N_9
REMARK    3  A    between atoms: C_10  and  C_12
REMARK    4  A    between atoms: C_12  and  S_13
REMARK    5  A    between atoms: S_13  and  C_14
REMARK    6  A    between atoms: C_17  and  C_20
REMARK    7  A    between atoms: N_18  and  C_19
REMARK    8  A    between atoms: C_27  and  C_30
REMARK    9  A    between atoms: C_30  and  C_31
REMARK   10  A    between atoms: C_30  and  C_32
REMARK   11  A    between atoms: C_30  and  C_33
REMARK                            x       y       z     vdW  Elec       q    Type
REMARK                         _______ _______ _______ _____ _____    ______ ____
ROOT
ATOM      1  C   UNL     1      -2.520  -4.561   0.002  0.00  0.00    +0.192 A 
ATOM      2  N   UNL     1      -1.341  -5.139  -0.018  0.00  0.00    -0.122 NA
ATOM      3  N   UNL     1      -1.474  -6.417  -0.018  0.00  0.00    -0.128 NA
ATOM      4  C   UNL     1      -2.750  -6.735  -0.008  0.00  0.00    +0.171 A 
ATOM      5  N   UNL     1      -3.459  -5.555   0.005  0.00  0.00    -0.305 N 
ATOM      6  C   UNL     1      -4.915  -5.397   0.020  0.00  0.00    +0.153 C 
ENDROOT
BRANCH   4   7
ATOM      7  C   UNL     1      -3.313  -8.095  -0.010  0.00  0.00    +0.057 A 
ATOM      8  C   UNL     1      -2.698  -9.284  -0.297  0.00  0.00    +0.023 A 
ATOM      9  C   UNL     1      -3.424 -10.467  -0.239  0.00  0.00    -0.036 A 
ATOM     10  C   UNL     1      -4.738 -10.364   0.111  0.00  0.00    -0.006 A 
ATOM     11  S   UNL     1      -4.976  -8.626   0.369  0.00  0.00    -0.090 S 
ATOM     12  C   UNL     1      -5.733 -11.470   0.248  0.00  0.00    +0.043 C 
ATOM     13  C   UNL     1      -4.970 -12.803   0.292  0.00  0.00    +0.009 C 
ATOM     14  C   UNL     1      -3.944 -12.820  -0.844  0.00  0.00    -0.001 C 
ATOM     15  C   UNL     1      -2.815 -11.833  -0.545  0.00  0.00    +0.040 C 
BRANCH  14  16
ATOM     16  C   UNL     1      -3.363 -14.228  -0.983  0.00  0.00    -0.035 C 
ATOM     17  C   UNL     1      -2.669 -14.625   0.322  0.00  0.00    +0.011 C 
ATOM     18  C   UNL     1      -4.491 -15.218  -1.282  0.00  0.00    +0.011 C 
ATOM     19  C   UNL     1      -2.348 -14.251  -2.128  0.00  0.00    +0.011 C 
ENDBRANCH  14  16
ENDBRANCH   4   7
BRANCH   1  20
ATOM     20  S   UNL     1      -2.833  -2.827   0.014  0.00  0.00    -0.077 S 
BRANCH  20  21
ATOM     21  C   UNL     1      -1.135  -2.201   0.001  0.00  0.00    +0.173 C 
BRANCH  21  23
ATOM     22  N   UNL     1       0.002  -0.004   0.002  0.00  0.00    -0.308 N 
ATOM     23  C   UNL     1      -1.156  -0.694   0.009  0.00  0.00    +0.224 C 
ATOM     24  O   UNL     1      -2.214  -0.102   0.023  0.00  0.00    -0.275 OA
ATOM     25  H   UNL     1       0.962  -0.541  -0.010  0.00  0.00    +0.149 HD
BRANCH  22  27
ATOM     26  C   UNL     1      -0.695   1.933   1.298  0.00  0.00    +0.033 C 
ATOM     27  C   UNL     1      -0.018   1.461   0.010  0.00  0.00    +0.052 C 
ATOM     28  C   UNL     1      -0.844   1.946  -1.180  0.00  0.00    +0.049 C 
ATOM     29  C   UNL     1      -0.352   3.346  -1.643  0.00  0.00    +0.168 C 
ATOM     30  S   UNL     1       1.469   3.111  -1.449  0.00  0.00    -0.029 S 
ATOM     31  O   UNL     1       2.060   4.344  -1.061  0.00  0.00    -0.174 OA
ATOM     32  O   UNL     1       1.975   2.414  -2.579  0.00  0.00    -0.174 OA
ATOM     33  C   UNL     1       1.435   1.974  -0.001  0.00  0.00    +0.191 C 
ENDBRANCH  22  27
ENDBRANCH  21  23
ENDBRANCH  20  21
ENDBRANCH   1  20
TORSDOF 6
