REMARK  Name = ZINC08687029
REMARK  12 active torsions:
REMARK  status: ('A' for Active; 'I' for Inactive)
REMARK    1  A    between atoms: C_1  and  C_2
REMARK    2  A    between atoms: C_5  and  C_8
REMARK    3  A    between atoms: C_8  and  C_10
REMARK    4  A    between atoms: C_8  and  N_19
REMARK    5  A    between atoms: N_12  and  C_13
REMARK    6  A    between atoms: C_13  and  C_14
REMARK    7  A    between atoms: N_19  and  C_20
REMARK    8  A    between atoms: C_21  and  C_27
REMARK    9  A    between atoms: C_25  and  C_26
REMARK   10  A    between atoms: C_28  and  C_30
REMARK   11  A    between atoms: C_30  and  N_31
REMARK   12  A    between atoms: C_32  and  C_34
REMARK                            x       y       z     vdW  Elec       q    Type
REMARK                         _______ _______ _______ _____ _____    ______ ____
ROOT
ATOM      1  N   UNL     1      -0.863  -4.694   0.679  0.00  0.00    -0.254 N 
ATOM      2  C   UNL     1      -1.784  -5.116  -0.209  0.00  0.00    +0.238 C 
ATOM      3  O   UNL     1      -1.529  -5.111  -1.395  0.00  0.00    -0.274 OA
ENDROOT
BRANCH   1   4
ATOM      4  C   UNL     1      -1.157  -4.699   2.047  0.00  0.00    +0.043 A 
ATOM      5  C   UNL     1      -1.592  -3.537   2.670  0.00  0.00    -0.029 A 
ATOM      6  C   UNL     1      -1.881  -3.545   4.021  0.00  0.00    +0.005 A 
ATOM      7  C   UNL     1      -1.739  -4.710   4.752  0.00  0.00    +0.001 A 
ATOM      8  C   UNL     1      -1.307  -5.869   4.135  0.00  0.00    +0.005 A 
ATOM      9  C   UNL     1      -1.020  -5.869   2.784  0.00  0.00    -0.029 A 
ATOM     10  C   UNL     1      -0.554  -7.134   2.111  0.00  0.00    +0.045 C 
ATOM     11  C   UNL     1      -1.747  -2.267   1.874  0.00  0.00    +0.045 C 
ENDBRANCH   1   4
BRANCH   1  12
ATOM     12  C   UNL     1       0.446  -4.229   0.213  0.00  0.00    +0.197 C 
BRANCH  12  17
ATOM     13  C   UNL     1       3.487  -2.228   4.701  0.00  0.00    +0.044 C 
ATOM     14  C   UNL     1       2.694  -2.750   3.531  0.00  0.00    -0.050 A 
ATOM     15  C   UNL     1       2.422  -1.924   2.456  0.00  0.00    +0.004 A 
ATOM     16  C   UNL     1       1.695  -2.402   1.383  0.00  0.00    +0.006 A 
ATOM     17  C   UNL     1       1.240  -3.708   1.383  0.00  0.00    -0.018 A 
ATOM     18  C   UNL     1       1.512  -4.534   2.457  0.00  0.00    +0.006 A 
ATOM     19  C   UNL     1       2.243  -4.057   3.529  0.00  0.00    +0.004 A 
ENDBRANCH  12  17
BRANCH  12  20
ATOM     20  C   UNL     1       1.187  -5.375  -0.426  0.00  0.00    +0.239 C 
ATOM     21  O   UNL     1       0.883  -6.518  -0.159  0.00  0.00    -0.273 OA
ATOM     22  N   UNL     1       2.189  -5.130  -1.294  0.00  0.00    -0.306 N 
ATOM     23  H   UNL     1       2.432  -4.215  -1.507  0.00  0.00    +0.149 HD
BRANCH  22  24
ATOM     24  C   UNL     1       2.909  -6.244  -1.915  0.00  0.00    +0.178 C 
BRANCH  24  25
ATOM     25  C   UNL     1       3.972  -5.703  -2.837  0.00  0.00    +0.122 A 
ATOM     26  C   UNL     1       5.242  -5.423  -2.495  0.00  0.00    +0.046 A 
ATOM     27  C   UNL     1       5.884  -4.942  -3.659  0.00  0.00    +0.041 A 
ATOM     28  C   UNL     1       4.967  -4.957  -4.643  0.00  0.00    +0.195 A 
ATOM     29  O   UNL     1       3.812  -5.423  -4.141  0.00  0.00    -0.466 OA
ENDBRANCH  24  25
ENDBRANCH  22  24
ENDBRANCH  12  20
ENDBRANCH   1  12
BRANCH   2  30
ATOM     30  C   UNL     1      -3.130  -5.593   0.270  0.00  0.00    +0.201 C 
BRANCH  30  31
ATOM     31  N   UNL     1      -3.944  -5.995  -0.880  0.00  0.00    -0.302 N 
ATOM     32  C   UNL     1      -5.195  -6.459  -0.692  0.00  0.00    +0.251 C 
ATOM     33  O   UNL     1      -5.649  -6.545   0.434  0.00  0.00    -0.270 OA
ATOM     34  H   UNL     1      -3.582  -5.927  -1.778  0.00  0.00    +0.150 HD
BRANCH  32  35
ATOM     35  C   UNL     1      -6.010  -6.861  -1.842  0.00  0.00    +0.074 A 
ATOM     36  C   UNL     1      -7.306  -7.352  -1.867  0.00  0.00    +0.021 A 
ATOM     37  C   UNL     1      -7.810  -7.645  -3.112  0.00  0.00    +0.008 A 
ATOM     38  C   UNL     1      -7.031  -7.439  -4.203  0.00  0.00    +0.046 A 
ATOM     39  S   UNL     1      -5.594  -6.837  -3.576  0.00  0.00    -0.092 S 
ENDBRANCH  32  35
ENDBRANCH  30  31
ENDBRANCH   2  30
TORSDOF 9
