REMARK  Name = ZINC39945010
REMARK  6 active torsions:
REMARK  status: ('A' for Active; 'I' for Inactive)
REMARK    1  A    between atoms: C_3  and  C_9
REMARK    2  A    between atoms: C_11  and  S_15
REMARK    3  A    between atoms: S_15  and  C_16
REMARK    4  A    between atoms: C_16  and  C_17
REMARK    5  A    between atoms: N_19  and  C_20
REMARK    6  A    between atoms: C_22  and  C_31
REMARK                            x       y       z     vdW  Elec       q    Type
REMARK                         _______ _______ _______ _____ _____    ______ ____
ROOT
ATOM      1  C   UNL     1       8.856   0.021   0.296  0.00  0.00    +0.224 C 
ATOM      2  O   UNL     1       9.593   0.974   0.152  0.00  0.00    -0.275 OA
ATOM      3  N   UNL     1       9.347  -1.230   0.207  0.00  0.00    -0.302 N 
ATOM      4  H   UNL     1       8.758  -1.992   0.323  0.00  0.00    +0.150 HD
ENDROOT
BRANCH   3   5
ATOM      5  C   UNL     1      10.771  -1.441  -0.064  0.00  0.00    +0.151 C 
ATOM      6  C   UNL     1      11.398  -2.442   0.936  0.00  0.00    +0.132 C 
ATOM      7  C   UNL     1      12.800  -2.040   1.320  0.00  0.00    -0.046 C 
ATOM      8  C   UNL     1      13.159  -0.780   1.105  0.00  0.00    -0.013 C 
ATOM      9  S   UNL     1      11.769   0.047   0.365  0.00  0.00    -0.106 S 
ATOM     10  C   UNL     1      14.489  -0.153   1.418  0.00  0.00    +0.042 C 
ATOM     11  C   UNL     1      15.264  -1.081   2.360  0.00  0.00    +0.005 C 
ATOM     12  C   UNL     1      15.198  -2.506   1.800  0.00  0.00    +0.005 C 
ATOM     13  C   UNL     1      13.774  -3.042   1.937  0.00  0.00    +0.032 C 
BRANCH   6  14
ATOM     14  C   UNL     1      11.437  -3.809   0.303  0.00  0.00    +0.220 C 
ATOM     15  O   UNL     1      11.659  -3.923  -0.884  0.00  0.00    -0.275 OA
ATOM     16  N   UNL     1      11.226  -4.907   1.057  0.00  0.00    -0.329 N 
ATOM     17  H   UNL     1      11.049  -4.816   2.006  0.00  0.00    +0.145 HD
ATOM     18  H   UNL     1      11.251  -5.787   0.650  0.00  0.00    +0.145 HD
ENDBRANCH   6  14
ENDBRANCH   3   5
BRANCH   1  19
ATOM     19  C   UNL     1       7.391   0.238   0.576  0.00  0.00    +0.173 C 
BRANCH  19  20
ATOM     20  S   UNL     1       7.043   2.018   0.636  0.00  0.00    -0.077 S 
BRANCH  20  23
ATOM     21  C   UNL     1       3.262   1.517   1.360  0.00  0.00    +0.184 A 
ATOM     22  N   UNL     1       4.507   1.078   1.124  0.00  0.00    -0.201 NA
ATOM     23  C   UNL     1       5.315   2.103   0.966  0.00  0.00    +0.185 A 
ATOM     24  N   UNL     1       4.587   3.234   1.100  0.00  0.00    -0.253 N 
ATOM     25  H   UNL     1       4.913   4.146   1.034  0.00  0.00    +0.191 HD
ATOM     26  N   UNL     1       3.265   2.831   1.348  0.00  0.00    -0.152 NA
BRANCH  21  29
ATOM     27  C   UNL     1      -0.275   0.437   2.034  0.00  0.00    +0.021 A 
ATOM     28  C   UNL     1       0.827   1.239   1.820  0.00  0.00    +0.014 A 
ATOM     29  C   UNL     1       2.073   0.660   1.591  0.00  0.00    +0.039 A 
ATOM     30  C   UNL     1       2.200  -0.729   1.578  0.00  0.00    +0.053 A 
ATOM     31  C   UNL     1       1.090  -1.523   1.792  0.00  0.00    +0.040 A 
ATOM     32  C   UNL     1      -0.146  -0.941   2.020  0.00  0.00    +0.042 A 
ATOM     33 CL   UNL     1      -1.537  -1.944   2.289  0.00  0.00    -0.083 Cl
ATOM     34 CL   UNL     1       3.749  -1.459   1.292  0.00  0.00    -0.083 Cl
ENDBRANCH  21  29
ENDBRANCH  20  23
ENDBRANCH  19  20
ENDBRANCH   1  19
TORSDOF 6
