REMARK  Name = ZINC27562698
REMARK  9 active torsions:
REMARK  status: ('A' for Active; 'I' for Inactive)
REMARK    1  A    between atoms: C_1  and  O_2
REMARK    2  A    between atoms: O_2  and  C_3
REMARK    3  A    between atoms: C_6  and  C_9
REMARK    4  A    between atoms: C_11  and  C_31
REMARK    5  A    between atoms: C_12  and  N_14
REMARK    6  A    between atoms: N_14  and  C_15
REMARK    7  A    between atoms: C_15  and  C_16
REMARK    8  A    between atoms: C_16  and  C_18
REMARK    9  A    between atoms: C_16  and  N_25
REMARK                            x       y       z     vdW  Elec       q    Type
REMARK                         _______ _______ _______ _____ _____    ______ ____
ROOT
ATOM      1  N   UNL     1      -6.091   0.695   0.508  0.00  0.00    -0.314 N 
ATOM      2  H   UNL     1      -6.780  -0.140   0.702  0.00  0.00    +0.149 HD
ENDROOT
BRANCH   1   6
ATOM      3  C   UNL     1      -2.575   0.841   0.613  0.00  0.00    +0.231 A 
ATOM      4  N   UNL     1      -2.750  -0.414   0.934  0.00  0.00    -0.196 NA
ATOM      5  C   UNL     1      -4.085  -0.675   0.955  0.00  0.00    +0.201 A 
ATOM      6  C   UNL     1      -4.731   0.503   0.615  0.00  0.00    +0.225 A 
ATOM      7  O   UNL     1      -3.771   1.425   0.408  0.00  0.00    -0.421 OA
BRANCH   3  11
ATOM      8  C   UNL     1       1.190   2.775   0.245  0.00  0.00    +0.120 A 
ATOM      9  C   UNL     1       1.132   1.434   0.601  0.00  0.00    +0.046 A 
ATOM     10  C   UNL     1      -0.087   0.803   0.724  0.00  0.00    +0.017 A 
ATOM     11  C   UNL     1      -1.266   1.514   0.487  0.00  0.00    +0.037 A 
ATOM     12  C   UNL     1      -1.204   2.864   0.135  0.00  0.00    +0.017 A 
ATOM     13  C   UNL     1       0.020   3.487   0.013  0.00  0.00    +0.046 A 
BRANCH   8  15
ATOM     14  C   UNL     1       2.380   4.774  -0.244  0.00  0.00    +0.277 C 
ATOM     15  O   UNL     1       2.394   3.393   0.124  0.00  0.00    -0.495 OA
ENDBRANCH   8  15
ENDBRANCH   3  11
BRANCH   5  16
ATOM     16  C   UNL     1      -4.704  -1.928   1.264  0.00  0.00    +0.124 C 
ATOM     17  N   UNL     1      -5.196  -2.923   1.509  0.00  0.00    -0.189 NA
ENDBRANCH   5  16
ENDBRANCH   1   6
BRANCH   1  18
ATOM     18  C   UNL     1      -6.619   2.009   0.136  0.00  0.00    +0.094 C 
BRANCH  18  19
ATOM     19  C   UNL     1      -8.131   1.911  -0.074  0.00  0.00    -0.020 C 
BRANCH  19  20
ATOM     20  C   UNL     1      -8.682   3.273  -0.409  0.00  0.00    -0.059 A 
ATOM     21  C   UNL     1      -8.490   3.805  -1.670  0.00  0.00    +0.003 A 
ATOM     22  C   UNL     1      -9.000   5.052  -1.979  0.00  0.00    +0.020 A 
ATOM     23  C   UNL     1      -9.692   5.773  -1.023  0.00  0.00    +0.041 A 
ATOM     24  C   UNL     1      -9.879   5.242   0.241  0.00  0.00    +0.020 A 
ATOM     25  C   UNL     1      -9.374   3.993   0.547  0.00  0.00    +0.003 A 
ATOM     26 CL   UNL     1     -10.326   7.342  -1.408  0.00  0.00    -0.084 Cl
ENDBRANCH  19  20
BRANCH  19  27
ATOM     27  N   UNL     1      -8.413   0.984  -1.179  0.00  0.00    +0.385 N 
ATOM     28  C   UNL     1      -8.703  -0.364  -0.674  0.00  0.00    -0.078 C 
ATOM     29  C   UNL     1      -9.132  -1.264  -1.835  0.00  0.00    -0.019 C 
ATOM     30  C   UNL     1      -8.009  -1.318  -2.875  0.00  0.00    -0.004 C 
ATOM     31  C   UNL     1      -7.694   0.103  -3.349  0.00  0.00    -0.019 C 
ATOM     32  C   UNL     1      -7.306   0.963  -2.144  0.00  0.00    -0.078 C 
ATOM     33  H   UNL     1      -9.309   1.345  -1.705  0.00  0.00    -0.081 HD
ENDBRANCH  19  27
ENDBRANCH  18  19
ENDBRANCH   1  18
TORSDOF 8
