REMARK  Name = ZINC09391513
REMARK  14 active torsions:
REMARK  status: ('A' for Active; 'I' for Inactive)
REMARK    1  A    between atoms: C_1  and  C_2
REMARK    2  A    between atoms: C_2  and  C_3
REMARK    3  A    between atoms: C_3  and  C_4
REMARK    4  A    between atoms: C_4  and  N_5
REMARK    5  A    between atoms: N_5  and  C_6
REMARK    6  A    between atoms: N_5  and  S_7
REMARK    7  A    between atoms: S_7  and  C_10
REMARK    8  A    between atoms: C_13  and  C_16
REMARK    9  A    between atoms: N_18  and  C_19
REMARK   10  A    between atoms: C_20  and  C_31
REMARK   11  A    between atoms: C_24  and  C_29
REMARK   12  A    between atoms: C_24  and  C_30
REMARK   13  A    between atoms: C_25  and  C_27
REMARK   14  A    between atoms: C_25  and  C_28
REMARK                            x       y       z     vdW  Elec       q    Type
REMARK                         _______ _______ _______ _____ _____    ______ ____
ROOT
ATOM      1  C   UNL     1      -3.120   3.066   4.885  0.00  0.00    +0.249 C 
ATOM      2  O   UNL     1      -3.929   2.304   5.377  0.00  0.00    -0.270 OA
ATOM      3  N   UNL     1      -2.920   4.281   5.431  0.00  0.00    -0.275 N 
ATOM      4  H   UNL     1      -2.275   4.890   5.039  0.00  0.00    +0.156 HD
ENDROOT
BRANCH   3   5
ATOM      5  C   UNL     1      -3.636   4.662   6.556  0.00  0.00    +0.090 A 
ATOM      6  C   UNL     1      -3.569   5.862   7.255  0.00  0.00    +0.084 A 
ATOM      7  C   UNL     1      -4.436   6.012   8.403  0.00  0.00    -0.021 A 
ATOM      8  C   UNL     1      -5.224   4.946   8.682  0.00  0.00    -0.015 A 
ATOM      9  S   UNL     1      -4.829   3.760   7.431  0.00  0.00    -0.078 S 
ATOM     10  C   UNL     1      -6.196   4.830   9.811  0.00  0.00    -0.041 C 
ATOM     11  C   UNL     1      -5.976   7.317   9.816  0.00  0.00    -0.069 C 
ATOM     12  C   UNL     1      -4.536   7.242   9.294  0.00  0.00    +0.024 C 
ATOM     13  C   UNL     1      -6.920   7.617   8.649  0.00  0.00    -0.010 C 
ATOM     14  C   UNL     1      -6.058   8.495  10.806  0.00  0.00    -0.010 C 
ATOM     15  C   UNL     1      -7.543   4.329   9.274  0.00  0.00    -0.005 C 
ATOM     16  C   UNL     1      -5.661   3.782  10.805  0.00  0.00    -0.005 C 
ATOM     17  N   UNL     1      -6.391   6.103  10.564  0.00  0.00    +0.389 N 
ATOM     18  H   UNL     1      -5.841   6.053  11.430  0.00  0.00    -0.084 HD
ATOM     19  H   UNL     1      -7.387   6.191  10.795  0.00  0.00    -0.084 HD
BRANCH   6  20
ATOM     20  C   UNL     1      -2.669   6.899   6.847  0.00  0.00    +0.102 C 
ATOM     21  N   UNL     1      -1.955   7.721   6.523  0.00  0.00    -0.191 NA
ENDBRANCH   6  20
ENDBRANCH   3   5
BRANCH   1  25
ATOM     22  C   UNL     1      -0.927   1.900   1.439  0.00  0.00    +0.106 A 
ATOM     23  C   UNL     1      -0.715   3.147   2.002  0.00  0.00    +0.029 A 
ATOM     24  C   UNL     1      -1.427   3.533   3.118  0.00  0.00    +0.015 A 
ATOM     25  C   UNL     1      -2.357   2.660   3.686  0.00  0.00    +0.037 A 
ATOM     26  C   UNL     1      -2.562   1.402   3.117  0.00  0.00    +0.015 A 
ATOM     27  C   UNL     1      -1.846   1.030   1.998  0.00  0.00    +0.029 A 
BRANCH  22  28
ATOM     28  S   UNL     1      -0.017   1.417   0.010  0.00  0.00    +0.061 S 
ATOM     29  O   UNL     1       0.002  -0.004   0.002  0.00  0.00    -0.153 OA
ATOM     30  O   UNL     1       1.172   2.195   0.003  0.00  0.00    -0.153 OA
BRANCH  28  31
ATOM     31  N   UNL     1      -0.897   1.885  -1.312  0.00  0.00    -0.180 NA
ATOM     32  C   UNL     1      -0.691   3.213  -1.897  0.00  0.00    +0.131 C 
BRANCH  31  33
ATOM     33  C   UNL     1      -1.883   0.973  -1.897  0.00  0.00    +0.109 C 
BRANCH  33  34
ATOM     34  C   UNL     1      -3.267   1.280  -1.323  0.00  0.00    +0.017 C 
BRANCH  34  36
ATOM     35  C   UNL     1      -5.680   0.634  -1.359  0.00  0.00    +0.004 C 
ATOM     36  C   UNL     1      -4.296   0.327  -1.934  0.00  0.00    -0.002 C 
ENDBRANCH  34  36
ENDBRANCH  33  34
ENDBRANCH  31  33
ENDBRANCH  28  31
ENDBRANCH  22  28
ENDBRANCH   1  25
TORSDOF 8
