REMARK  Name = ZINC64677918
REMARK  11 active torsions:
REMARK  status: ('A' for Active; 'I' for Inactive)
REMARK    1  A    between atoms: C_1  and  C_2
REMARK    2  A    between atoms: C_4  and  C_18
REMARK    3  A    between atoms: C_5  and  C_17
REMARK    4  A    between atoms: N_6  and  C_7
REMARK    5  A    between atoms: C_10  and  C_13
REMARK    6  A    between atoms: C_13  and  O_15
REMARK    7  A    between atoms: O_15  and  C_16
REMARK    8  A    between atoms: C_18  and  C_20
REMARK    9  A    between atoms: C_20  and  N_21
REMARK   10  A    between atoms: C_24  and  C_29
REMARK   11  A    between atoms: C_29  and  C_30
REMARK                            x       y       z     vdW  Elec       q    Type
REMARK                         _______ _______ _______ _____ _____    ______ ____
ROOT
ATOM      1  C   UNL     1       0.034  -3.266  -2.954  0.00  0.00    +0.197 C 
ENDROOT
BRANCH   1   2
ATOM      2  N   UNL     1       0.049  -4.607  -3.544  0.00  0.00    -0.217 N 
ATOM      3  C   UNL     1       1.172  -5.286  -3.849  0.00  0.00    +0.244 C 
ATOM      4  O   UNL     1       2.317  -4.918  -3.693  0.00  0.00    -0.273 OA
ATOM      5  C   UNL     1       0.707  -6.608  -4.427  0.00  0.00    +0.165 C 
ATOM      6  N   UNL     1      -0.762  -6.510  -4.376  0.00  0.00    -0.287 N 
ATOM      7  C   UNL     1      -1.049  -5.310  -3.841  0.00  0.00    +0.310 C 
ATOM      8  O   UNL     1      -2.181  -4.907  -3.652  0.00  0.00    -0.252 OA
ATOM      9  H   UNL     1      -1.398  -7.182  -4.668  0.00  0.00    +0.151 HD
BRANCH   5  10
ATOM     10  C   UNL     1       1.202  -7.775  -3.571  0.00  0.00    +0.065 C 
BRANCH  10  11
ATOM     11  C   UNL     1       0.831  -9.077  -4.232  0.00  0.00    -0.039 C 
ATOM     12  C   UNL     1       1.609  -9.825  -5.048  0.00  0.00    -0.001 A 
ATOM     13  C   UNL     1       2.979  -9.655  -5.546  0.00  0.00    +0.010 A 
ATOM     14  C   UNL     1       3.498 -10.594  -6.370  0.00  0.00    +0.001 A 
ATOM     15  C   UNL     1       2.762 -11.721  -6.760  0.00  0.00    +0.002 A 
ATOM     16  C   UNL     1       1.498 -11.946  -6.344  0.00  0.00    +0.026 A 
ATOM     17  C   UNL     1       0.853 -11.024  -5.474  0.00  0.00    +0.043 A 
ATOM     18  N   UNL     1      -0.346 -11.018  -4.943  0.00  0.00    -0.380 N 
ATOM     19  C   UNL     1      -0.483  -9.816  -4.113  0.00  0.00    +0.144 C 
ATOM     20  H   UNL     1      -1.026 -11.697  -5.072  0.00  0.00    +0.160 HD
ENDBRANCH  10  11
ENDBRANCH   5  10
ENDBRANCH   1   2
BRANCH   1  21
ATOM     21  C   UNL     1       0.042  -3.378  -1.451  0.00  0.00    +0.183 C 
ATOM     22  O   UNL     1       0.060  -4.472  -0.924  0.00  0.00    -0.290 OA
BRANCH  21  26
ATOM     23  C   UNL     1      -0.018   1.503   0.010  0.00  0.00    +0.064 C 
ATOM     24  C   UNL     1       0.002  -0.004   0.002  0.00  0.00    +0.022 A 
ATOM     25  C   UNL     1       0.008  -0.777  -1.097  0.00  0.00    +0.034 A 
ATOM     26  C   UNL     1       0.030  -2.168  -0.626  0.00  0.00    +0.040 A 
ATOM     27  C   UNL     1       0.035  -2.102   0.754  0.00  0.00    +0.031 A 
ATOM     28  N   UNL     1       0.024  -0.803   1.112  0.00  0.00    -0.317 N 
ATOM     29  C   UNL     1       0.056  -3.279   1.696  0.00  0.00    +0.064 C 
BRANCH  28  30
ATOM     30  C   UNL     1       0.029  -0.338   2.430  0.00  0.00    +0.047 A 
ATOM     31  C   UNL     1       1.135  -0.566   3.242  0.00  0.00    +0.027 A 
ATOM     32  C   UNL     1       1.144  -0.110   4.541  0.00  0.00    +0.017 A 
ATOM     33  C   UNL     1       0.040   0.584   5.043  0.00  0.00    +0.059 A 
ATOM     34  C   UNL     1      -1.070   0.812   4.225  0.00  0.00    +0.017 A 
ATOM     35  C   UNL     1      -1.069   0.358   2.925  0.00  0.00    +0.027 A 
BRANCH  33  36
ATOM     36  C   UNL     1       0.045   1.074   6.435  0.00  0.00    +0.339 C 
ATOM     37  O   UNL     1       1.010   0.875   7.146  0.00  0.00    -0.245 OA
BRANCH  36  38
ATOM     38  O   UNL     1      -1.020   1.743   6.918  0.00  0.00    -0.464 OA
ATOM     39  C   UNL     1      -0.947   2.189   8.274  0.00  0.00    +0.280 C 
ENDBRANCH  36  38
ENDBRANCH  33  36
ENDBRANCH  28  30
ENDBRANCH  21  26
ENDBRANCH   1  21
TORSDOF 8
