REMARK  Name = ZINC06658978
REMARK  6 active torsions:
REMARK  status: ('A' for Active; 'I' for Inactive)
REMARK    1  A    between atoms: C_3  and  N_8
REMARK    2  A    between atoms: N_20  and  C_21
REMARK    3  A    between atoms: C_21  and  C_23
REMARK    4  A    between atoms: C_23  and  O_24
REMARK    5  A    between atoms: O_24  and  C_25
REMARK    6  A    between atoms: C_25  and  C_26
REMARK                            x       y       z     vdW  Elec       q    Type
REMARK                         _______ _______ _______ _____ _____    ______ ____
ROOT
ATOM      1  N   UNL     1      -4.975  -5.249   0.021  0.00  0.00    -0.276 N 
ATOM      2  C   UNL     1      -6.405  -5.479  -0.058  0.00  0.00    +0.116 C 
ATOM      3  C   UNL     1      -6.715  -6.318  -1.320  0.00  0.00    +0.190 C 
ATOM      4  S   UNL     1      -8.371  -5.666  -1.808  0.00  0.00    -0.028 S 
ATOM      5  O   UNL     1      -9.393  -6.270  -1.028  0.00  0.00    -0.174 OA
ATOM      6  O   UNL     1      -8.466  -5.678  -3.226  0.00  0.00    -0.174 OA
ATOM      7  C   UNL     1      -8.101  -3.934  -1.229  0.00  0.00    +0.182 C 
ATOM      8  C   UNL     1      -7.204  -4.171   0.001  0.00  0.00    +0.097 C 
ATOM      9  S   UNL     1      -5.863  -2.929   0.077  0.00  0.00    -0.086 S 
ATOM     10  C   UNL     1      -4.491  -3.982   0.065  0.00  0.00    +0.154 C 
ATOM     11  N   UNL     1      -3.213  -3.622   0.097  0.00  0.00    -0.157 NA
ENDROOT
BRANCH   1  14
ATOM     12  C   UNL     1      -2.363  -7.637  -0.979  0.00  0.00    +0.005 A 
ATOM     13  C   UNL     1      -3.233  -6.564  -1.012  0.00  0.00    +0.023 A 
ATOM     14  C   UNL     1      -4.094  -6.335   0.053  0.00  0.00    +0.038 A 
ATOM     15  C   UNL     1      -4.074  -7.183   1.153  0.00  0.00    +0.061 A 
ATOM     16  C   UNL     1      -3.205  -8.258   1.179  0.00  0.00    +0.125 A 
ATOM     17  C   UNL     1      -2.348  -8.483   0.113  0.00  0.00    +0.038 A 
ATOM     18  F   UNL     1      -3.187  -9.087   2.246  0.00  0.00    -0.205 F 
ENDBRANCH   1  14
BRANCH  11  19
ATOM     19  C   UNL     1      -2.886  -2.333   0.138  0.00  0.00    +0.264 C 
ATOM     20  O   UNL     1      -3.758  -1.485   0.146  0.00  0.00    -0.271 OA
BRANCH  19  21
ATOM     21  C   UNL     1      -1.437  -1.923   0.175  0.00  0.00    +0.258 C 
BRANCH  21  22
ATOM     22  O   UNL     1      -1.345  -0.498   0.216  0.00  0.00    -0.359 OA
BRANCH  22  23
ATOM     23  C   UNL     1      -0.005  -0.002   0.253  0.00  0.00    +0.285 C 
BRANCH  23  24
ATOM     24  C   UNL     1      -0.027   1.504   0.294  0.00  0.00    +0.381 C 
ATOM     25  O   UNL     1      -1.082   2.093   0.286  0.00  0.00    -0.244 OA
ATOM     26  O   UNL     1       1.125   2.191   0.333  0.00  0.00    -0.244 OA
ENDBRANCH  23  24
ENDBRANCH  22  23
ENDBRANCH  21  22
ENDBRANCH  19  21
ENDBRANCH  11  19
TORSDOF 6
