REMARK  Name = ZINC37360298
REMARK  9 active torsions:
REMARK  status: ('A' for Active; 'I' for Inactive)
REMARK    1  A    between atoms: C_1  and  C_2
REMARK    2  A    between atoms: C_6  and  N_8
REMARK    3  A    between atoms: C_9  and  N_30
REMARK    4  A    between atoms: C_11  and  C_23
REMARK    5  A    between atoms: N_17  and  C_18
REMARK    6  A    between atoms: C_18  and  C_19
REMARK    7  A    between atoms: C_19  and  N_20
REMARK    8  A    between atoms: N_20  and  C_21
REMARK    9  A    between atoms: N_20  and  C_22
REMARK                            x       y       z     vdW  Elec       q    Type
REMARK                         _______ _______ _______ _____ _____    ______ ____
ROOT
ATOM      1  N   UNL     1      -0.293  -2.682   2.574  0.00  0.00    -0.216 N 
ATOM      2  C   UNL     1      -0.632  -3.983   2.666  0.00  0.00    +0.131 A 
ATOM      3  C   UNL     1      -0.082  -4.476   3.844  0.00  0.00    +0.086 A 
ATOM      4  C   UNL     1      -0.065  -5.722   4.508  0.00  0.00    +0.089 A 
ATOM      5  N   UNL     1       0.591  -5.812   5.659  0.00  0.00    -0.214 NA
ATOM      6  C   UNL     1       1.224  -4.773   6.195  0.00  0.00    +0.218 A 
ATOM      7  N   UNL     1       1.258  -3.577   5.644  0.00  0.00    -0.193 NA
ATOM      8  C   UNL     1       0.632  -3.350   4.473  0.00  0.00    +0.189 A 
ATOM      9  N   UNL     1       0.481  -2.312   3.680  0.00  0.00    -0.144 NA
ATOM     10  N   UNL     1       1.881  -4.958   7.398  0.00  0.00    -0.315 N 
ATOM     11  H   UNL     1       1.872  -5.828   7.827  0.00  0.00    +0.149 HD
ENDROOT
BRANCH   1  17
ATOM     12  C   UNL     1      -1.571   1.803   1.016  0.00  0.00    +0.044 C 
ATOM     13  C   UNL     1      -1.282   0.350   0.742  0.00  0.00    -0.048 A 
ATOM     14  C   UNL     1      -1.374  -0.142  -0.547  0.00  0.00    +0.003 A 
ATOM     15  C   UNL     1      -1.109  -1.475  -0.803  0.00  0.00    +0.002 A 
ATOM     16  C   UNL     1      -0.750  -2.320   0.230  0.00  0.00    +0.028 A 
ATOM     17  C   UNL     1      -0.656  -1.829   1.526  0.00  0.00    +0.068 A 
ATOM     18  C   UNL     1      -0.918  -0.488   1.778  0.00  0.00    +0.031 A 
ENDBRANCH   1  17
BRANCH   4  19
ATOM     19  C   UNL     1      -0.760  -6.897   3.937  0.00  0.00    +0.003 A 
ATOM     20  C   UNL     1      -0.606  -7.214   2.587  0.00  0.00    +0.010 A 
ATOM     21  C   UNL     1      -1.256  -8.311   2.059  0.00  0.00    +0.002 A 
ATOM     22  C   UNL     1      -2.060  -9.096   2.865  0.00  0.00    +0.020 A 
ATOM     23  C   UNL     1      -2.218  -8.787   4.206  0.00  0.00    +0.042 A 
ATOM     24  C   UNL     1      -1.568  -7.696   4.747  0.00  0.00    +0.030 A 
ATOM     25 CL   UNL     1      -3.230  -9.778   5.210  0.00  0.00    -0.084 Cl
ENDBRANCH   4  19
BRANCH   2  26
ATOM     26  N   UNL     1      -1.388  -4.697   1.756  0.00  0.00    -0.342 N 
ATOM     27  H   UNL     1      -1.590  -4.315   0.888  0.00  0.00    +0.144 HD
ATOM     28  H   UNL     1      -1.718  -5.580   1.986  0.00  0.00    +0.144 HD
ENDBRANCH   2  26
BRANCH  10  29
ATOM     29  C   UNL     1       2.591  -3.840   8.024  0.00  0.00    +0.086 C 
BRANCH  29  30
ATOM     30  C   UNL     1       3.226  -4.309   9.335  0.00  0.00    -0.061 C 
BRANCH  30  31
ATOM     31  N   UNL     1       3.938  -3.188   9.963  0.00  0.00    +0.377 N 
ATOM     32  C   UNL     1       4.446  -3.605  11.277  0.00  0.00    -0.097 C 
ATOM     33  C   UNL     1       5.062  -2.782   9.109  0.00  0.00    -0.097 C 
ATOM     34  H   UNL     1       3.305  -2.410  10.078  0.00  0.00    -0.083 HD
ENDBRANCH  30  31
ENDBRANCH  29  30
ENDBRANCH  10  29
TORSDOF 6
