REMARK  Name = ZINC08775655
REMARK  7 active torsions:
REMARK  status: ('A' for Active; 'I' for Inactive)
REMARK    1  A    between atoms: C_1  and  N_2
REMARK    2  A    between atoms: N_7  and  C_10
REMARK    3  A    between atoms: N_11  and  C_27
REMARK    4  A    between atoms: N_14  and  C_15
REMARK    5  A    between atoms: C_15  and  C_16
REMARK    6  A    between atoms: C_16  and  C_17
REMARK    7  A    between atoms: C_27  and  C_28
REMARK                            x       y       z     vdW  Elec       q    Type
REMARK                         _______ _______ _______ _____ _____    ______ ____
ROOT
ATOM      1  C   UNL     1      -2.569   4.118   0.049  0.00  0.00    +0.155 C 
ATOM      2  N   UNL     1      -1.264   3.451   0.033  0.00  0.00    -0.280 N 
ATOM      3  C   UNL     1      -0.102   4.205   0.026  0.00  0.00    +0.170 A 
ATOM      4  C   UNL     1       1.123   3.547   0.010  0.00  0.00    +0.153 A 
ATOM      5  C   UNL     1       1.147   2.141   0.003  0.00  0.00    +0.282 A 
ATOM      6  O   UNL     1       2.209   1.543  -0.011  0.00  0.00    -0.265 OA
ATOM      7  N   UNL     1      -0.018   1.461   0.010  0.00  0.00    -0.262 N 
ATOM      8  C   UNL     1      -1.197   2.107   0.019  0.00  0.00    +0.333 A 
ATOM      9  O   UNL     1      -2.227   1.461   0.020  0.00  0.00    -0.246 OA
ATOM     10  C   UNL     1       0.002  -0.004   0.002  0.00  0.00    +0.157 C 
ATOM     11  N   UNL     1       2.098   4.535   0.006  0.00  0.00    -0.302 N 
ATOM     12  C   UNL     1       1.446   5.728   0.019  0.00  0.00    +0.198 A 
ATOM     13  N   UNL     1       0.146   5.516   0.030  0.00  0.00    -0.196 NA
ATOM     14  N   UNL     1       2.050   6.965   0.019  0.00  0.00    -0.314 N 
ATOM     15  H   UNL     1       3.018   7.032   0.010  0.00  0.00    +0.149 HD
ENDROOT
BRANCH  14  16
ATOM     16  C   UNL     1       1.232   8.180   0.034  0.00  0.00    +0.109 C 
BRANCH  16  17
ATOM     17  C   UNL     1       2.143   9.408   0.031  0.00  0.00    +0.056 C 
BRANCH  17  18
ATOM     18  C   UNL     1       1.301  10.658   0.045  0.00  0.00    -0.021 A 
ATOM     19  C   UNL     1       0.927  11.382  -1.022  0.00  0.00    +0.087 A 
ATOM     20  N   UNL     1       0.166  12.446  -0.620  0.00  0.00    -0.360 N 
ATOM     21  H   UNL     1      -0.221  13.109  -1.213  0.00  0.00    +0.165 HD
ATOM     22  C   UNL     1       0.036  12.438   0.750  0.00  0.00    +0.047 A 
ATOM     23  C   UNL     1       0.741  11.318   1.228  0.00  0.00    +0.003 A 
ATOM     24  C   UNL     1       0.782  11.052   2.598  0.00  0.00    +0.010 A 
ATOM     25  C   UNL     1       0.137  11.884   3.469  0.00  0.00    +0.001 A 
ATOM     26  C   UNL     1      -0.560  12.990   3.004  0.00  0.00    +0.002 A 
ATOM     27  C   UNL     1      -0.614  13.270   1.656  0.00  0.00    +0.026 A 
ENDBRANCH  17  18
ENDBRANCH  16  17
ENDBRANCH  14  16
BRANCH  11  28
ATOM     28  C   UNL     1       3.549   4.332  -0.009  0.00  0.00    +0.160 C 
BRANCH  28  29
ATOM     29  C   UNL     1       4.033   4.271  -1.434  0.00  0.00    -0.028 A 
ATOM     30  C   UNL     1       4.094   3.056  -2.091  0.00  0.00    +0.006 A 
ATOM     31  C   UNL     1       4.533   2.999  -3.400  0.00  0.00    +0.015 A 
ATOM     32  C   UNL     1       4.921   4.157  -4.050  0.00  0.00    +0.018 A 
ATOM     33  C   UNL     1       4.865   5.371  -3.391  0.00  0.00    +0.015 A 
ATOM     34  C   UNL     1       4.421   5.428  -2.083  0.00  0.00    +0.006 A 
ATOM     35 BR   UNL     1       5.529   4.079  -5.839  0.00  0.00    -0.050 Br
ENDBRANCH  28  29
ENDBRANCH  11  28
TORSDOF 5
