REMARK  Name = ZINC09498657
REMARK  7 active torsions:
REMARK  status: ('A' for Active; 'I' for Inactive)
REMARK    1  A    between atoms: C_1  and  C_2
REMARK    2  A    between atoms: C_5  and  N_8
REMARK    3  A    between atoms: C_21  and  S_22
REMARK    4  A    between atoms: S_22  and  C_23
REMARK    5  A    between atoms: C_23  and  C_24
REMARK    6  A    between atoms: C_24  and  O_25
REMARK    7  A    between atoms: O_25  and  C_26
REMARK                            x       y       z     vdW  Elec       q    Type
REMARK                         _______ _______ _______ _____ _____    ______ ____
ROOT
ATOM      1  N   UNL     1       1.191  -0.641  -0.013  0.00  0.00    -0.245 N 
ATOM      2  C   UNL     1       0.106   0.001  -0.492  0.00  0.00    +0.268 A 
ATOM      3  O   UNL     1      -0.840  -0.626  -0.929  0.00  0.00    -0.267 OA
ATOM      4  C   UNL     1       0.085   1.475  -0.478  0.00  0.00    +0.064 A 
ATOM      5  C   UNL     1      -1.014   2.187  -0.957  0.00  0.00    +0.015 A 
ATOM      6  C   UNL     1      -0.996   3.566  -0.932  0.00  0.00    +0.001 A 
ATOM      7  C   UNL     1       0.102   4.242  -0.424  0.00  0.00    +0.002 A 
ATOM      8  C   UNL     1       1.195   3.549   0.057  0.00  0.00    +0.027 A 
ATOM      9  C   UNL     1       1.197   2.162   0.035  0.00  0.00    +0.064 A 
ATOM     10  N   UNL     1       2.280   1.435   0.513  0.00  0.00    -0.255 N 
ATOM     11  C   UNL     1       2.274   0.065   0.488  0.00  0.00    +0.245 A 
ATOM     12  N   UNL     1       3.416  -0.330   0.998  0.00  0.00    -0.109 NA
ATOM     13  N   UNL     1       4.125   0.687   1.335  0.00  0.00    -0.120 NA
ATOM     14  C   UNL     1       3.481   1.796   1.062  0.00  0.00    +0.198 A 
ENDROOT
BRANCH   1  19
ATOM     15  C   UNL     1       1.326  -6.314  -0.044  0.00  0.00    +0.044 C 
ATOM     16  C   UNL     1       1.290  -4.807  -0.036  0.00  0.00    -0.050 A 
ATOM     17  C   UNL     1       1.769  -4.099  -1.123  0.00  0.00    +0.005 A 
ATOM     18  C   UNL     1       1.738  -2.719  -1.119  0.00  0.00    +0.026 A 
ATOM     19  C   UNL     1       1.224  -2.041  -0.021  0.00  0.00    +0.053 A 
ATOM     20  C   UNL     1       0.748  -2.754   1.072  0.00  0.00    +0.026 A 
ATOM     21  C   UNL     1       0.777  -4.135   1.059  0.00  0.00    +0.005 A 
ENDBRANCH   1  19
BRANCH  14  22
ATOM     22  S   UNL     1       4.051   3.439   1.347  0.00  0.00    -0.082 S 
BRANCH  22  23
ATOM     23  C   UNL     1       5.692   3.211   2.087  0.00  0.00    +0.118 C 
BRANCH  23  24
ATOM     24  C   UNL     1       6.310   4.578   2.389  0.00  0.00    +0.240 C 
BRANCH  24  25
ATOM     25  O   UNL     1       7.602   4.398   2.971  0.00  0.00    -0.490 OA
BRANCH  25  26
ATOM     26  C   UNL     1       8.292   5.522   3.302  0.00  0.00    +0.139 A 
ATOM     27  C   UNL     1       7.738   6.771   3.065  0.00  0.00    +0.047 A 
ATOM     28  C   UNL     1       8.438   7.912   3.407  0.00  0.00    +0.004 A 
ATOM     29  C   UNL     1       9.695   7.810   3.975  0.00  0.00    +0.002 A 
ATOM     30  C   UNL     1      10.252   6.566   4.207  0.00  0.00    +0.023 A 
ATOM     31  C   UNL     1       9.553   5.421   3.872  0.00  0.00    +0.083 A 
ATOM     32 CL   UNL     1      10.253   3.859   4.163  0.00  0.00    -0.080 Cl
ENDBRANCH  25  26
ENDBRANCH  24  25
ENDBRANCH  23  24
ENDBRANCH  22  23
ENDBRANCH  14  22
TORSDOF 6
