REMARK  Name = ZINC63227337
REMARK  3 active torsions:
REMARK  status: ('A' for Active; 'I' for Inactive)
REMARK    1  A    between atoms: C_7  and  C_10
REMARK    2  A    between atoms: C_10  and  C_11
REMARK    3  A    between atoms: C_11  and  N_12
REMARK                            x       y       z     vdW  Elec       q    Type
REMARK                         _______ _______ _______ _____ _____    ______ ____
ROOT
ATOM      1  C   UNL     1       0.457  -3.653  -1.462  0.00  0.00    +0.121 C 
ENDROOT
BRANCH   1   2
ATOM      2  N   UNL     1      -0.458  -4.798  -1.460  0.00  0.00    -0.241 N 
ATOM      3  C   UNL     1      -0.039  -6.089  -1.367  0.00  0.00    +0.226 C 
ATOM      4  O   UNL     1       1.096  -6.498  -1.488  0.00  0.00    -0.275 OA
ATOM      5  C   UNL     1      -1.263  -6.900  -1.086  0.00  0.00    +0.087 C 
ATOM      6  C   UNL     1      -1.372  -8.305  -1.630  0.00  0.00    +0.013 C 
ATOM      7  C   UNL     1      -2.757  -8.835  -1.215  0.00  0.00    +0.001 C 
ATOM      8  C   UNL     1      -3.885  -7.931  -1.701  0.00  0.00    +0.001 C 
ATOM      9  C   UNL     1      -3.672  -6.465  -1.273  0.00  0.00    +0.013 C 
ATOM     10  C   UNL     1      -2.333  -6.047  -1.831  0.00  0.00    +0.087 C 
ATOM     11  C   UNL     1      -1.810  -4.673  -1.546  0.00  0.00    +0.226 C 
ATOM     12  O   UNL     1      -2.458  -3.656  -1.419  0.00  0.00    -0.275 OA
ENDBRANCH   1   2
BRANCH   1  13
ATOM     13  C   UNL     1       0.691  -3.186  -0.024  0.00  0.00    +0.052 C 
BRANCH  13  20
ATOM     14  C   UNL     1      -0.016   1.348   0.009  0.00  0.00    +0.001 A 
ATOM     15  C   UNL     1       1.166   2.101   0.002  0.00  0.00    +0.002 A 
ATOM     16  C   UNL     1       2.391   1.535  -0.013  0.00  0.00    +0.026 A 
ATOM     17  C   UNL     1       2.529   0.120  -0.022  0.00  0.00    +0.043 A 
ATOM     18  N   UNL     1       3.587  -0.654  -0.037  0.00  0.00    -0.380 N 
ATOM     19  C   UNL     1       3.143  -2.053  -0.041  0.00  0.00    +0.144 C 
ATOM     20  C   UNL     1       1.631  -2.008  -0.025  0.00  0.00    -0.040 C 
ATOM     21  C   UNL     1       1.295  -0.698  -0.014  0.00  0.00    -0.001 A 
ATOM     22  C   UNL     1       0.002  -0.004   0.002  0.00  0.00    +0.010 A 
ATOM     23  H   UNL     1       4.509  -0.353  -0.045  0.00  0.00    +0.160 HD
ENDBRANCH  13  20
ENDBRANCH   1  13
TORSDOF 3
