REMARK  Name = ZINC33029189
REMARK  7 active torsions:
REMARK  status: ('A' for Active; 'I' for Inactive)
REMARK    1  A    between atoms: C_7  and  C_11
REMARK    2  A    between atoms: C_11  and  C_13
REMARK    3  A    between atoms: C_11  and  C_27
REMARK    4  A    between atoms: C_13  and  N_14
REMARK    5  A    between atoms: C_15  and  C_17
REMARK    6  A    between atoms: C_17  and  C_18
REMARK    7  A    between atoms: C_18  and  C_19
REMARK                            x       y       z     vdW  Elec       q    Type
REMARK                         _______ _______ _______ _____ _____    ______ ____
ROOT
ATOM      1  C   UNL     1      -0.741   6.409   0.043  0.00  0.00    +0.069 C 
ENDROOT
BRANCH   1   8
ATOM      2  C   UNL     1      -1.228   1.746   0.017  0.00  0.00    +0.001 A 
ATOM      3  C   UNL     1      -0.013   1.076   0.008  0.00  0.00    +0.002 A 
ATOM      4  C   UNL     1       1.175   1.774   0.000  0.00  0.00    +0.026 A 
ATOM      5  C   UNL     1       1.159   3.165   0.008  0.00  0.00    +0.047 A 
ATOM      6  C   UNL     1      -0.075   3.840   0.023  0.00  0.00    +0.003 A 
ATOM      7  C   UNL     1      -1.267   3.112   0.030  0.00  0.00    +0.010 A 
ATOM      8  C   UNL     1       0.245   5.269   0.028  0.00  0.00    -0.013 A 
ATOM      9  C   UNL     1       1.583   5.372   0.016  0.00  0.00    +0.088 A 
ATOM     10  N   UNL     1       2.146   4.124   0.004  0.00  0.00    -0.360 N 
ATOM     11  H   UNL     1       3.204   3.824  -0.008  0.00  0.00    +0.165 HD
ENDBRANCH   1   8
BRANCH   1  12
ATOM     12  C   UNL     1      -0.543   7.260  -1.185  0.00  0.00    -0.020 A 
ATOM     13  C   UNL     1       0.674   7.875  -1.412  0.00  0.00    +0.006 A 
ATOM     14  C   UNL     1       0.855   8.656  -2.538  0.00  0.00    +0.000 A 
ATOM     15  C   UNL     1      -0.181   8.822  -3.438  0.00  0.00    +0.001 A 
ATOM     16  C   UNL     1      -1.398   8.208  -3.213  0.00  0.00    +0.020 A 
ATOM     17  C   UNL     1      -1.579   7.422  -2.088  0.00  0.00    +0.045 A 
ATOM     18 CL   UNL     1      -3.105   6.644  -1.809  0.00  0.00    -0.083 Cl
ENDBRANCH   1  12
BRANCH   1  19
ATOM     19  C   UNL     1      -0.518   7.260   1.295  0.00  0.00    +0.117 C 
BRANCH  19  20
ATOM     20  N   UNL     1      -1.551   8.296   1.371  0.00  0.00    -0.314 N 
ATOM     21  C   UNL     1      -1.555   9.169   2.397  0.00  0.00    +0.213 C 
ATOM     22  O   UNL     1      -0.703   9.098   3.258  0.00  0.00    -0.276 OA
ATOM     23  H   UNL     1      -2.323   8.361   0.590  0.00  0.00    +0.149 HD
BRANCH  21  24
ATOM     24  C   UNL     1      -2.617  10.235   2.476  0.00  0.00    +0.098 C 
BRANCH  24  25
ATOM     25  C   UNL     1      -2.394  11.086   3.728  0.00  0.00    +0.041 C 
BRANCH  25  26
ATOM     26  C   UNL     1      -3.473  12.168   3.808  0.00  0.00    +0.161 C 
ATOM     27  C   UNL     1      -3.350  12.949   5.101  0.00  0.00    +0.241 C 
ATOM     28  O   UNL     1      -3.452  12.518   6.229  0.00  0.00    -0.273 OA
ATOM     29  N   UNL     1      -3.104  14.223   4.735  0.00  0.00    -0.239 N 
ATOM     30  C   UNL     1      -3.055  14.354   3.405  0.00  0.00    +0.307 C 
ATOM     31  O   UNL     1      -2.846  15.408   2.837  0.00  0.00    -0.252 OA
ATOM     32  N   UNL     1      -3.262  13.188   2.766  0.00  0.00    -0.288 N 
ATOM     33  H   UNL     1      -2.973  15.000   5.503  0.00  0.00    +0.159 HD
ATOM     34  H   UNL     1      -3.296  12.905   1.703  0.00  0.00    +0.151 HD
ENDBRANCH  25  26
ENDBRANCH  24  25
ENDBRANCH  21  24
ENDBRANCH  19  20
ENDBRANCH   1  19
TORSDOF 7
