REMARK  Name = ZINC48934741
REMARK  8 active torsions:
REMARK  status: ('A' for Active; 'I' for Inactive)
REMARK    1  A    between atoms: C_1  and  C_2
REMARK    2  A    between atoms: C_4  and  C_8
REMARK    3  A    between atoms: C_5  and  C_7
REMARK    4  A    between atoms: C_8  and  C_10
REMARK    5  A    between atoms: C_8  and  N_11
REMARK    6  A    between atoms: C_12  and  C_14
REMARK    7  A    between atoms: C_14  and  C_16
REMARK    8  A    between atoms: C_14  and  N_17
REMARK                            x       y       z     vdW  Elec       q    Type
REMARK                         _______ _______ _______ _____ _____    ______ ____
ROOT
ATOM      1  N   UNL     1      -3.103  -2.609   0.585  0.00  0.00    -0.307 N 
ATOM      2  C   UNL     1      -4.000  -3.372   1.240  0.00  0.00    +0.234 C 
ATOM      3  O   UNL     1      -3.822  -4.568   1.339  0.00  0.00    -0.274 OA
ATOM      4  H   UNL     1      -3.245  -1.653   0.506  0.00  0.00    +0.149 HD
ENDROOT
BRANCH   1   5
ATOM      5  C   UNL     1      -1.912  -3.224  -0.008  0.00  0.00    +0.101 C 
ATOM      6  C   UNL     1      -2.240  -3.712  -1.420  0.00  0.00    +0.033 C 
BRANCH   5  10
ATOM      7  C   UNL     1      -0.117   1.532  -0.303  0.00  0.00    +0.051 C 
ATOM      8  C   UNL     1      -0.066   0.029  -0.210  0.00  0.00    -0.013 A 
ATOM      9  C   UNL     1      -1.089  -0.859  -0.155  0.00  0.00    +0.016 A 
ATOM     10  C   UNL     1      -0.801  -2.208  -0.072  0.00  0.00    -0.017 A 
ATOM     11  C   UNL     1       0.495  -2.604  -0.049  0.00  0.00    -0.008 A 
ATOM     12  S   UNL     1       1.359  -1.045  -0.153  0.00  0.00    -0.098 S 
ATOM     13  C   UNL     1       1.060  -3.999   0.036  0.00  0.00    +0.052 C 
ENDBRANCH   5  10
ENDBRANCH   1   5
BRANCH   2  14
ATOM     14  C   UNL     1      -5.224  -2.740   1.850  0.00  0.00    +0.157 C 
ATOM     15  C   UNL     1      -4.798  -1.698   2.887  0.00  0.00    +0.038 C 
BRANCH  14  16
ATOM     16  N   UNL     1      -6.035  -3.772   2.500  0.00  0.00    -0.289 N 
ATOM     17  C   UNL     1      -7.359  -3.584   2.666  0.00  0.00    +0.298 C 
ATOM     18  O   UNL     1      -7.881  -2.557   2.276  0.00  0.00    -0.253 OA
ATOM     19  N   UNL     1      -8.105  -4.534   3.264  0.00  0.00    -0.313 N 
ATOM     20  H   UNL     1      -5.619  -4.591   2.811  0.00  0.00    +0.151 HD
ATOM     21  H   UNL     1      -7.689  -5.353   3.575  0.00  0.00    +0.146 HD
ATOM     22  H   UNL     1      -9.058  -4.398   3.384  0.00  0.00    +0.146 HD
ENDBRANCH  14  16
ENDBRANCH   2  14
TORSDOF 4
