REMARK  Name = ZINC40814990
REMARK  6 active torsions:
REMARK  status: ('A' for Active; 'I' for Inactive)
REMARK    1  A    between atoms: C_1  and  C_2
REMARK    2  A    between atoms: C_6  and  C_7
REMARK    3  A    between atoms: N_12  and  C_15
REMARK    4  A    between atoms: N_26  and  N_27
REMARK    5  A    between atoms: N_27  and  S_28
REMARK    6  A    between atoms: S_28  and  C_31
REMARK                            x       y       z     vdW  Elec       q    Type
REMARK                         _______ _______ _______ _____ _____    ______ ____
ROOT
ATOM      1  C   UNL     1       0.543   1.437   0.013  0.00  0.00    +0.048 C 
ATOM      2  C   UNL     1       0.189  -0.028   0.003  0.00  0.00    +0.009 A 
ATOM      3  C   UNL     1       0.028  -0.845  -1.121  0.00  0.00    +0.042 A 
ATOM      4  C   UNL     1      -0.292  -2.104  -0.674  0.00  0.00    +0.115 A 
ATOM      5  O   UNL     1      -0.325  -2.072   0.657  0.00  0.00    -0.454 OA
ATOM      6  C   UNL     1      -0.033  -0.826   1.091  0.00  0.00    +0.193 A 
ATOM      7  C   UNL     1      -0.548  -3.264  -1.603  0.00  0.00    +0.075 C 
ATOM      8  C   UNL     1      -0.903  -2.734  -2.994  0.00  0.00    +0.014 C 
ATOM      9  C   UNL     1       0.163  -1.749  -3.485  0.00  0.00    +0.058 C 
ATOM     10  C   UNL     1       0.152  -0.537  -2.565  0.00  0.00    +0.071 C 
ATOM     11  N   UNL     1       0.245   0.677  -3.011  0.00  0.00    -0.170 NA
ENDROOT
BRANCH   6  12
ATOM     12  C   UNL     1       0.031  -0.400   2.494  0.00  0.00    +0.282 C 
ATOM     13  O   UNL     1       0.156   0.780   2.767  0.00  0.00    -0.267 OA
ATOM     14  N   UNL     1      -0.048  -1.315   3.480  0.00  0.00    -0.292 N 
ATOM     15  C   UNL     1      -0.026  -2.751   3.171  0.00  0.00    +0.127 C 
ATOM     16  C   UNL     1       1.108  -3.407   3.970  0.00  0.00    +0.124 C 
ATOM     17  N   UNL     1       0.998  -2.986   5.373  0.00  0.00    -0.325 N 
ATOM     18  C   UNL     1       0.976  -1.549   5.682  0.00  0.00    +0.124 C 
ATOM     19  C   UNL     1      -0.152  -0.894   4.884  0.00  0.00    +0.127 C 
BRANCH  17  20
ATOM     20  C   UNL     1       0.915  -3.935   6.397  0.00  0.00    +0.065 A 
ATOM     21  C   UNL     1       2.072  -4.406   7.004  0.00  0.00    +0.026 A 
ATOM     22  C   UNL     1       1.987  -5.343   8.015  0.00  0.00    +0.002 A 
ATOM     23  C   UNL     1       0.753  -5.814   8.423  0.00  0.00    +0.003 A 
ATOM     24  C   UNL     1      -0.402  -5.349   7.821  0.00  0.00    +0.040 A 
ATOM     25  C   UNL     1      -0.325  -4.406   6.812  0.00  0.00    +0.144 A 
ATOM     26  F   UNL     1      -1.454  -3.948   6.228  0.00  0.00    -0.204 F 
ENDBRANCH  17  20
ENDBRANCH   6  12
BRANCH  11  27
ATOM     27  N   UNL     1       0.360   0.909  -4.388  0.00  0.00    -0.136 N 
ATOM     28  H   UNL     1       0.371   0.163  -5.007  0.00  0.00    +0.197 HD
BRANCH  27  29
ATOM     29  S   UNL     1       0.479   2.459  -4.959  0.00  0.00    +0.086 S 
ATOM     30  O   UNL     1       0.726   2.361  -6.355  0.00  0.00    -0.149 OA
ATOM     31  O   UNL     1      -0.630   3.173  -4.430  0.00  0.00    -0.149 OA
BRANCH  29  32
ATOM     32  C   UNL     1       1.923   3.170  -4.241  0.00  0.00    +0.110 A 
ATOM     33  C   UNL     1       1.838   3.834  -3.031  0.00  0.00    +0.029 A 
ATOM     34  C   UNL     1       2.971   4.391  -2.468  0.00  0.00    +0.002 A 
ATOM     35  C   UNL     1       4.188   4.284  -3.114  0.00  0.00    +0.000 A 
ATOM     36  C   UNL     1       4.273   3.619  -4.323  0.00  0.00    +0.002 A 
ATOM     37  C   UNL     1       3.141   3.058  -4.884  0.00  0.00    +0.029 A 
ENDBRANCH  29  32
ENDBRANCH  27  29
ENDBRANCH  11  27
TORSDOF 5
