REMARK  Name = ZINC07362680
REMARK  5 active torsions:
REMARK  status: ('A' for Active; 'I' for Inactive)
REMARK    1  A    between atoms: C_1  and  C_2
REMARK    2  A    between atoms: N_10  and  N_14
REMARK    3  A    between atoms: C_15  and  C_17
REMARK    4  A    between atoms: C_17  and  N_53
REMARK    5  A    between atoms: C_21  and  C_23
REMARK                            x       y       z     vdW  Elec       q    Type
REMARK                         _______ _______ _______ _____ _____    ______ ____
ROOT
ATOM      1  N   UNL     1      -0.059   1.087  -1.085  0.00  0.00    -0.225 N 
ATOM      2  C   UNL     1      -1.223   1.718  -0.837  0.00  0.00    +0.213 C 
ATOM      3  O   UNL     1      -1.276   2.929  -0.876  0.00  0.00    -0.276 OA
ATOM      4  H   UNL     1      -0.016   0.118  -1.053  0.00  0.00    +0.173 HD
ENDROOT
BRANCH   1  14
ATOM      5  C   UNL     1       5.897   3.025   1.999  0.00  0.00    +0.007 C 
ATOM      6  C   UNL     1       5.274   3.253   0.620  0.00  0.00    -0.014 C 
ATOM      7  C   UNL     1       3.935   3.977   0.780  0.00  0.00    +0.006 C 
ATOM      8  C   UNL     1       3.317   4.214  -0.601  0.00  0.00    +0.035 C 
ATOM      9  C   UNL     1       3.111   2.876  -1.303  0.00  0.00    +0.114 C 
ATOM     10  C   UNL     1       4.434   2.133  -1.449  0.00  0.00    +0.035 C 
ATOM     11  C   UNL     1       5.048   1.904  -0.066  0.00  0.00    +0.006 C 
ATOM     12  C   UNL     1       2.114   2.031  -0.542  0.00  0.00    +0.263 C 
ATOM     13  O   UNL     1       2.215   1.622   0.594  0.00  0.00    -0.271 OA
ATOM     14  N   UNL     1       1.089   1.829  -1.395  0.00  0.00    -0.137 N 
ATOM     15  C   UNL     1       1.306   2.420  -2.576  0.00  0.00    +0.326 C 
ATOM     16  O   UNL     1       0.527   2.374  -3.509  0.00  0.00    -0.251 OA
ATOM     17  N   UNL     1       2.482   3.074  -2.615  0.00  0.00    -0.284 N 
ATOM     18  H   UNL     1       2.845   3.574  -3.363  0.00  0.00    +0.151 HD
ENDBRANCH   1  14
BRANCH   2  19
ATOM     19  C   UNL     1      -2.458   0.920  -0.509  0.00  0.00    +0.021 C 
BRANCH  19  24
ATOM     20  C   UNL     1      -3.468   2.504   1.031  0.00  0.00    -0.077 C 
ATOM     21  C   UNL     1      -4.928   2.681   1.518  0.00  0.00    -0.020 C 
ATOM     22  C   UNL     1      -5.586   1.368   1.017  0.00  0.00    -0.012 C 
ATOM     23  C   UNL     1      -4.870   1.109  -0.325  0.00  0.00    -0.030 C 
ATOM     24  N   UNL     1      -3.595   1.850  -0.284  0.00  0.00    +0.390 N 
ATOM     25  H   UNL     1      -3.594   2.565  -1.021  0.00  0.00    -0.080 HD
BRANCH  23  26
ATOM     26  C   UNL     1      -4.620  -0.366  -0.501  0.00  0.00    -0.024 A 
ATOM     27  C   UNL     1      -5.061  -1.196  -1.479  0.00  0.00    +0.009 A 
ATOM     28  C   UNL     1      -4.699  -2.529  -1.440  0.00  0.00    +0.008 A 
ATOM     29  C   UNL     1      -3.925  -2.971  -0.419  0.00  0.00    +0.045 A 
ATOM     30  S   UNL     1      -3.675  -1.478   0.528  0.00  0.00    -0.103 S 
ENDBRANCH  23  26
ENDBRANCH  19  24
ENDBRANCH   2  19
TORSDOF 4
