REMARK  Name = ZINC02272075
REMARK  8 active torsions:
REMARK  status: ('A' for Active; 'I' for Inactive)
REMARK    1  A    between atoms: C_3  and  O_19
REMARK    2  A    between atoms: C_6  and  C_7
REMARK    3  A    between atoms: C_8  and  C_17
REMARK    4  A    between atoms: C_9  and  N_16
REMARK    5  A    between atoms: C_11  and  N_15
REMARK    6  A    between atoms: C_12  and  C_13
REMARK    7  A    between atoms: O_19  and  C_20
REMARK    8  A    between atoms: C_20  and  C_21
REMARK                            x       y       z     vdW  Elec       q    Type
REMARK                         _______ _______ _______ _____ _____    ______ ____
ROOT
ATOM      1  C   UNL     1       0.060  -4.277  -0.021  0.00  0.00    +0.104 C 
ATOM      2  C   UNL     1       0.742  -4.751   1.216  0.00  0.00    +0.069 C 
ATOM      3  C   UNL     1       2.031  -5.109   1.311  0.00  0.00    +0.079 C 
ATOM      4  S   UNL     1       3.136  -5.082  -0.051  0.00  0.00    -0.058 S 
ATOM      5  C   UNL     1       2.008  -5.094  -1.396  0.00  0.00    +0.079 C 
ATOM      6  C   UNL     1       0.718  -4.738  -1.276  0.00  0.00    +0.069 C 
ENDROOT
BRANCH   1  12
ATOM      7  C   UNL     1      -1.168  -2.096   0.002  0.00  0.00    +0.008 A 
ATOM      8  C   UNL     1      -1.189  -0.715   0.010  0.00  0.00    +0.046 A 
ATOM      9  C   UNL     1       0.002  -0.004   0.002  0.00  0.00    +0.121 A 
ATOM     10  C   UNL     1       1.212  -0.682  -0.019  0.00  0.00    +0.046 A 
ATOM     11  C   UNL     1       1.228  -2.064  -0.020  0.00  0.00    +0.008 A 
ATOM     12  C   UNL     1       0.040  -2.770  -0.013  0.00  0.00    -0.034 A 
BRANCH   9  13
ATOM     13  O   UNL     1      -0.016   1.355   0.009  0.00  0.00    -0.483 OA
BRANCH  13  14
ATOM     14  C   UNL     1       1.248   2.021   0.001  0.00  0.00    +0.324 C 
BRANCH  14  15
ATOM     15  C   UNL     1       1.030   3.512   0.011  0.00  0.00    +0.248 C 
ATOM     16  O   UNL     1      -0.097   3.960   0.024  0.00  0.00    -0.272 OA
ATOM     17  N   UNL     1       2.088   4.347   0.005  0.00  0.00    -0.327 N 
ATOM     18  H   UNL     1       1.929   5.436   0.013  0.00  0.00    +0.145 HD
ATOM     19  H   UNL     1       3.110   3.941  -0.006  0.00  0.00    +0.145 HD
ENDBRANCH  14  15
ENDBRANCH  13  14
ENDBRANCH   9  13
ENDBRANCH   1  12
BRANCH   5  20
ATOM     20  N   UNL     1       2.466  -5.488  -2.631  0.00  0.00    -0.352 N 
ATOM     21  H   UNL     1       1.782  -5.506  -3.491  0.00  0.00    +0.143 HD
ATOM     22  H   UNL     1       3.518  -5.786  -2.758  0.00  0.00    +0.143 HD
ENDBRANCH   5  20
BRANCH   3  23
ATOM     23  N   UNL     1       2.509  -5.516   2.534  0.00  0.00    -0.352 N 
ATOM     24  H   UNL     1       3.563  -5.816   2.640  0.00  0.00    +0.143 HD
ATOM     25  H   UNL     1       1.839  -5.543   3.406  0.00  0.00    +0.143 HD
ENDBRANCH   3  23
BRANCH   6  26
ATOM     26  C   UNL     1      -0.093  -4.806  -2.454  0.00  0.00    +0.098 C 
ATOM     27  N   UNL     1      -0.736  -4.861  -3.389  0.00  0.00    -0.191 NA
ENDBRANCH   6  26
BRANCH   2  28
ATOM     28  C   UNL     1      -0.047  -4.832   2.408  0.00  0.00    +0.098 C 
ATOM     29  N   UNL     1      -0.672  -4.897   3.354  0.00  0.00    -0.191 NA
ENDBRANCH   2  28
TORSDOF 8
