REMARK  Name = ZINC08876455
REMARK  10 active torsions:
REMARK  status: ('A' for Active; 'I' for Inactive)
REMARK    1  A    between atoms: C_1  and  C_2
REMARK    2  A    between atoms: C_2  and  C_3
REMARK    3  A    between atoms: C_3  and  C_5
REMARK    4  A    between atoms: C_3  and  N_6
REMARK    5  A    between atoms: C_7  and  C_9
REMARK    6  A    between atoms: C_9  and  C_11
REMARK    7  A    between atoms: C_9  and  N_15
REMARK    8  A    between atoms: C_11  and  C_13
REMARK    9  A    between atoms: C_11  and  C_14
REMARK   10  A    between atoms: C_16  and  C_18
REMARK                            x       y       z     vdW  Elec       q    Type
REMARK                         _______ _______ _______ _____ _____    ______ ____
ROOT
ATOM      1  C   UNL     1      -1.354  -0.886   0.483  0.00  0.00    +0.167 C 
ATOM      2  C   UNL     1      -0.130  -1.808   0.595  0.00  0.00    +0.069 C 
ATOM      3  C   UNL     1       1.118  -0.991   0.810  0.00  0.00    -0.015 A 
ATOM      4  C   UNL     1       2.410  -1.467   1.271  0.00  0.00    +0.003 A 
ATOM      5  C   UNL     1       2.868  -2.732   1.653  0.00  0.00    +0.010 A 
ATOM      6  C   UNL     1       4.181  -2.824   2.043  0.00  0.00    +0.001 A 
ATOM      7  C   UNL     1       5.022  -1.723   2.062  0.00  0.00    +0.002 A 
ATOM      8  C   UNL     1       4.595  -0.460   1.689  0.00  0.00    +0.026 A 
ATOM      9  C   UNL     1       3.266  -0.337   1.288  0.00  0.00    +0.047 A 
ATOM     10  N   UNL     1       2.532   0.734   0.867  0.00  0.00    -0.356 N 
ATOM     11  H   UNL     1       2.867   1.640   0.777  0.00  0.00    +0.166 HD
ATOM     12  C   UNL     1       1.251   0.337   0.593  0.00  0.00    +0.046 A 
ATOM     13  C   UNL     1       0.110   1.212   0.135  0.00  0.00    +0.155 C 
ATOM     14  N   UNL     1      -0.962   0.288  -0.302  0.00  0.00    -0.273 N 
ATOM     15  C   UNL     1      -1.424   0.705  -1.489  0.00  0.00    +0.248 C 
ATOM     16  O   UNL     1      -2.442   0.309  -2.023  0.00  0.00    -0.270 OA
ATOM     17  C   UNL     1      -0.514   1.711  -2.045  0.00  0.00    +0.042 A 
ATOM     18  C   UNL     1       0.455   2.021  -1.069  0.00  0.00    -0.009 A 
ATOM     19  C   UNL     1       1.459   2.931  -1.314  0.00  0.00    +0.006 A 
ATOM     20  C   UNL     1       1.468   3.543  -2.564  0.00  0.00    +0.000 A 
ATOM     21  C   UNL     1       0.513   3.258  -3.520  0.00  0.00    +0.001 A 
ATOM     22  C   UNL     1      -0.502   2.341  -3.291  0.00  0.00    +0.013 A 
ENDROOT
BRANCH   1  24
ATOM     23  N   UNL     1      -2.171  -1.381   2.765  0.00  0.00    -0.302 N 
ATOM     24  C   UNL     1      -1.796  -0.457   1.859  0.00  0.00    +0.235 C 
ATOM     25  O   UNL     1      -1.814   0.720   2.150  0.00  0.00    -0.274 OA
ATOM     26  H   UNL     1      -2.157  -2.323   2.533  0.00  0.00    +0.150 HD
BRANCH  23  27
ATOM     27  C   UNL     1      -2.601  -0.963   4.102  0.00  0.00    +0.161 C 
BRANCH  27  29
ATOM     28  N   UNL     1      -2.146  -1.822   6.377  0.00  0.00    -0.311 N 
ATOM     29  C   UNL     1      -2.377  -2.091   5.077  0.00  0.00    +0.234 C 
ATOM     30  O   UNL     1      -2.405  -3.240   4.691  0.00  0.00    -0.274 OA
ATOM     31  H   UNL     1      -2.195  -0.908   6.699  0.00  0.00    +0.149 HD
BRANCH  28  32
ATOM     32  C   UNL     1      -1.820  -2.909   7.303  0.00  0.00    +0.070 C 
ATOM     33  C   UNL     1      -3.112  -3.547   7.816  0.00  0.00    +0.028 C 
BRANCH  32  35
ATOM     34  C   UNL     1       0.326  -1.826   7.986  0.00  0.00    +0.005 C 
ATOM     35  C   UNL     1      -1.022  -2.352   8.484  0.00  0.00    +0.018 C 
ENDBRANCH  32  35
ENDBRANCH  28  32
ENDBRANCH  27  29
BRANCH  27  36
ATOM     36  C   UNL     1      -4.087  -0.604   4.071  0.00  0.00    +0.012 C 
ATOM     37  C   UNL     1      -4.524  -0.119   5.455  0.00  0.00    +0.009 C 
ATOM     38  C   UNL     1      -4.322   0.506   3.044  0.00  0.00    +0.009 C 
ENDBRANCH  27  36
ENDBRANCH  23  27
ENDBRANCH   1  24
TORSDOF 6
