REMARK  Name = ZINC37129837
REMARK  4 active torsions:
REMARK  status: ('A' for Active; 'I' for Inactive)
REMARK    1  A    between atoms: C_1  and  C_2
REMARK    2  A    between atoms: C_2  and  C_4
REMARK    3  A    between atoms: C_2  and  N_11
REMARK    4  A    between atoms: N_11  and  C_12
REMARK                            x       y       z     vdW  Elec       q    Type
REMARK                         _______ _______ _______ _____ _____    ______ ____
ROOT
ATOM      1  C   UNL     1       2.105  -0.604   1.173  0.00  0.00    +0.044 A 
ATOM      2  C   UNL     1       2.816  -0.252   0.035  0.00  0.00    +0.051 A 
ATOM      3  C   UNL     1       4.197  -0.367   0.022  0.00  0.00    +0.069 A 
ATOM      4  C   UNL     1       4.868  -0.835   1.154  0.00  0.00    +0.068 A 
ATOM      5  C   UNL     1       4.153  -1.185   2.289  0.00  0.00    +0.045 A 
ATOM      6  C   UNL     1       2.777  -1.065   2.300  0.00  0.00    +0.041 A 
ATOM      7 BR   UNL     1       1.802  -1.536   3.851  0.00  0.00    -0.048 Br
ATOM      8  N   UNL     1       6.228  -0.839   0.843  0.00  0.00    -0.306 N 
ATOM      9  H   UNL     1       6.946  -1.115   1.434  0.00  0.00    +0.170 HD
ATOM     10  C   UNL     1       6.375  -0.394  -0.420  0.00  0.00    +0.325 A 
ATOM     11  O   UNL     1       7.437  -0.274  -1.001  0.00  0.00    -0.247 OA
ATOM     12  N   UNL     1       5.168  -0.101  -0.940  0.00  0.00    -0.306 N 
ATOM     13  H   UNL     1       5.003   0.237  -1.835  0.00  0.00    +0.170 HD
ENDROOT
BRANCH   1  14
ATOM     14  N   UNL     1       0.711  -0.489   1.189  0.00  0.00    -0.336 N 
ATOM     15  H   UNL     1       0.213  -0.731   1.986  0.00  0.00    +0.147 HD
BRANCH  14  17
ATOM     16  C   UNL     1      -0.019   1.526   0.010  0.00  0.00    +0.033 C 
ATOM     17  C   UNL     1       0.002  -0.004   0.002  0.00  0.00    +0.098 C 
BRANCH  17  18
ATOM     18  C   UNL     1      -1.412  -0.526   0.013  0.00  0.00    -0.027 A 
ATOM     19  C   UNL     1      -2.123  -0.571   1.198  0.00  0.00    +0.005 A 
ATOM     20  C   UNL     1      -3.420  -1.049   1.208  0.00  0.00    +0.001 A 
ATOM     21  C   UNL     1      -4.006  -1.483   0.034  0.00  0.00    +0.015 A 
ATOM     22  C   UNL     1      -3.295  -1.437  -1.152  0.00  0.00    +0.018 A 
ATOM     23  C   UNL     1      -1.999  -0.954  -1.163  0.00  0.00    +0.020 A 
ATOM     24 BR   UNL     1      -4.097  -2.031  -2.759  0.00  0.00    -0.050 Br
ENDBRANCH  17  18
ENDBRANCH  14  17
ENDBRANCH   1  14
TORSDOF 3
