REMARK  Name = ZINC18176955
REMARK  10 active torsions:
REMARK  status: ('A' for Active; 'I' for Inactive)
REMARK    1  A    between atoms: C_1  and  C_2
REMARK    2  A    between atoms: C_2  and  O_3
REMARK    3  A    between atoms: O_3  and  C_4
REMARK    4  A    between atoms: C_4  and  C_6
REMARK    5  A    between atoms: C_10  and  N_11
REMARK    6  A    between atoms: C_12  and  C_14
REMARK    7  A    between atoms: C_17  and  S_20
REMARK    8  A    between atoms: S_20  and  N_23
REMARK    9  A    between atoms: C_25  and  C_32
REMARK   10  A    between atoms: C_28  and  C_31
REMARK                            x       y       z     vdW  Elec       q    Type
REMARK                         _______ _______ _______ _____ _____    ______ ____
ROOT
ATOM      1  N   UNL     1       3.006  -2.429  -6.202  0.00  0.00    -0.275 N 
ATOM      2  C   UNL     1       1.805  -1.833  -6.338  0.00  0.00    +0.249 C 
ATOM      3  O   UNL     1       1.074  -2.144  -7.259  0.00  0.00    -0.270 OA
ATOM      4  H   UNL     1       3.590  -2.182  -5.468  0.00  0.00    +0.156 HD
ENDROOT
BRANCH   1   9
ATOM      5  C   UNL     1       4.596  -4.109  -7.141  0.00  0.00    +0.091 A 
ATOM      6  C   UNL     1       4.773  -5.084  -8.209  0.00  0.00    -0.021 A 
ATOM      7  C   UNL     1       3.743  -5.170  -9.077  0.00  0.00    -0.004 A 
ATOM      8  S   UNL     1       2.550  -3.999  -8.489  0.00  0.00    -0.077 S 
ATOM      9  C   UNL     1       3.408  -3.395  -7.110  0.00  0.00    +0.087 A 
ATOM     10  C   UNL     1       3.633  -6.050 -10.283  0.00  0.00    +0.043 C 
ATOM     11  C   UNL     1       4.014  -7.486  -9.899  0.00  0.00    +0.005 C 
ATOM     12  C   UNL     1       5.518  -7.655 -10.094  0.00  0.00    +0.001 C 
ATOM     13  C   UNL     1       6.237  -6.341  -9.793  0.00  0.00    +0.005 C 
ATOM     14  C   UNL     1       6.026  -5.941  -8.337  0.00  0.00    +0.037 C 
BRANCH   5  15
ATOM     15  C   UNL     1       5.636  -3.894  -6.132  0.00  0.00    +0.342 C 
ATOM     16  O   UNL     1       5.635  -4.551  -5.108  0.00  0.00    -0.245 OA
BRANCH  15  17
ATOM     17  O   UNL     1       6.594  -2.968  -6.338  0.00  0.00    -0.461 OA
BRANCH  17  19
ATOM     18  C   UNL     1       8.588  -1.721  -5.705  0.00  0.00    +0.048 C 
ATOM     19  C   UNL     1       7.592  -2.808  -5.296  0.00  0.00    +0.229 C 
ENDBRANCH  17  19
ENDBRANCH  15  17
ENDBRANCH   5  15
ENDBRANCH   1   9
BRANCH   2  20
ATOM     20  C   UNL     1       1.377  -0.803  -5.369  0.00  0.00    +0.037 A 
ATOM     21  C   UNL     1       0.134  -0.184  -5.508  0.00  0.00    +0.015 A 
ATOM     22  C   UNL     1      -0.260   0.777  -4.600  0.00  0.00    +0.029 A 
ATOM     23  C   UNL     1       0.576   1.129  -3.554  0.00  0.00    +0.106 A 
ATOM     24  C   UNL     1       1.812   0.523  -3.414  0.00  0.00    +0.029 A 
ATOM     25  C   UNL     1       2.215  -0.444  -4.312  0.00  0.00    +0.015 A 
BRANCH  23  26
ATOM     26  S   UNL     1       0.066   2.357  -2.399  0.00  0.00    +0.061 S 
ATOM     27  O   UNL     1      -0.896   3.165  -3.063  0.00  0.00    -0.153 OA
ATOM     28  O   UNL     1       1.251   2.897  -1.830  0.00  0.00    -0.153 OA
BRANCH  26  29
ATOM     29  N   UNL     1      -0.734   1.578  -1.176  0.00  0.00    -0.172 NA
ATOM     30  C   UNL     1      -0.013   1.086   0.008  0.00  0.00    +0.140 C 
ATOM     31  C   UNL     1      -0.741   1.585   1.261  0.00  0.00    +0.131 C 
ATOM     32  O   UNL     1      -2.125   1.238   1.170  0.00  0.00    -0.371 OA
ATOM     33  C   UNL     1      -2.811   1.844   0.072  0.00  0.00    +0.131 C 
ATOM     34  C   UNL     1      -2.188   1.357  -1.242  0.00  0.00    +0.140 C 
ATOM     35  C   UNL     1      -4.289   1.452   0.112  0.00  0.00    +0.039 C 
ATOM     36  C   UNL     1      -0.129   0.932   2.502  0.00  0.00    +0.039 C 
ENDBRANCH  26  29
ENDBRANCH  23  26
ENDBRANCH   2  20
TORSDOF 7
