REMARK  Name = ZINC01377340
REMARK  9 active torsions:
REMARK  status: ('A' for Active; 'I' for Inactive)
REMARK    1  A    between atoms: C_1  and  C_2
REMARK    2  A    between atoms: C_2  and  C_3
REMARK    3  A    between atoms: N_5  and  C_6
REMARK    4  A    between atoms: C_9  and  N_12
REMARK    5  A    between atoms: C_13  and  C_15
REMARK    6  A    between atoms: C_15  and  S_16
REMARK    7  A    between atoms: S_16  and  C_17
REMARK    8  A    between atoms: C_24  and  C_26
REMARK    9  A    between atoms: C_30  and  C_34
REMARK                            x       y       z     vdW  Elec       q    Type
REMARK                         _______ _______ _______ _____ _____    ______ ____
ROOT
ATOM      1  S   UNL     1      -5.523   7.601   0.937  0.00  0.00    -0.096 S 
ENDROOT
BRANCH   1   2
ATOM      2  C   UNL     1      -7.190   8.159   1.054  0.00  0.00    +0.109 A 
ATOM      3  C   UNL     1      -7.482   9.551   1.125  0.00  0.00    +0.043 A 
ATOM      4  C   UNL     1      -6.554  10.683   1.117  0.00  0.00    -0.025 A 
ATOM      5  C   UNL     1      -7.093  11.916   1.197  0.00  0.00    -0.004 A 
ATOM      6  S   UNL     1      -8.845  11.651   1.275  0.00  0.00    -0.073 S 
ATOM      7  C   UNL     1      -8.850   9.878   1.211  0.00  0.00    +0.113 A 
ATOM      8  N   UNL     1      -9.782   8.946   1.233  0.00  0.00    -0.225 NA
ATOM      9  C   UNL     1      -9.450   7.671   1.168  0.00  0.00    +0.135 A 
ATOM     10  N   UNL     1      -8.189   7.290   1.081  0.00  0.00    -0.225 NA
ATOM     11  C   UNL     1      -6.366  13.226   1.207  0.00  0.00    +0.046 C 
ATOM     12  C   UNL     1      -4.924  12.983   0.739  0.00  0.00    -0.009 C 
ATOM     13  C   UNL     1      -4.357  11.780   1.497  0.00  0.00    +0.008 C 
ATOM     14  C   UNL     1      -5.042  10.497   1.023  0.00  0.00    +0.037 C 
ATOM     15  C   UNL     1      -4.074  14.221   1.031  0.00  0.00    +0.008 C 
BRANCH   9  16
ATOM     16  C   UNL     1     -10.535   6.625   1.195  0.00  0.00    +0.057 C 
ATOM     17  C   UNL     1     -10.104   5.163   1.325  0.00  0.00    +0.012 C 
ATOM     18  C   UNL     1     -10.642   5.686  -0.009  0.00  0.00    +0.012 C 
ENDBRANCH   9  16
ENDBRANCH   1   2
BRANCH   1  19
ATOM     19  C   UNL     1      -5.793   5.812   0.890  0.00  0.00    +0.171 C 
BRANCH  19  21
ATOM     20  N   UNL     1      -4.420   3.760   0.738  0.00  0.00    -0.285 N 
ATOM     21  C   UNL     1      -4.466   5.106   0.788  0.00  0.00    +0.227 C 
ATOM     22  O   UNL     1      -3.438   5.749   0.750  0.00  0.00    -0.275 OA
ATOM     23  H   UNL     1      -5.236   3.243   0.835  0.00  0.00    +0.155 HD
BRANCH  20  27
ATOM     24  C   UNL     1      -0.776   1.816   0.166  0.00  0.00    +0.033 A 
ATOM     25  C   UNL     1      -0.830   2.985   0.914  0.00  0.00    +0.025 A 
ATOM     26  C   UNL     1      -2.035   3.631   1.099  0.00  0.00    +0.025 A 
ATOM     27  C   UNL     1      -3.196   3.107   0.545  0.00  0.00    +0.034 A 
ATOM     28  C   UNL     1      -3.143   1.936  -0.198  0.00  0.00    +0.025 A 
ATOM     29  C   UNL     1      -1.937   1.292  -0.387  0.00  0.00    +0.025 A 
BRANCH  24  32
ATOM     30  C   UNL     1       0.701   0.533  -1.190  0.00  0.00    +0.217 C 
ATOM     31  O   UNL     1      -0.159   0.465  -2.042  0.00  0.00    -0.275 OA
ATOM     32  N   UNL     1       0.448   1.163  -0.025  0.00  0.00    -0.286 N 
ATOM     33  H   UNL     1       1.112   1.160   0.682  0.00  0.00    +0.155 HD
BRANCH  30  35
ATOM     34  C   UNL     1       2.077  -0.731  -2.821  0.00  0.00    +0.013 C 
ATOM     35  C   UNL     1       2.054  -0.086  -1.433  0.00  0.00    +0.093 C 
ENDBRANCH  30  35
ENDBRANCH  24  32
ENDBRANCH  20  27
ENDBRANCH  19  21
ENDBRANCH   1  19
TORSDOF 7
