REMARK  Name = ZINC19691546
REMARK  8 active torsions:
REMARK  status: ('A' for Active; 'I' for Inactive)
REMARK    1  A    between atoms: C_1  and  C_2
REMARK    2  A    between atoms: C_2  and  C_3
REMARK    3  A    between atoms: C_3  and  N_4
REMARK    4  A    between atoms: C_6  and  C_18
REMARK    5  A    between atoms: N_9  and  S_10
REMARK    6  A    between atoms: S_10  and  C_13
REMARK    7  A    between atoms: C_22  and  O_30
REMARK    8  A    between atoms: C_23  and  O_29
REMARK                            x       y       z     vdW  Elec       q    Type
REMARK                         _______ _______ _______ _____ _____    ______ ____
ROOT
ATOM      1  N   UNL     1       5.019   0.399  -3.148  0.00  0.00    -0.309 N 
ATOM      2  C   UNL     1       6.302  -0.060  -3.209  0.00  0.00    +0.120 A 
ATOM      3  C   UNL     1       6.981  -0.305  -2.088  0.00  0.00    +0.019 A 
ATOM      4  S   UNL     1       5.792   0.126  -0.827  0.00  0.00    -0.053 S 
ATOM      5  C   UNL     1       4.451   0.600  -1.909  0.00  0.00    +0.195 A 
ATOM      6  N   UNL     1       3.251   1.029  -1.605  0.00  0.00    -0.103 NA
ATOM      7 CL   UNL     1       7.054  -0.327  -4.752  0.00  0.00    -0.063 Cl
ENDROOT
BRANCH   3   8
ATOM      8  C   UNL     1       8.392  -0.810  -1.925  0.00  0.00    +0.000 C 
ATOM      9  C   UNL     1       8.980  -0.245  -0.659  0.00  0.00    -0.050 A 
ATOM     10  C   UNL     1       8.744   1.090  -0.363  0.00  0.00    +0.051 A 
ATOM     11  C   UNL     1       9.266   1.655   0.787  0.00  0.00    +0.158 A 
ATOM     12  C   UNL     1      10.033   0.878   1.651  0.00  0.00    +0.158 A 
ATOM     13  C   UNL     1      10.263  -0.453   1.352  0.00  0.00    +0.053 A 
ATOM     14  C   UNL     1       9.736  -1.015   0.199  0.00  0.00    -0.044 A 
ATOM     15  C   UNL     1      10.012  -2.470  -0.080  0.00  0.00    +0.016 C 
ATOM     16  C   UNL     1       9.719  -2.786  -1.547  0.00  0.00    -0.077 C 
ATOM     17  N   UNL     1       8.378  -2.276  -1.875  0.00  0.00    +0.387 N 
ATOM     18  H   UNL     1       7.667  -2.610  -1.105  0.00  0.00    -0.085 HD
ATOM     19  H   UNL     1       8.072  -2.673  -2.854  0.00  0.00    -0.085 HD
BRANCH  12  20
ATOM     20  O   UNL     1      10.552   1.424   2.783  0.00  0.00    -0.503 OA
ATOM     21  H   UNL     1      11.157   0.808   3.463  0.00  0.00    +0.292 HD
ENDBRANCH  12  20
BRANCH  11  22
ATOM     22  O   UNL     1       9.033   2.964   1.072  0.00  0.00    -0.503 OA
ATOM     23  H   UNL     1       9.449   3.411   1.987  0.00  0.00    +0.292 HD
ENDBRANCH  11  22
ENDBRANCH   3   8
BRANCH   6  24
ATOM     24  S   UNL     1       2.805   1.186  -0.018  0.00  0.00    +0.107 S 
ATOM     25  O   UNL     1       3.612   2.219   0.531  0.00  0.00    -0.146 OA
ATOM     26  O   UNL     1       2.773  -0.126   0.527  0.00  0.00    -0.146 OA
BRANCH  24  27
ATOM     27  C   UNL     1       1.146   1.780   0.001  0.00  0.00    +0.150 A 
ATOM     28  C   UNL     1      -0.013   1.076   0.008  0.00  0.00    +0.037 A 
ATOM     29  C   UNL     1      -1.213   1.761   0.017  0.00  0.00    +0.010 A 
ATOM     30  C   UNL     1      -1.196   3.116   0.030  0.00  0.00    +0.047 A 
ATOM     31  S   UNL     1       0.555   3.464   0.015  0.00  0.00    -0.076 S 
ENDBRANCH  24  27
ENDBRANCH   6  24
BRANCH   1  32
ATOM     32  C   UNL     1       4.262   0.672  -4.373  0.00  0.00    +0.125 C 
BRANCH  32  34
ATOM     33  C   UNL     1       3.694   2.410  -6.074  0.00  0.00    +0.005 C 
ATOM     34  C   UNL     1       4.484   2.125  -4.796  0.00  0.00    +0.018 C 
ENDBRANCH  32  34
ENDBRANCH   1  32
TORSDOF 7
