REMARK  Name = ZINC26029994
REMARK  5 active torsions:
REMARK  status: ('A' for Active; 'I' for Inactive)
REMARK    1  A    between atoms: C_4  and  C_7
REMARK    2  A    between atoms: C_7  and  C_8
REMARK    3  A    between atoms: C_7  and  N_14
REMARK    4  A    between atoms: N_17  and  C_20
REMARK    5  A    between atoms: C_21  and  N_31
REMARK                            x       y       z     vdW  Elec       q    Type
REMARK                         _______ _______ _______ _____ _____    ______ ____
ROOT
ATOM      1  N   UNL     1       3.905  -2.131  -1.099  0.00  0.00    -0.289 NA
ATOM      2  C   UNL     1       2.843  -2.872  -0.405  0.00  0.00    +0.104 C 
ATOM      3  C   UNL     1       2.530  -4.156  -1.180  0.00  0.00    +0.122 C 
ATOM      4  N   UNL     1       3.782  -4.902  -1.375  0.00  0.00    -0.311 N 
ATOM      5  C   UNL     1       4.937  -4.187  -1.940  0.00  0.00    +0.122 C 
ATOM      6  C   UNL     1       5.155  -2.902  -1.135  0.00  0.00    +0.104 C 
ENDROOT
BRANCH   4   7
ATOM      7  C   UNL     1       3.872  -6.239  -1.035  0.00  0.00    +0.160 A 
ATOM      8  C   UNL     1       3.498  -7.219  -1.951  0.00  0.00    +0.230 A 
ATOM      9  C   UNL     1       3.599  -8.558  -1.582  0.00  0.00    +0.291 A 
ATOM     10  O   UNL     1       3.279  -9.441  -2.363  0.00  0.00    -0.265 OA
ATOM     11  N   UNL     1       4.055  -8.868  -0.350  0.00  0.00    -0.266 N 
ATOM     12  C   UNL     1       4.157 -10.176   0.019  0.00  0.00    +0.096 A 
ATOM     13  C   UNL     1       4.611 -10.514   1.246  0.00  0.00    +0.018 A 
ATOM     14  C   UNL     1       4.984  -9.518   2.159  0.00  0.00    +0.005 A 
ATOM     15  C   UNL     1       4.887  -8.207   1.801  0.00  0.00    +0.047 A 
ATOM     16  C   UNL     1       4.412  -7.874   0.518  0.00  0.00    +0.142 A 
ATOM     17  N   UNL     1       4.322  -6.594   0.166  0.00  0.00    -0.212 NA
BRANCH   8  18
ATOM     18  N   UNL     1       3.000  -6.843  -3.294  0.00  0.00    +0.065 N 
ATOM     19  O   UNL     1       2.921  -5.678  -3.605  0.00  0.00    -0.126 OA
ATOM     20  O   UNL     1       2.674  -7.702  -4.080  0.00  0.00    -0.126 OA
ENDBRANCH   8  18
ENDBRANCH   4   7
BRANCH   1  21
ATOM     21  C   UNL     1       4.116  -0.814  -0.484  0.00  0.00    +0.117 C 
BRANCH  21  25
ATOM     22  C   UNL     1       7.208   1.255  -2.583  0.00  0.00    +0.000 A 
ATOM     23  C   UNL     1       7.152   1.313  -1.203  0.00  0.00    +0.000 A 
ATOM     24  C   UNL     1       6.151   0.643  -0.524  0.00  0.00    +0.005 A 
ATOM     25  C   UNL     1       5.206  -0.083  -1.225  0.00  0.00    -0.026 A 
ATOM     26  C   UNL     1       5.262  -0.140  -2.605  0.00  0.00    +0.005 A 
ATOM     27  C   UNL     1       6.264   0.528  -3.284  0.00  0.00    +0.000 A 
ENDBRANCH  21  25
BRANCH  21  28
ATOM     28  C   UNL     1       2.839  -0.016  -0.555  0.00  0.00    -0.026 A 
ATOM     29  C   UNL     1       2.113   0.022  -1.731  0.00  0.00    +0.005 A 
ATOM     30  C   UNL     1       0.942   0.754  -1.796  0.00  0.00    +0.000 A 
ATOM     31  C   UNL     1       0.497   1.446  -0.685  0.00  0.00    +0.000 A 
ATOM     32  C   UNL     1       1.223   1.407   0.490  0.00  0.00    +0.000 A 
ATOM     33  C   UNL     1       2.392   0.672   0.557  0.00  0.00    +0.005 A 
ENDBRANCH  21  28
ENDBRANCH   1  21
TORSDOF 5
