REMARK  Name = ZINC02149255
REMARK  10 active torsions:
REMARK  status: ('A' for Active; 'I' for Inactive)
REMARK    1  A    between atoms: C_1  and  C_2
REMARK    2  A    between atoms: C_5  and  S_8
REMARK    3  A    between atoms: S_8  and  N_11
REMARK    4  A    between atoms: N_11  and  C_12
REMARK    5  A    between atoms: C_12  and  C_14
REMARK    6  A    between atoms: C_12  and  C_21
REMARK    7  A    between atoms: C_14  and  C_15
REMARK    8  A    between atoms: C_21  and  O_23
REMARK    9  A    between atoms: O_23  and  C_24
REMARK   10  A    between atoms: C_26  and  C_38
REMARK                            x       y       z     vdW  Elec       q    Type
REMARK                         _______ _______ _______ _____ _____    ______ ____
ROOT
ATOM      1  C   UNL     1      -2.959   0.730   1.522  0.00  0.00    +0.189 C 
ENDROOT
BRANCH   1   2
ATOM      2  N   UNL     1      -2.003  -0.122   2.233  0.00  0.00    -0.176 NA
ATOM      3  H   UNL     1      -2.076  -1.088   2.174  0.00  0.00    +0.149 HD
BRANCH   2   4
ATOM      4  S   UNL     1      -0.797   0.563   3.137  0.00  0.00    +0.059 S 
ATOM      5  O   UNL     1      -0.063  -0.509   3.715  0.00  0.00    -0.153 OA
ATOM      6  O   UNL     1      -0.186   1.550   2.318  0.00  0.00    -0.153 OA
BRANCH   4  11
ATOM      7  C   UNL     1      -3.436   3.500   7.699  0.00  0.00    +0.044 C 
ATOM      8  C   UNL     1      -2.777   2.766   6.560  0.00  0.00    -0.050 A 
ATOM      9  C   UNL     1      -2.416   1.440   6.708  0.00  0.00    +0.005 A 
ATOM     10  C   UNL     1      -1.811   0.767   5.663  0.00  0.00    +0.029 A 
ATOM     11  C   UNL     1      -1.568   1.420   4.470  0.00  0.00    +0.105 A 
ATOM     12  C   UNL     1      -1.924   2.748   4.323  0.00  0.00    +0.029 A 
ATOM     13  C   UNL     1      -2.533   3.420   5.367  0.00  0.00    +0.005 A 
ENDBRANCH   4  11
ENDBRANCH   2   4
ENDBRANCH   1   2
BRANCH   1  14
ATOM     14  C   UNL     1      -4.315   0.072   1.523  0.00  0.00    +0.332 C 
ATOM     15  O   UNL     1      -4.467  -0.999   2.062  0.00  0.00    -0.249 OA
BRANCH  14  16
ATOM     16  O   UNL     1      -5.355   0.676   0.924  0.00  0.00    -0.424 OA
BRANCH  16  17
ATOM     17  C   UNL     1      -6.521  -0.017   0.868  0.00  0.00    +0.143 A 
ATOM     18  C   UNL     1      -6.817  -0.795  -0.238  0.00  0.00    +0.050 A 
ATOM     19  C   UNL     1      -8.006  -1.503  -0.296  0.00  0.00    -0.043 A 
ATOM     20  C   UNL     1      -8.913  -1.446   0.744  0.00  0.00    +0.050 A 
ATOM     21  C   UNL     1      -8.640  -0.673   1.863  0.00  0.00    +0.143 A 
ATOM     22  C   UNL     1      -7.433   0.045   1.932  0.00  0.00    +0.063 A 
ATOM     23  C   UNL     1      -7.159   0.865   3.114  0.00  0.00    -0.023 A 
ATOM     24  C   UNL     1      -8.081   0.891   4.109  0.00  0.00    +0.041 A 
ATOM     25  C   UNL     1      -9.270   0.137   3.976  0.00  0.00    +0.341 A 
ATOM     26  O   UNL     1     -10.091   0.164   4.874  0.00  0.00    -0.245 OA
ATOM     27  O   UNL     1      -9.517  -0.607   2.888  0.00  0.00    -0.422 OA
ATOM     28  C   UNL     1      -7.605   1.786   5.232  0.00  0.00    +0.043 C 
ATOM     29  C   UNL     1      -6.479   2.643   4.615  0.00  0.00    +0.010 C 
ATOM     30  C   UNL     1      -5.978   1.737   3.469  0.00  0.00    +0.037 C 
ATOM     31  C   UNL     1      -8.314  -2.344  -1.508  0.00  0.00    +0.044 C 
ENDBRANCH  16  17
ENDBRANCH  14  16
ENDBRANCH   1  14
BRANCH   1  32
ATOM     32  C   UNL     1      -2.490   0.929   0.079  0.00  0.00    +0.067 C 
BRANCH  32  33
ATOM     33  C   UNL     1      -1.193   1.696   0.074  0.00  0.00    -0.045 A 
ATOM     34  C   UNL     1       0.011   1.018   0.127  0.00  0.00    +0.004 A 
ATOM     35  C   UNL     1       1.201   1.721   0.117  0.00  0.00    +0.000 A 
ATOM     36  C   UNL     1       1.187   3.102   0.059  0.00  0.00    +0.000 A 
ATOM     37  C   UNL     1      -0.017   3.780   0.011  0.00  0.00    +0.000 A 
ATOM     38  C   UNL     1      -1.207   3.077   0.021  0.00  0.00    +0.004 A 
ENDBRANCH  32  33
ENDBRANCH   1  32
TORSDOF 8
