REMARK  Name = ZINC19825012
REMARK  7 active torsions:
REMARK  status: ('A' for Active; 'I' for Inactive)
REMARK    1  A    between atoms: C_1  and  C_2
REMARK    2  A    between atoms: C_5  and  C_31
REMARK    3  A    between atoms: C_9  and  C_14
REMARK    4  A    between atoms: C_14  and  N_15
REMARK    5  A    between atoms: N_15  and  C_16
REMARK    6  A    between atoms: C_16  and  C_17
REMARK    7  A    between atoms: N_24  and  C_25
REMARK                            x       y       z     vdW  Elec       q    Type
REMARK                         _______ _______ _______ _____ _____    ______ ____
ROOT
ATOM      1  N   UNL     1       3.596   1.392   0.645  0.00  0.00    -0.274 N 
ATOM      2  C   UNL     1       2.331   0.926   0.654  0.00  0.00    +0.303 C 
ATOM      3  O   UNL     1       2.065  -0.097   1.255  0.00  0.00    -0.253 OA
ATOM      4  N   UNL     1       1.362   1.593  -0.002  0.00  0.00    -0.296 N 
ATOM      5  H   UNL     1       1.602   2.518  -0.546  0.00  0.00    +0.151 HD
ENDROOT
BRANCH   4   6
ATOM      6  C   UNL     1      -0.013   1.086   0.008  0.00  0.00    +0.074 C 
ATOM      7  C   UNL     1      -0.729   1.579   1.267  0.00  0.00    +0.022 C 
ATOM      8  C   UNL     1      -2.164   1.050   1.278  0.00  0.00    +0.002 C 
ATOM      9  C   UNL     1      -2.904   1.556   0.038  0.00  0.00    +0.000 C 
ATOM     10  C   UNL     1      -2.188   1.063  -1.221  0.00  0.00    +0.002 C 
ATOM     11  C   UNL     1      -0.753   1.593  -1.232  0.00  0.00    +0.022 C 
ENDBRANCH   4   6
BRANCH   1  12
ATOM     12  C   UNL     1       4.649   0.667   1.359  0.00  0.00    +0.150 C 
BRANCH  12  21
ATOM     13  C   UNL     1       8.835   0.598  -1.739  0.00  0.00    +0.044 C 
ATOM     14  C   UNL     1       8.164  -0.746  -1.863  0.00  0.00    -0.041 A 
ATOM     15  C   UNL     1       8.689  -1.701  -2.687  0.00  0.00    +0.004 A 
ATOM     16  C   UNL     1       8.078  -2.942  -2.809  0.00  0.00    +0.005 A 
ATOM     17  C   UNL     1       6.931  -3.233  -2.103  0.00  0.00    -0.026 A 
ATOM     18  C   UNL     1       6.378  -2.276  -1.258  0.00  0.00    +0.052 A 
ATOM     19  C   UNL     1       7.000  -1.019  -1.137  0.00  0.00    +0.002 A 
ATOM     20  C   UNL     1       6.410  -0.018  -0.246  0.00  0.00    +0.020 A 
ATOM     21  C   UNL     1       5.282  -0.340   0.433  0.00  0.00    +0.035 A 
ATOM     22  C   UNL     1       4.700  -1.617   0.280  0.00  0.00    +0.254 A 
ATOM     23  O   UNL     1       3.688  -1.887   0.903  0.00  0.00    -0.268 OA
ATOM     24  N   UNL     1       5.231  -2.541  -0.540  0.00  0.00    -0.322 N 
ATOM     25  H   UNL     1       4.738  -3.520  -0.632  0.00  0.00    +0.169 HD
ATOM     26  C   UNL     1       6.278  -4.584  -2.245  0.00  0.00    +0.046 C 
ENDBRANCH  12  21
ENDBRANCH   1  12
BRANCH   1  27
ATOM     27  C   UNL     1       3.916   2.624  -0.080  0.00  0.00    +0.183 C 
BRANCH  27  28
ATOM     28  C   UNL     1       3.755   3.805   0.843  0.00  0.00    +0.122 A 
ATOM     29  C   UNL     1       4.715   4.328   1.627  0.00  0.00    +0.046 A 
ATOM     30  C   UNL     1       4.133   5.415   2.318  0.00  0.00    +0.041 A 
ATOM     31  C   UNL     1       2.852   5.492   1.915  0.00  0.00    +0.195 A 
ATOM     32  O   UNL     1       2.630   4.518   1.017  0.00  0.00    -0.466 OA
ENDBRANCH  27  28
ENDBRANCH   1  27
TORSDOF 5
