REMARK  Name = ZINC29127062
REMARK  9 active torsions:
REMARK  status: ('A' for Active; 'I' for Inactive)
REMARK    1  A    between atoms: C_1  and  C_2
REMARK    2  A    between atoms: C_3  and  C_8
REMARK    3  A    between atoms: C_11  and  S_14
REMARK    4  A    between atoms: N_12  and  C_13
REMARK    5  A    between atoms: S_14  and  C_15
REMARK    6  A    between atoms: C_15  and  C_16
REMARK    7  A    between atoms: C_16  and  C_17
REMARK    8  A    between atoms: C_17  and  N_18
REMARK    9  A    between atoms: C_30  and  C_32
REMARK                            x       y       z     vdW  Elec       q    Type
REMARK                         _______ _______ _______ _____ _____    ______ ____
ROOT
ATOM      1  N   UNL     1      11.096   6.144  -1.383  0.00  0.00    +0.380 N 
ATOM      2  C   UNL     1      10.862   6.651  -2.736  0.00  0.00    -0.074 C 
ATOM      3  C   UNL     1      11.780   5.882  -3.691  0.00  0.00    +0.017 C 
ATOM      4  C   UNL     1      13.076   6.621  -3.896  0.00  0.00    -0.044 A 
ATOM      5  C   UNL     1      13.520   6.800  -5.205  0.00  0.00    +0.007 A 
ATOM      6  C   UNL     1      14.723   7.415  -5.469  0.00  0.00    +0.049 A 
ATOM      7  C   UNL     1      15.506   7.865  -4.417  0.00  0.00    +0.156 A 
ATOM      8  C   UNL     1      15.061   7.698  -3.100  0.00  0.00    +0.113 A 
ATOM      9  C   UNL     1      13.827   7.080  -2.846  0.00  0.00    -0.017 A 
ATOM     10  C   UNL     1      13.386   6.963  -1.408  0.00  0.00    +0.019 C 
ATOM     11  C   UNL     1      12.496   5.739  -1.198  0.00  0.00    -0.074 C 
ATOM     12  N   UNL     1      16.017   8.234  -2.295  0.00  0.00    -0.205 NA
ATOM     13  C   UNL     1      16.980   8.692  -3.038  0.00  0.00    +0.303 A 
ATOM     14  O   UNL     1      16.705   8.484  -4.336  0.00  0.00    -0.432 OA
ATOM     15  H   UNL     1      10.889   6.966  -0.682  0.00  0.00    -0.082 HD
ENDROOT
BRANCH  13  16
ATOM     16  C   UNL     1      18.226   9.362  -2.519  0.00  0.00    +0.470 C 
ATOM     17  F   UNL     1      19.215   8.399  -2.297  0.00  0.00    -0.162 F 
ATOM     18  F   UNL     1      18.682  10.292  -3.459  0.00  0.00    -0.162 F 
ATOM     19  F   UNL     1      17.936  10.018  -1.317  0.00  0.00    -0.162 F 
ENDBRANCH  13  16
BRANCH   1  20
ATOM     20  C   UNL     1      10.182   5.036  -1.071  0.00  0.00    -0.078 C 
BRANCH  20  21
ATOM     21  C   UNL     1       8.744   5.557  -1.031  0.00  0.00    -0.008 C 
BRANCH  21  22
ATOM     22  C   UNL     1       7.793   4.404  -0.706  0.00  0.00    +0.075 C 
BRANCH  22  23
ATOM     23  S   UNL     1       6.092   5.020  -0.659  0.00  0.00    -0.086 S 
BRANCH  23  27
ATOM     24  C   UNL     1       3.687   2.055   0.173  0.00  0.00    +0.166 A 
ATOM     25  N   UNL     1       4.866   1.479   0.177  0.00  0.00    -0.128 NA
ATOM     26  N   UNL     1       5.777   2.344  -0.093  0.00  0.00    -0.122 NA
ATOM     27  C   UNL     1       5.237   3.528  -0.276  0.00  0.00    +0.192 A 
ATOM     28  N   UNL     1       3.888   3.386  -0.113  0.00  0.00    -0.305 N 
ATOM     29  C   UNL     1       2.869   4.432  -0.220  0.00  0.00    +0.153 C 
BRANCH  24  32
ATOM     30  C   UNL     1       3.379   0.334   2.480  0.00  0.00    +0.066 C 
ATOM     31  C   UNL     1       2.223   0.567   1.542  0.00  0.00    +0.049 A 
ATOM     32  C   UNL     1       2.388   1.399   0.434  0.00  0.00    +0.040 A 
ATOM     33  C   UNL     1       1.302   1.604  -0.425  0.00  0.00    +0.015 A 
ATOM     34  C   UNL     1       0.107   0.967  -0.136  0.00  0.00    +0.020 A 
ATOM     35  C   UNL     1       0.025   0.157   0.982  0.00  0.00    +0.111 A 
ATOM     36  N   UNL     1       1.066  -0.017   1.775  0.00  0.00    -0.259 NA
ENDBRANCH  24  32
ENDBRANCH  23  27
ENDBRANCH  22  23
ENDBRANCH  21  22
ENDBRANCH  20  21
ENDBRANCH   1  20
TORSDOF 7
