REMARK  Name = ZINC63280131
REMARK  12 active torsions:
REMARK  status: ('A' for Active; 'I' for Inactive)
REMARK    1  A    between atoms: C_1  and  C_2
REMARK    2  A    between atoms: C_2  and  C_4
REMARK    3  A    between atoms: C_2  and  N_14
REMARK    4  A    between atoms: C_4  and  C_5
REMARK    5  A    between atoms: C_15  and  C_17
REMARK    6  A    between atoms: C_20  and  C_24
REMARK    7  A    between atoms: C_26  and  O_34
REMARK    8  A    between atoms: C_27  and  O_32
REMARK    9  A    between atoms: C_28  and  O_30
REMARK   10  A    between atoms: O_30  and  C_31
REMARK   11  A    between atoms: O_32  and  C_33
REMARK   12  A    between atoms: O_34  and  C_35
REMARK                            x       y       z     vdW  Elec       q    Type
REMARK                         _______ _______ _______ _____ _____    ______ ____
ROOT
ATOM      1  C   UNL     1      -3.378  -1.132  -1.135  0.00  0.00    +0.086 C 
ATOM      2  C   UNL     1      -4.092  -1.169  -2.279  0.00  0.00    +0.020 C 
ATOM      3  N   UNL     1      -3.554  -0.850  -3.474  0.00  0.00    -0.331 N 
ATOM      4  C   UNL     1      -4.456  -0.419  -4.559  0.00  0.00    +0.160 C 
ATOM      5  S   UNL     1      -6.117  -0.622  -3.787  0.00  0.00    -0.128 S 
ATOM      6  C   UNL     1      -5.559  -1.581  -2.309  0.00  0.00    +0.121 C 
ATOM      7  H   UNL     1      -2.596  -0.901  -3.616  0.00  0.00    +0.147 HD
ENDROOT
BRANCH   4   8
ATOM      8  C   UNL     1      -4.202   1.020  -4.928  0.00  0.00    -0.010 A 
ATOM      9  C   UNL     1      -3.740   1.905  -3.973  0.00  0.00    +0.056 A 
ATOM     10  C   UNL     1      -3.506   3.230  -4.308  0.00  0.00    +0.166 A 
ATOM     11  C   UNL     1      -3.737   3.667  -5.607  0.00  0.00    +0.204 A 
ATOM     12  C   UNL     1      -4.201   2.774  -6.565  0.00  0.00    +0.166 A 
ATOM     13  C   UNL     1      -4.427   1.449  -6.223  0.00  0.00    +0.056 A 
BRANCH  12  14
ATOM     14  O   UNL     1      -4.428   3.196  -7.838  0.00  0.00    -0.491 OA
ATOM     15  C   UNL     1      -4.904   2.223  -8.769  0.00  0.00    +0.277 C 
ENDBRANCH  12  14
BRANCH  11  16
ATOM     16  O   UNL     1      -3.509   4.967  -5.941  0.00  0.00    -0.488 OA
ATOM     17  C   UNL     1      -2.200   5.296  -6.410  0.00  0.00    +0.277 C 
ENDBRANCH  11  16
BRANCH  10  18
ATOM     18  O   UNL     1      -3.053   4.101  -3.367  0.00  0.00    -0.491 OA
ATOM     19  C   UNL     1      -2.839   3.583  -2.053  0.00  0.00    +0.277 C 
ENDBRANCH  10  18
ENDBRANCH   4   8
BRANCH   1  21
ATOM     20  N   UNL     1      -1.311  -0.669  -0.023  0.00  0.00    -0.309 N 
ATOM     21  C   UNL     1      -2.069  -0.596  -1.135  0.00  0.00    +0.239 C 
ATOM     22  O   UNL     1      -1.627  -0.069  -2.140  0.00  0.00    -0.271 OA
ATOM     23  H   UNL     1      -1.663  -1.089   0.777  0.00  0.00    +0.149 HD
BRANCH  20  25
ATOM     24  C   UNL     1      -0.016   1.382   0.293  0.00  0.00    +0.028 C 
ATOM     25  C   UNL     1       0.045  -0.114  -0.023  0.00  0.00    +0.074 C 
BRANCH  25  26
ATOM     26  C   UNL     1       0.888  -0.825   1.037  0.00  0.00    +0.055 C 
BRANCH  26  27
ATOM     27  C   UNL     1       1.051  -2.275   0.659  0.00  0.00    -0.040 C 
ATOM     28  C   UNL     1       2.087  -2.829  -0.010  0.00  0.00    -0.001 A 
ATOM     29  C   UNL     1       3.325  -2.270  -0.566  0.00  0.00    +0.010 A 
ATOM     30  C   UNL     1       4.191  -3.094  -1.199  0.00  0.00    +0.001 A 
ATOM     31  C   UNL     1       3.937  -4.465  -1.336  0.00  0.00    +0.002 A 
ATOM     32  C   UNL     1       2.822  -5.053  -0.852  0.00  0.00    +0.026 A 
ATOM     33  C   UNL     1       1.843  -4.281  -0.168  0.00  0.00    +0.043 A 
ATOM     34  N   UNL     1       0.699  -4.611   0.382  0.00  0.00    -0.380 N 
ATOM     35  C   UNL     1       0.092  -3.406   0.957  0.00  0.00    +0.144 C 
ATOM     36  H   UNL     1       0.320  -5.503   0.408  0.00  0.00    +0.160 HD
ENDBRANCH  26  27
ENDBRANCH  25  26
ENDBRANCH  20  25
ENDBRANCH   1  21
TORSDOF 8
