REMARK  Name = ZINC36158481
REMARK  6 active torsions:
REMARK  status: ('A' for Active; 'I' for Inactive)
REMARK    1  A    between atoms: C_6  and  C_7
REMARK    2  A    between atoms: N_9  and  C_10
REMARK    3  A    between atoms: C_10  and  C_12
REMARK    4  A    between atoms: C_10  and  C_28
REMARK    5  A    between atoms: N_15  and  S_18
REMARK    6  A    between atoms: S_18  and  C_21
REMARK                            x       y       z     vdW  Elec       q    Type
REMARK                         _______ _______ _______ _____ _____    ______ ____
ROOT
ATOM      1  C   UNL     1      -2.505  -2.861   0.011  0.00  0.00    +0.162 C 
ENDROOT
BRANCH   1   2
ATOM      2  C   UNL     1      -3.061  -3.212  -1.345  0.00  0.00    +0.236 C 
ATOM      3  O   UNL     1      -2.322  -3.285  -2.303  0.00  0.00    -0.274 OA
ATOM      4  N   UNL     1      -4.380  -3.445  -1.492  0.00  0.00    -0.296 N 
ATOM      5  C   UNL     1      -5.314  -3.252  -0.371  0.00  0.00    +0.136 C 
ATOM      6  C   UNL     1      -6.478  -2.380  -0.856  0.00  0.00    +0.179 C 
ATOM      7  O   UNL     1      -7.026  -2.946  -2.048  0.00  0.00    -0.377 OA
ATOM      8  C   UNL     1      -6.112  -2.995  -3.147  0.00  0.00    +0.179 C 
ATOM      9  C   UNL     1      -4.931  -3.894  -2.781  0.00  0.00    +0.136 C 
ENDBRANCH   1   2
BRANCH   1  10
ATOM     10  C   UNL     1      -2.399  -4.128   0.863  0.00  0.00    +0.021 C 
ATOM     11  C   UNL     1      -1.414  -5.100   0.209  0.00  0.00    +0.023 C 
ATOM     12  C   UNL     1      -1.336  -6.381   1.045  0.00  0.00    +0.110 C 
ATOM     13  N   UNL     1      -1.000  -6.022   2.430  0.00  0.00    -0.177 NA
ATOM     14  C   UNL     1      -1.829  -5.027   3.123  0.00  0.00    +0.110 C 
ATOM     15  C   UNL     1      -1.902  -3.761   2.263  0.00  0.00    +0.023 C 
BRANCH  13  16
ATOM     16  S   UNL     1       0.289  -6.726   3.195  0.00  0.00    +0.061 S 
ATOM     17  O   UNL     1       0.033  -6.634   4.590  0.00  0.00    -0.153 OA
ATOM     18  O   UNL     1       0.519  -7.968   2.543  0.00  0.00    -0.153 OA
BRANCH  16  19
ATOM     19  C   UNL     1       1.699  -5.720   2.873  0.00  0.00    +0.106 A 
ATOM     20  C   UNL     1       2.482  -5.964   1.760  0.00  0.00    +0.030 A 
ATOM     21  C   UNL     1       3.588  -5.175   1.508  0.00  0.00    +0.022 A 
ATOM     22  C   UNL     1       3.912  -4.141   2.369  0.00  0.00    +0.041 A 
ATOM     23  C   UNL     1       3.128  -3.898   3.482  0.00  0.00    +0.022 A 
ATOM     24  C   UNL     1       2.018  -4.684   3.731  0.00  0.00    +0.030 A 
ATOM     25 CL   UNL     1       5.302  -3.150   2.052  0.00  0.00    -0.084 Cl
ENDBRANCH  16  19
ENDBRANCH  13  16
ENDBRANCH   1  10
BRANCH   1  28
ATOM     26  C   UNL     1      -1.055  -0.946  -0.394  0.00  0.00    +0.245 C 
ATOM     27  O   UNL     1      -2.048  -0.251  -0.488  0.00  0.00    -0.270 OA
ATOM     28  N   UNL     1      -1.177  -2.265  -0.145  0.00  0.00    -0.300 N 
ATOM     29  H   UNL     1      -0.384  -2.819  -0.070  0.00  0.00    +0.150 HD
BRANCH  26  35
ATOM     30  C   UNL     1       0.414   1.022  -0.809  0.00  0.00    +0.016 A 
ATOM     31  C   UNL     1       1.667   1.579  -0.955  0.00  0.00    +0.039 A 
ATOM     32  C   UNL     1       2.798   0.784  -0.847  0.00  0.00    +0.123 A 
ATOM     33  C   UNL     1       2.675  -0.574  -0.592  0.00  0.00    +0.039 A 
ATOM     34  C   UNL     1       1.428  -1.140  -0.444  0.00  0.00    +0.016 A 
ATOM     35  C   UNL     1       0.285  -0.344  -0.552  0.00  0.00    +0.037 A 
ATOM     36  F   UNL     1       4.023   1.334  -0.991  0.00  0.00    -0.205 F 
ENDBRANCH  26  35
ENDBRANCH   1  28
TORSDOF 6
