REMARK  Name = ZINC04106343
REMARK  6 active torsions:
REMARK  status: ('A' for Active; 'I' for Inactive)
REMARK    1  A    between atoms: C_1  and  C_2
REMARK    2  A    between atoms: C_2  and  O_3
REMARK    3  A    between atoms: O_3  and  C_4
REMARK    4  A    between atoms: C_6  and  C_11
REMARK    5  A    between atoms: C_9  and  O_10
REMARK    6  A    between atoms: C_24  and  C_26
REMARK                            x       y       z     vdW  Elec       q    Type
REMARK                         _______ _______ _______ _____ _____    ______ ____
ROOT
ATOM      1  C   UNL     1       0.654  -4.954  -0.018  0.00  0.00    +0.176 C 
ATOM      2  C   UNL     1       0.626  -5.816  -1.261  0.00  0.00    +0.041 C 
ATOM      3  C   UNL     1       0.322  -7.131  -1.216  0.00  0.00    +0.020 C 
ATOM      4  C   UNL     1       0.303  -7.967  -2.473  0.00  0.00    +0.052 C 
ATOM      5  C   UNL     1      -0.098  -7.096  -3.665  0.00  0.00    +0.014 C 
ATOM      6  C   UNL     1       0.907  -5.945  -3.781  0.00  0.00    +0.080 C 
ATOM      7  C   UNL     1       0.932  -5.188  -2.482  0.00  0.00    +0.163 C 
ATOM      8  O   UNL     1       1.222  -4.008  -2.487  0.00  0.00    -0.292 OA
ATOM      9  N   UNL     1       0.025  -7.766  -0.033  0.00  0.00    -0.287 N 
ATOM     10  C   UNL     1       0.337  -7.117   1.150  0.00  0.00    +0.219 A 
ATOM     11  N   UNL     1       0.639  -5.796   1.172  0.00  0.00    -0.220 N 
ATOM     12  N   UNL     1       0.906  -5.472   2.501  0.00  0.00    -0.147 NA
ATOM     13  C   UNL     1       0.750  -6.579   3.199  0.00  0.00    +0.183 A 
ATOM     14  N   UNL     1       0.405  -7.571   2.370  0.00  0.00    -0.193 NA
ATOM     15  H   UNL     1      -0.392  -8.642  -0.028  0.00  0.00    +0.155 HD
ENDROOT
BRANCH   1  18
ATOM     16  C   UNL     1      -1.498  -1.849   0.006  0.00  0.00    +0.162 A 
ATOM     17  C   UNL     1      -0.389  -2.680  -0.003  0.00  0.00    +0.055 A 
ATOM     18  C   UNL     1      -0.553  -4.052  -0.008  0.00  0.00    -0.015 A 
ATOM     19  C   UNL     1      -1.823  -4.600  -0.005  0.00  0.00    +0.010 A 
ATOM     20  C   UNL     1      -2.934  -3.777   0.004  0.00  0.00    +0.049 A 
ATOM     21  C   UNL     1      -2.776  -2.400   0.016  0.00  0.00    +0.158 A 
BRANCH  21  22
ATOM     22  O   UNL     1      -3.868  -1.589   0.030  0.00  0.00    -0.503 OA
ATOM     23  H   UNL     1      -4.192  -1.350  -0.849  0.00  0.00    +0.292 HD
ENDBRANCH  21  22
BRANCH  16  24
ATOM     24  O   UNL     1      -1.339  -0.499   0.012  0.00  0.00    -0.489 OA
BRANCH  24  26
ATOM     25  C   UNL     1      -0.019   1.526   0.010  0.00  0.00    +0.048 C 
ATOM     26  C   UNL     1       0.002  -0.004   0.002  0.00  0.00    +0.226 C 
ENDBRANCH  24  26
ENDBRANCH  16  24
ENDBRANCH   1  18
BRANCH  13  27
ATOM     27  C   UNL     1       0.931  -6.706   4.666  0.00  0.00    +0.021 A 
ATOM     28  C   UNL     1       1.290  -5.594   5.426  0.00  0.00    +0.011 A 
ATOM     29  C   UNL     1       1.456  -5.718   6.790  0.00  0.00    +0.001 A 
ATOM     30  C   UNL     1       1.268  -6.943   7.404  0.00  0.00    +0.000 A 
ATOM     31  C   UNL     1       0.911  -8.050   6.655  0.00  0.00    +0.001 A 
ATOM     32  C   UNL     1       0.736  -7.936   5.291  0.00  0.00    +0.011 A 
ENDBRANCH  13  27
TORSDOF 5
