REMARK  Name = ZINC20238875
REMARK  8 active torsions:
REMARK  status: ('A' for Active; 'I' for Inactive)
REMARK    1  A    between atoms: C_1  and  C_2
REMARK    2  A    between atoms: C_6  and  O_8
REMARK    3  A    between atoms: O_8  and  C_9
REMARK    4  A    between atoms: C_9  and  C_10
REMARK    5  A    between atoms: C_16  and  C_17
REMARK    6  A    between atoms: C_20  and  C_22
REMARK    7  A    between atoms: C_24  and  N_29
REMARK    8  A    between atoms: C_27  and  C_28
REMARK                            x       y       z     vdW  Elec       q    Type
REMARK                         _______ _______ _______ _____ _____    ______ ____
ROOT
ATOM      1  C   UNL     1       1.782  -4.959   3.605  0.00  0.00    +0.137 C 
ATOM      2  N   UNL     1       1.432  -4.317   4.683  0.00  0.00    -0.166 NA
ATOM      3  N   UNL     1       1.122  -4.988   5.846  0.00  0.00    -0.152 N 
ATOM      4  C   UNL     1       0.648  -4.399   7.038  0.00  0.00    +0.153 C 
ATOM      5  N   UNL     1       0.052  -3.235   7.076  0.00  0.00    -0.283 NA
ATOM      6  C   UNL     1       0.893  -5.231   8.246  0.00  0.00    +0.084 C 
ATOM      7  C   UNL     1       1.150  -4.662   9.485  0.00  0.00    +0.063 C 
ATOM      8  C   UNL     1       0.848  -6.699   8.057  0.00  0.00    +0.273 C 
ATOM      9  O   UNL     1       0.581  -7.444   8.987  0.00  0.00    -0.268 OA
ATOM     10  N   UNL     1       1.110  -7.189   6.829  0.00  0.00    -0.152 NA
ATOM     11  C   UNL     1       1.264  -6.359   5.829  0.00  0.00    +0.181 C 
ATOM     12  S   UNL     1       1.711  -6.664   4.140  0.00  0.00    -0.035 S 
ATOM     13  H   UNL     1      -0.084  -2.732   6.258  0.00  0.00    +0.188 HD
ENDROOT
BRANCH   7  14
ATOM     14  C   UNL     1       1.364  -3.278   9.591  0.00  0.00    +0.129 A 
ATOM     15  C   UNL     1       1.497  -2.563  10.773  0.00  0.00    +0.050 A 
ATOM     16  C   UNL     1       1.695  -1.230  10.417  0.00  0.00    +0.050 A 
ATOM     17  C   UNL     1       1.676  -1.172   9.040  0.00  0.00    +0.136 A 
ATOM     18  O   UNL     1       1.482  -2.413   8.561  0.00  0.00    -0.455 OA
BRANCH  17  19
ATOM     19  C   UNL     1       1.847   0.047   8.227  0.00  0.00    +0.022 A 
ATOM     20  C   UNL     1       1.095   1.191   8.510  0.00  0.00    +0.044 A 
ATOM     21  C   UNL     1       1.260   2.327   7.746  0.00  0.00    +0.127 A 
ATOM     22  C   UNL     1       2.168   2.337   6.701  0.00  0.00    +0.033 A 
ATOM     23  C   UNL     1       2.915   1.208   6.415  0.00  0.00    +0.006 A 
ATOM     24  C   UNL     1       2.765   0.066   7.174  0.00  0.00    -0.040 A 
ATOM     25  C   UNL     1       3.585  -1.160   6.865  0.00  0.00    +0.044 C 
BRANCH  21  26
ATOM     26  N   UNL     1       0.464   3.539   8.044  0.00  0.00    +0.056 N 
ATOM     27  O   UNL     1      -0.329   3.532   8.957  0.00  0.00    -0.126 OA
ATOM     28  O   UNL     1       0.608   4.536   7.376  0.00  0.00    -0.126 OA
ENDBRANCH  21  26
ENDBRANCH  17  19
ENDBRANCH   7  14
BRANCH   1  29
ATOM     29  C   UNL     1       2.147  -4.407   2.251  0.00  0.00    +0.293 C 
BRANCH  29  30
ATOM     30  O   UNL     1       2.067  -2.980   2.282  0.00  0.00    -0.485 OA
BRANCH  30  36
ATOM     31  C   UNL     1       2.554   1.237  -0.126  0.00  0.00    +0.044 C 
ATOM     32  C   UNL     1       2.616  -0.268  -0.080  0.00  0.00    -0.047 A 
ATOM     33  C   UNL     1       2.979  -0.979  -1.209  0.00  0.00    +0.003 A 
ATOM     34  C   UNL     1       3.036  -2.360  -1.170  0.00  0.00    +0.004 A 
ATOM     35  C   UNL     1       2.731  -3.032  -0.002  0.00  0.00    +0.045 A 
ATOM     36  C   UNL     1       2.367  -2.321   1.132  0.00  0.00    +0.121 A 
ATOM     37  C   UNL     1       2.316  -0.935   1.092  0.00  0.00    +0.049 A 
ENDBRANCH  30  36
ENDBRANCH  29  30
ENDBRANCH   1  29
TORSDOF 6
