REMARK  Name = ZINC13087784
REMARK  9 active torsions:
REMARK  status: ('A' for Active; 'I' for Inactive)
REMARK    1  A    between atoms: C_1  and  C_2
REMARK    2  A    between atoms: C_5  and  N_30
REMARK    3  A    between atoms: C_7  and  S_8
REMARK    4  A    between atoms: S_8  and  N_11
REMARK    5  A    between atoms: N_14  and  S_17
REMARK    6  A    between atoms: S_17  and  C_20
REMARK    7  A    between atoms: C_22  and  C_28
REMARK    8  A    between atoms: C_24  and  C_27
REMARK    9  A    between atoms: C_25  and  C_26
REMARK                            x       y       z     vdW  Elec       q    Type
REMARK                         _______ _______ _______ _____ _____    ______ ____
ROOT
ATOM      1  N   UNL     1      -0.997   3.039  -1.073  0.00  0.00    -0.174 NA
ATOM      2  C   UNL     1      -0.761   1.597  -1.229  0.00  0.00    +0.126 C 
ATOM      3  C   UNL     1      -0.013   1.086   0.008  0.00  0.00    +0.126 C 
ATOM      4  N   UNL     1      -0.707   1.563   1.212  0.00  0.00    -0.174 NA
ATOM      5  C   UNL     1      -0.947   3.005   1.367  0.00  0.00    +0.126 C 
ATOM      6  C   UNL     1      -1.695   3.517   0.130  0.00  0.00    +0.126 C 
ENDROOT
BRANCH   1   7
ATOM      7  S   UNL     1      -0.485   4.108  -2.230  0.00  0.00    +0.061 S 
ATOM      8  O   UNL     1      -0.336   5.365  -1.585  0.00  0.00    -0.153 OA
ATOM      9  O   UNL     1       0.582   3.475  -2.922  0.00  0.00    -0.153 OA
BRANCH   7  16
ATOM     10  C   UNL     1      -1.503   1.882  -4.008  0.00  0.00    +0.046 C 
ATOM     11  C   UNL     1      -2.196   3.212  -4.159  0.00  0.00    -0.024 A 
ATOM     12  C   UNL     1      -3.227   3.354  -5.069  0.00  0.00    +0.007 A 
ATOM     13  C   UNL     1      -3.863   4.573  -5.207  0.00  0.00    +0.033 A 
ATOM     14  C   UNL     1      -3.468   5.651  -4.436  0.00  0.00    +0.128 A 
ATOM     15  C   UNL     1      -2.439   5.507  -3.524  0.00  0.00    +0.061 A 
ATOM     16  C   UNL     1      -1.800   4.289  -3.389  0.00  0.00    +0.111 A 
BRANCH  14  17
ATOM     17  N   UNL     1      -4.149   6.956  -4.584  0.00  0.00    +0.056 N 
ATOM     18  O   UNL     1      -5.058   7.081  -5.385  0.00  0.00    -0.126 OA
ATOM     19  O   UNL     1      -3.801   7.905  -3.905  0.00  0.00    -0.126 OA
ENDBRANCH  14  17
ENDBRANCH   7  16
ENDBRANCH   1   7
BRANCH   4  20
ATOM     20  S   UNL     1      -1.216   0.495   2.371  0.00  0.00    +0.061 S 
ATOM     21  O   UNL     1      -2.282   1.127   3.066  0.00  0.00    -0.153 OA
ATOM     22  O   UNL     1      -1.367  -0.762   1.726  0.00  0.00    -0.153 OA
BRANCH  20  23
ATOM     23  C   UNL     1       0.101   0.313   3.526  0.00  0.00    +0.109 A 
ATOM     24  C   UNL     1      -0.062   0.739   4.828  0.00  0.00    +0.044 A 
ATOM     25  C   UNL     1       0.983   0.594   5.743  0.00  0.00    +0.065 A 
ATOM     26  C   UNL     1       2.187   0.017   5.332  0.00  0.00    +0.018 A 
ATOM     27  C   UNL     1       2.336  -0.404   4.027  0.00  0.00    -0.045 A 
ATOM     28  C   UNL     1       1.295  -0.262   3.127  0.00  0.00    -0.021 A 
ATOM     29  C   UNL     1       1.463  -0.730   1.705  0.00  0.00    +0.046 C 
ATOM     30  C   UNL     1       3.635  -1.027   3.582  0.00  0.00    +0.044 C 
BRANCH  25  31
ATOM     31  C   UNL     1       0.816   1.047   7.139  0.00  0.00    +0.387 C 
ATOM     32  O   UNL     1      -0.233   1.547   7.493  0.00  0.00    -0.241 OA
ATOM     33  O   UNL     1       1.826   0.905   8.019  0.00  0.00    -0.241 OA
ENDBRANCH  25  31
ENDBRANCH  20  23
ENDBRANCH   4  20
TORSDOF 6
