REMARK  Name = ZINC35367163
REMARK  7 active torsions:
REMARK  status: ('A' for Active; 'I' for Inactive)
REMARK    1  A    between atoms: C_4  and  O_21
REMARK    2  A    between atoms: C_5  and  C_7
REMARK    3  A    between atoms: N_9  and  C_10
REMARK    4  A    between atoms: C_10  and  C_11
REMARK    5  A    between atoms: C_11  and  C_13
REMARK    6  A    between atoms: C_11  and  O_20
REMARK    7  A    between atoms: C_16  and  N_19
REMARK                            x       y       z     vdW  Elec       q    Type
REMARK                         _______ _______ _______ _____ _____    ______ ____
ROOT
ATOM      1  C   UNL     1       0.122  -4.319  -0.023  0.00  0.00    +0.140 C 
ENDROOT
BRANCH   1   4
ATOM      2  C   UNL     1       1.250  -2.159  -0.022  0.00  0.00    +0.248 C 
ATOM      3  O   UNL     1       2.314  -2.748  -0.036  0.00  0.00    -0.270 OA
ATOM      4  N   UNL     1       0.095  -2.855  -0.014  0.00  0.00    -0.308 N 
ATOM      5  H   UNL     1      -0.754  -2.385  -0.003  0.00  0.00    +0.149 HD
BRANCH   2  10
ATOM      6  C   UNL     1      -0.017   1.374   0.010  0.00  0.00    +0.001 A 
ATOM      7  C   UNL     1       1.170   2.089   0.002  0.00  0.00    +0.004 A 
ATOM      8  C   UNL     1       2.383   1.429  -0.013  0.00  0.00    +0.046 A 
ATOM      9  C   UNL     1       2.420   0.043  -0.021  0.00  0.00    +0.129 A 
ATOM     10  C   UNL     1       1.222  -0.684  -0.013  0.00  0.00    +0.078 A 
ATOM     11  C   UNL     1       0.002  -0.004   0.002  0.00  0.00    +0.017 A 
BRANCH   9  12
ATOM     12  O   UNL     1       3.611  -0.606  -0.037  0.00  0.00    -0.506 OA
ATOM     13  H   UNL     1       3.966  -0.799   0.842  0.00  0.00    +0.292 HD
ENDBRANCH   9  12
ENDBRANCH   2  10
ENDBRANCH   1   4
BRANCH   1  14
ATOM     14  C   UNL     1      -1.310  -4.856  -0.011  0.00  0.00    +0.162 C 
BRANCH  14  15
ATOM     15  C   UNL     1      -1.282  -6.363  -0.020  0.00  0.00    -0.018 A 
ATOM     16  C   UNL     1      -1.159  -7.057   1.169  0.00  0.00    +0.008 A 
ATOM     17  C   UNL     1      -1.133  -8.438   1.164  0.00  0.00    +0.023 A 
ATOM     18  C   UNL     1      -1.231  -9.129  -0.037  0.00  0.00    +0.025 A 
ATOM     19  C   UNL     1      -1.355  -8.428  -1.230  0.00  0.00    +0.023 A 
ATOM     20  C   UNL     1      -1.386  -7.048  -1.217  0.00  0.00    +0.008 A 
BRANCH  18  21
ATOM     21  N   UNL     1      -1.205 -10.526  -0.045  0.00  0.00    -0.358 N 
ATOM     22  H   UNL     1      -1.118 -11.014   0.789  0.00  0.00    +0.142 HD
ATOM     23  H   UNL     1      -1.274 -11.007  -0.884  0.00  0.00    +0.142 HD
ENDBRANCH  18  21
ENDBRANCH  14  15
BRANCH  14  24
ATOM     24  O   UNL     1      -1.981  -4.399   1.165  0.00  0.00    -0.386 OA
ATOM     25  H   UNL     1      -1.564  -4.681   1.990  0.00  0.00    +0.210 HD
ENDBRANCH  14  24
ENDBRANCH   1  14
TORSDOF 7
