REMARK  Name = ZINC19371661
REMARK  4 active torsions:
REMARK  status: ('A' for Active; 'I' for Inactive)
REMARK    1  A    between atoms: C_4  and  C_7
REMARK    2  A    between atoms: C_7  and  N_8
REMARK    3  A    between atoms: C_10  and  C_15
REMARK    4  A    between atoms: C_22  and  C_24
REMARK                            x       y       z     vdW  Elec       q    Type
REMARK                         _______ _______ _______ _____ _____    ______ ____
ROOT
ATOM      1  C   UNL     1       5.633  -0.046   4.547  0.00  0.00    +0.028 A 
ATOM      2  C   UNL     1       6.829   0.144   5.149  0.00  0.00    +0.093 A 
ATOM      3  C   UNL     1       6.908   0.915   6.325  0.00  0.00    +0.275 A 
ATOM      4  N   UNL     1       5.791   1.460   6.847  0.00  0.00    -0.180 N 
ATOM      5  C   UNL     1       4.585   1.264   6.234  0.00  0.00    +0.139 A 
ATOM      6  N   UNL     1       4.508   0.511   5.076  0.00  0.00    -0.343 N 
ATOM      7  C   UNL     1       3.641   1.917   6.965  0.00  0.00    +0.076 A 
ATOM      8  C   UNL     1       4.287   2.529   8.053  0.00  0.00    +0.095 A 
ATOM      9  N   UNL     1       5.573   2.254   7.980  0.00  0.00    -0.162 NA
ATOM     10  O   UNL     1       7.983   1.089   6.871  0.00  0.00    -0.266 OA
ATOM     11  H   UNL     1       3.651   0.378   4.642  0.00  0.00    +0.167 HD
ENDROOT
BRANCH   8  12
ATOM     12  C   UNL     1       3.631   3.345   9.105  0.00  0.00    +0.004 A 
ATOM     13  C   UNL     1       2.255   3.557   9.069  0.00  0.00    +0.010 A 
ATOM     14  C   UNL     1       1.649   4.317  10.049  0.00  0.00    +0.002 A 
ATOM     15  C   UNL     1       2.407   4.868  11.067  0.00  0.00    +0.020 A 
ATOM     16  C   UNL     1       3.775   4.662  11.108  0.00  0.00    +0.042 A 
ATOM     17  C   UNL     1       4.389   3.898  10.134  0.00  0.00    +0.030 A 
ATOM     18 CL   UNL     1       4.718   5.358  12.388  0.00  0.00    -0.084 Cl
ENDBRANCH   8  12
BRANCH   1  21
ATOM     19  N   UNL     1       4.152  -0.952   1.338  0.00  0.00    -0.296 N 
ATOM     20  C   UNL     1       4.988  -0.031   2.116  0.00  0.00    +0.118 C 
ATOM     21  C   UNL     1       5.545  -0.870   3.288  0.00  0.00    +0.062 C 
ATOM     22  C   UNL     1       4.472  -1.975   3.423  0.00  0.00    +0.107 C 
ATOM     23  C   UNL     1       3.838  -2.048   2.051  0.00  0.00    +0.217 C 
ATOM     24  O   UNL     1       3.148  -2.962   1.652  0.00  0.00    -0.276 OA
BRANCH  19  25
ATOM     25  C   UNL     1       3.711  -0.707  -0.038  0.00  0.00    +0.142 C 
BRANCH  25  29
ATOM     26  C   UNL     1      -0.017   1.378   0.010  0.00  0.00    +0.000 A 
ATOM     27  C   UNL     1       1.171   2.086   0.002  0.00  0.00    +0.000 A 
ATOM     28  C   UNL     1       2.377   1.411  -0.013  0.00  0.00    +0.005 A 
ATOM     29  C   UNL     1       2.396   0.029  -0.020  0.00  0.00    -0.030 A 
ATOM     30  C   UNL     1       1.208  -0.679  -0.012  0.00  0.00    +0.005 A 
ATOM     31  C   UNL     1       0.002  -0.004   0.002  0.00  0.00    +0.000 A 
ENDBRANCH  25  29
ENDBRANCH  19  25
ENDBRANCH   1  21
TORSDOF 4
