REMARK  Name = ZINC45738892
REMARK  3 active torsions:
REMARK  status: ('A' for Active; 'I' for Inactive)
REMARK    1  A    between atoms: C_1  and  C_2
REMARK    2  A    between atoms: N_11  and  C_12
REMARK    3  A    between atoms: C_18  and  C_20
REMARK                            x       y       z     vdW  Elec       q    Type
REMARK                         _______ _______ _______ _____ _____    ______ ____
ROOT
ATOM      1  C   UNL     1       0.451  -5.068   2.889  0.00  0.00    +0.077 C 
ATOM      2  C   UNL     1       1.346  -5.317   4.105  0.00  0.00    +0.041 C 
ATOM      3  C   UNL     1       0.548  -6.069   5.176  0.00  0.00    +0.109 C 
ATOM      4  N   UNL     1      -0.011  -7.289   4.578  0.00  0.00    -0.301 N 
ATOM      5  C   UNL     1      -0.814  -7.172   3.353  0.00  0.00    +0.109 C 
ATOM      6  C   UNL     1      -0.001  -6.407   2.303  0.00  0.00    +0.041 C 
ATOM      7  C   UNL     1       0.207  -8.493   5.143  0.00  0.00    +0.219 C 
ATOM      8  O   UNL     1       0.783  -8.568   6.208  0.00  0.00    -0.275 OA
ENDROOT
BRANCH   1  18
ATOM      9  C   UNL     1       1.409   1.205  -0.450  0.00  0.00    +0.009 C 
ATOM     10  C   UNL     1       1.307  -0.320  -0.383  0.00  0.00    +0.003 C 
ATOM     11  C   UNL     1       2.128  -0.938  -1.517  0.00  0.00    +0.006 C 
ATOM     12  C   UNL     1       2.000  -2.462  -1.470  0.00  0.00    +0.019 C 
ATOM     13  C   UNL     1       2.553  -2.977  -0.138  0.00  0.00    +0.109 C 
ATOM     14  N   UNL     1       1.868  -2.280   0.959  0.00  0.00    -0.285 N 
ATOM     15  C   UNL     1       1.852  -0.810   0.963  0.00  0.00    +0.112 C 
ATOM     16  C   UNL     1       1.266  -2.975   1.944  0.00  0.00    +0.302 C 
ATOM     17  O   UNL     1       0.781  -2.389   2.893  0.00  0.00    -0.253 OA
ATOM     18  N   UNL     1       1.200  -4.319   1.877  0.00  0.00    -0.296 N 
ATOM     19  H   UNL     1       1.649  -4.792   1.158  0.00  0.00    +0.151 HD
ENDBRANCH   1  18
BRANCH   7  20
ATOM     20  C   UNL     1      -0.264  -9.747   4.451  0.00  0.00    +0.075 C 
ATOM     21  C   UNL     1      -1.783  -9.863   4.586  0.00  0.00    +0.013 C 
ATOM     22  C   UNL     1      -2.261 -11.136   3.884  0.00  0.00    +0.001 C 
ATOM     23  C   UNL     1      -1.597 -12.354   4.528  0.00  0.00    +0.000 C 
ATOM     24  C   UNL     1      -0.078 -12.238   4.394  0.00  0.00    +0.001 C 
ATOM     25  C   UNL     1       0.400 -10.965   5.096  0.00  0.00    +0.013 C 
ENDBRANCH   7  20
TORSDOF 2
