REMARK  Name = ZINC35585200
REMARK  6 active torsions:
REMARK  status: ('A' for Active; 'I' for Inactive)
REMARK    1  A    between atoms: C_1  and  C_2
REMARK    2  A    between atoms: C_2  and  C_3
REMARK    3  A    between atoms: C_2  and  N_4
REMARK    4  A    between atoms: N_7  and  S_10
REMARK    5  A    between atoms: S_10  and  C_13
REMARK    6  A    between atoms: C_16  and  N_19
REMARK                            x       y       z     vdW  Elec       q    Type
REMARK                         _______ _______ _______ _____ _____    ______ ____
ROOT
ATOM      1  S   UNL     1      -4.694  -2.736  -1.770  0.00  0.00    +0.061 S 
ATOM      2  O   UNL     1      -4.957  -3.938  -1.060  0.00  0.00    -0.153 OA
ATOM      3  O   UNL     1      -5.730  -1.865  -2.204  0.00  0.00    -0.153 OA
ENDROOT
BRANCH   1   7
ATOM      4  N   UNL     1      -1.376  -0.512   0.012  0.00  0.00    -0.297 NA
ATOM      5  C   UNL     1      -2.148   0.036  -1.110  0.00  0.00    +0.102 C 
ATOM      6  C   UNL     1      -3.618  -0.371  -0.962  0.00  0.00    +0.125 C 
ATOM      7  N   UNL     1      -3.686  -1.833  -0.817  0.00  0.00    -0.174 NA
ATOM      8  C   UNL     1      -2.834  -2.471   0.198  0.00  0.00    +0.125 C 
ATOM      9  C   UNL     1      -1.395  -1.981   0.005  0.00  0.00    +0.102 C 
BRANCH   4  11
ATOM     10  C   UNL     1      -0.019   1.526   0.010  0.00  0.00    +0.024 C 
ATOM     11  C   UNL     1       0.002  -0.004   0.002  0.00  0.00    +0.051 C 
ATOM     12  C   UNL     1       0.742  -0.511   1.242  0.00  0.00    +0.024 C 
ENDBRANCH   4  11
ENDBRANCH   1   7
BRANCH   1  13
ATOM     13  C   UNL     1      -3.783  -3.190  -3.209  0.00  0.00    +0.106 A 
ATOM     14  C   UNL     1      -3.793  -2.369  -4.321  0.00  0.00    +0.031 A 
ATOM     15  C   UNL     1      -3.078  -2.726  -5.449  0.00  0.00    +0.034 A 
ATOM     16  C   UNL     1      -2.353  -3.902  -5.465  0.00  0.00    +0.126 A 
ATOM     17  C   UNL     1      -2.342  -4.723  -4.352  0.00  0.00    +0.034 A 
ATOM     18  C   UNL     1      -3.054  -4.364  -3.222  0.00  0.00    +0.031 A 
BRANCH  16  19
ATOM     19  N   UNL     1      -1.588  -4.284  -6.673  0.00  0.00    +0.056 N 
ATOM     20  O   UNL     1      -1.597  -3.567  -7.646  0.00  0.00    -0.126 OA
ATOM     21  O   UNL     1      -0.954  -5.314  -6.687  0.00  0.00    -0.126 OA
ENDBRANCH  16  19
ENDBRANCH   1  13
TORSDOF 4
