REMARK  Name = ZINC64565375
REMARK  4 active torsions:
REMARK  status: ('A' for Active; 'I' for Inactive)
REMARK    1  A    between atoms: C_5  and  C_7
REMARK    2  A    between atoms: C_9  and  C_12
REMARK    3  A    between atoms: C_12  and  N_13
REMARK    4  A    between atoms: N_20  and  C_23
REMARK                            x       y       z     vdW  Elec       q    Type
REMARK                         _______ _______ _______ _____ _____    ______ ____
ROOT
ATOM      1  N   UNL     1      -0.643  -5.831  -1.382  0.00  0.00    -0.214 N 
ATOM      2  C   UNL     1       0.083  -6.772  -2.253  0.00  0.00    +0.216 C 
ATOM      3  C   UNL     1      -0.728  -6.689  -3.574  0.00  0.00    +0.246 C 
ATOM      4  C   UNL     1       0.251  -6.069  -4.546  0.00  0.00    +0.255 C 
ATOM      5  O   UNL     1       0.023  -5.827  -5.712  0.00  0.00    -0.272 OA
ATOM      6  N   UNL     1       1.407  -5.827  -3.918  0.00  0.00    -0.207 N 
ATOM      7  C   UNL     1       1.432  -6.191  -2.610  0.00  0.00    +0.251 C 
ATOM      8  O   UNL     1       2.368  -6.072  -1.849  0.00  0.00    -0.273 OA
ATOM      9  N   UNL     1      -1.805  -5.741  -3.263  0.00  0.00    -0.156 NA
ATOM     10  N   UNL     1      -1.711  -5.316  -2.116  0.00  0.00    -0.082 NA
ENDROOT
BRANCH   6  11
ATOM     11  C   UNL     1       2.512  -5.250  -4.559  0.00  0.00    +0.044 A 
ATOM     12  C   UNL     1       2.944  -3.981  -4.198  0.00  0.00    +0.024 A 
ATOM     13  C   UNL     1       4.032  -3.419  -4.832  0.00  0.00    +0.006 A 
ATOM     14  C   UNL     1       4.696  -4.114  -5.830  0.00  0.00    -0.044 A 
ATOM     15  C   UNL     1       4.269  -5.378  -6.192  0.00  0.00    -0.042 A 
ATOM     16  C   UNL     1       3.182  -5.949  -5.554  0.00  0.00    +0.028 A 
ATOM     17  C   UNL     1       5.153  -5.920  -7.295  0.00  0.00    +0.036 C 
ATOM     18  C   UNL     1       5.886  -4.689  -7.867  0.00  0.00    +0.009 C 
ATOM     19  C   UNL     1       5.897  -3.721  -6.665  0.00  0.00    +0.036 C 
ENDBRANCH   6  11
BRANCH   1  20
ATOM     20  C   UNL     1      -0.308  -5.501   0.006  0.00  0.00    +0.227 C 
BRANCH  20  23
ATOM     21  C   UNL     1       1.374  -2.286   0.090  0.00  0.00    +0.203 A 
ATOM     22  N   UNL     1       0.281  -3.071   0.084  0.00  0.00    -0.190 NA
ATOM     23  C   UNL     1       0.632  -4.324   0.029  0.00  0.00    +0.247 A 
ATOM     24  O   UNL     1       1.969  -4.390  -0.002  0.00  0.00    -0.336 OA
ATOM     25  N   UNL     1       2.438  -3.050   0.033  0.00  0.00    -0.056 NA
BRANCH  21  30
ATOM     26  C   UNL     1       0.177   1.274   0.253  0.00  0.00    +0.001 A 
ATOM     27  C   UNL     1       1.377   1.964   0.247  0.00  0.00    +0.001 A 
ATOM     28  C   UNL     1       2.575   1.277   0.192  0.00  0.00    +0.016 A 
ATOM     29  C   UNL     1       2.581  -0.104   0.140  0.00  0.00    +0.029 A 
ATOM     30  C   UNL     1       1.375  -0.803   0.146  0.00  0.00    +0.036 A 
ATOM     31  C   UNL     1       0.171  -0.105   0.202  0.00  0.00    +0.013 A 
ATOM     32 BR   UNL     1       4.221  -1.042   0.062  0.00  0.00    -0.050 Br
ENDBRANCH  21  30
ENDBRANCH  20  23
ENDBRANCH   1  20
TORSDOF 4
