REMARK  Name = ZINC36249738
REMARK  11 active torsions:
REMARK  status: ('A' for Active; 'I' for Inactive)
REMARK    1  A    between atoms: C_6  and  C_7
REMARK    2  A    between atoms: C_8  and  C_18
REMARK    3  A    between atoms: C_9  and  N_12
REMARK    4  A    between atoms: C_18  and  N_19
REMARK    5  A    between atoms: N_19  and  C_20
REMARK    6  A    between atoms: N_19  and  C_27
REMARK    7  A    between atoms: C_20  and  C_21
REMARK    8  A    between atoms: C_27  and  C_28
REMARK    9  A    between atoms: C_28  and  C_30
REMARK   10  A    between atoms: C_28  and  O_37
REMARK   11  A    between atoms: C_30  and  N_31
REMARK                            x       y       z     vdW  Elec       q    Type
REMARK                         _______ _______ _______ _____ _____    ______ ____
ROOT
ATOM      1  C   UNL     1      -0.878  -2.620  -0.927  0.00  0.00    -0.035 C 
ENDROOT
BRANCH   1   3
ATOM      2  C   UNL     1      -1.267  -3.051  -3.462  0.00  0.00    +0.117 A 
ATOM      3  C   UNL     1      -1.649  -3.153  -2.108  0.00  0.00    +0.025 A 
ATOM      4  C   UNL     1      -2.831  -3.817  -2.056  0.00  0.00    +0.222 A 
ATOM      5  O   UNL     1      -3.191  -4.125  -3.313  0.00  0.00    -0.339 OA
ATOM      6  N   UNL     1      -2.195  -3.630  -4.189  0.00  0.00    -0.076 NA
BRANCH   2  12
ATOM      7  C   UNL     1       0.715  -3.014  -4.975  0.00  0.00    +0.013 A 
ATOM      8  C   UNL     1       1.858  -2.405  -5.450  0.00  0.00    +0.039 A 
ATOM      9  C   UNL     1       2.260  -1.183  -4.934  0.00  0.00    +0.123 A 
ATOM     10  C   UNL     1       1.516  -0.568  -3.939  0.00  0.00    +0.039 A 
ATOM     11  C   UNL     1       0.371  -1.171  -3.459  0.00  0.00    +0.013 A 
ATOM     12  C   UNL     1      -0.036  -2.399  -3.976  0.00  0.00    +0.004 A 
ATOM     13  F   UNL     1       3.380  -0.590  -5.401  0.00  0.00    -0.205 F 
ENDBRANCH   2  12
BRANCH   4  14
ATOM     14  N   UNL     1      -3.541  -4.122  -0.909  0.00  0.00    -0.295 N 
ATOM     15  C   UNL     1      -4.607  -3.234  -0.419  0.00  0.00    +0.136 C 
ATOM     16  C   UNL     1      -5.861  -4.077  -0.165  0.00  0.00    +0.179 C 
ATOM     17  O   UNL     1      -5.522  -5.184   0.674  0.00  0.00    -0.377 OA
ATOM     18  C   UNL     1      -4.574  -6.087   0.097  0.00  0.00    +0.179 C 
ATOM     19  C   UNL     1      -3.258  -5.348  -0.146  0.00  0.00    +0.136 C 
ENDBRANCH   4  14
ENDBRANCH   1   3
BRANCH   1  20
ATOM     20  N   UNL     1      -0.080  -3.702  -0.335  0.00  0.00    +0.386 N 
ATOM     21  H   UNL     1      -0.682  -4.478  -0.107  0.00  0.00    -0.081 HD
BRANCH  20  22
ATOM     22  C   UNL     1       0.575  -3.214   0.886  0.00  0.00    -0.046 C 
BRANCH  22  23
ATOM     23  C   UNL     1      -0.489  -2.795   1.902  0.00  0.00    +0.102 C 
ATOM     24  C   UNL     1       0.188  -2.360   3.220  0.00  0.00    +0.032 C 
ATOM     25  C   UNL     1      -0.772  -2.945   4.292  0.00  0.00    +0.030 C 
ATOM     26  C   UNL     1      -1.238  -4.246   3.592  0.00  0.00    +0.160 C 
ATOM     27  O   UNL     1      -1.343  -3.906   2.198  0.00  0.00    -0.378 OA
ENDBRANCH  22  23
ENDBRANCH  20  22
BRANCH  20  28
ATOM     28  C   UNL     1       0.941  -4.139  -1.296  0.00  0.00    -0.045 C 
BRANCH  28  29
ATOM     29  C   UNL     1       1.644  -5.388  -0.761  0.00  0.00    +0.112 C 
BRANCH  29  30
ATOM     30  O   UNL     1       2.424  -5.042   0.385  0.00  0.00    -0.392 OA
ATOM     31  H   UNL     1       3.109  -4.382   0.210  0.00  0.00    +0.210 HD
ENDBRANCH  29  30
BRANCH  29  32
ATOM     32  C   UNL     1       2.558  -5.964  -1.845  0.00  0.00    +0.114 C 
BRANCH  32  33
ATOM     33  N   UNL     1       3.217  -7.175  -1.337  0.00  0.00    -0.296 NA
ATOM     34  C   UNL     1       4.413  -7.495  -2.129  0.00  0.00    +0.112 C 
ATOM     35  C   UNL     1       5.100  -8.726  -1.532  0.00  0.00    +0.175 C 
ATOM     36  O   UNL     1       4.171  -9.812  -1.492  0.00  0.00    -0.377 OA
ATOM     37  C   UNL     1       2.994  -9.535  -0.729  0.00  0.00    +0.175 C 
ATOM     38  C   UNL     1       2.285  -8.312  -1.318  0.00  0.00    +0.112 C 
ENDBRANCH  32  33
ENDBRANCH  29  32
ENDBRANCH  28  29
ENDBRANCH  20  28
ENDBRANCH   1  20
TORSDOF 11
