REMARK  Name = ZINC21463721
REMARK  9 active torsions:
REMARK  status: ('A' for Active; 'I' for Inactive)
REMARK    1  A    between atoms: C_1  and  C_2
REMARK    2  A    between atoms: C_3  and  C_30
REMARK    3  A    between atoms: N_9  and  C_29
REMARK    4  A    between atoms: C_10  and  S_12
REMARK    5  A    between atoms: S_12  and  C_13
REMARK    6  A    between atoms: C_13  and  C_15
REMARK    7  A    between atoms: C_13  and  C_16
REMARK    8  A    between atoms: N_18  and  C_19
REMARK    9  A    between atoms: C_22  and  N_26
REMARK                            x       y       z     vdW  Elec       q    Type
REMARK                         _______ _______ _______ _____ _____    ______ ____
ROOT
ATOM      1  C   UNL     1      -3.332  -2.386   0.035  0.00  0.00    +0.137 C 
ATOM      2  C   UNL     1      -3.386  -1.581  -1.264  0.00  0.00    +0.029 C 
ENDROOT
BRANCH   1   3
ATOM      3  C   UNL     1      -4.573  -3.232   0.154  0.00  0.00    +0.230 C 
ATOM      4  O   UNL     1      -4.535  -4.409  -0.136  0.00  0.00    -0.274 OA
ATOM      5  N   UNL     1      -5.726  -2.681   0.583  0.00  0.00    -0.283 N 
ATOM      6  H   UNL     1      -5.744  -1.633   0.916  0.00  0.00    +0.155 HD
BRANCH   5   7
ATOM      7  C   UNL     1      -6.900  -3.443   0.605  0.00  0.00    +0.052 A 
ATOM      8  C   UNL     1      -6.845  -4.799   0.899  0.00  0.00    +0.027 A 
ATOM      9  C   UNL     1      -8.005  -5.547   0.920  0.00  0.00    +0.034 A 
ATOM     10  C   UNL     1      -9.222  -4.949   0.647  0.00  0.00    +0.128 A 
ATOM     11  C   UNL     1      -9.281  -3.599   0.354  0.00  0.00    +0.054 A 
ATOM     12  C   UNL     1      -8.124  -2.842   0.337  0.00  0.00    +0.064 A 
ATOM     13 CL   UNL     1      -8.200  -1.146  -0.025  0.00  0.00    -0.082 Cl
BRANCH  10  14
ATOM     14  N   UNL     1     -10.463  -5.755   0.670  0.00  0.00    +0.056 N 
ATOM     15  O   UNL     1     -10.412  -6.944   0.929  0.00  0.00    -0.126 OA
ATOM     16  O   UNL     1     -11.535  -5.229   0.430  0.00  0.00    -0.126 OA
ENDBRANCH  10  14
ENDBRANCH   5   7
ENDBRANCH   1   3
BRANCH   1  17
ATOM     17  S   UNL     1      -1.872  -3.455   0.022  0.00  0.00    -0.075 S 
BRANCH  17  27
ATOM     18  C   UNL     1       3.770   0.623   0.043  0.00  0.00    +0.045 C 
ATOM     19  C   UNL     1       2.276   0.817   0.050  0.00  0.00    -0.026 A 
ATOM     20  C   UNL     1       1.752   2.052   0.062  0.00  0.00    -0.008 A 
ATOM     21  S   UNL     1      -0.006   1.756   0.064  0.00  0.00    -0.073 S 
ATOM     22  C   UNL     1       0.013  -0.019   0.049  0.00  0.00    +0.117 A 
ATOM     23  C   UNL     1       1.386  -0.331   0.043  0.00  0.00    +0.075 A 
ATOM     24  C   UNL     1       1.707  -1.725   0.029  0.00  0.00    +0.263 A 
ATOM     25  O   UNL     1       2.869  -2.091   0.022  0.00  0.00    -0.267 OA
ATOM     26  N   UNL     1       0.708  -2.627   0.024  0.00  0.00    -0.290 N 
ATOM     27  C   UNL     1      -0.600  -2.236   0.031  0.00  0.00    +0.173 A 
ATOM     28  N   UNL     1      -0.923  -0.959   0.043  0.00  0.00    -0.216 NA
ATOM     29  C   UNL     1       1.031  -4.056   0.010  0.00  0.00    +0.154 C 
ATOM     30  C   UNL     1       2.477   3.373   0.070  0.00  0.00    +0.052 C 
ENDBRANCH  17  27
ENDBRANCH   1  17
TORSDOF 5
