REMARK  Name = ZINC16035865
REMARK  14 active torsions:
REMARK  status: ('A' for Active; 'I' for Inactive)
REMARK    1  A    between atoms: C_1  and  C_2
REMARK    2  A    between atoms: C_3  and  C_34
REMARK    3  A    between atoms: C_9  and  C_33
REMARK    4  A    between atoms: C_22  and  C_32
REMARK    5  A    between atoms: C_25  and  O_28
REMARK    6  A    between atoms: O_28  and  C_29
REMARK    7  A    between atoms: C_29  and  C_31
REMARK    8  A    between atoms: C_34  and  C_35
REMARK    9  A    between atoms: C_35  and  C_36
REMARK   10  A    between atoms: C_36  and  C_38
REMARK   11  A    between atoms: C_36  and  C_39
REMARK   12  A    between atoms: C_39  and  N_40
REMARK   13  A    between atoms: C_41  and  C_43
REMARK   14  A    between atoms: C_44  and  C_46
REMARK                            x       y       z     vdW  Elec       q    Type
REMARK                         _______ _______ _______ _____ _____    ______ ____
ROOT
ATOM      1  C   UNL     1      -0.950  -1.156   1.286  0.00  0.00    +0.043 C 
ATOM      2  C   UNL     1       0.195  -0.445   1.962  0.00  0.00    -0.028 C 
ATOM      3  C   UNL     1       0.296   0.877   2.204  0.00  0.00    +0.098 C 
ATOM      4  O   UNL     1       1.490   1.187   2.837  0.00  0.00    -0.493 OA
ATOM      5  C   UNL     1       1.736   0.054   3.622  0.00  0.00    +0.181 C 
ATOM      6  C   UNL     1       1.446  -1.015   2.492  0.00  0.00    +0.065 C 
ATOM      7  C   UNL     1       1.652  -2.319   3.227  0.00  0.00    -0.019 C 
ATOM      8  C   UNL     1       1.975  -3.419   2.252  0.00  0.00    +0.008 C 
ATOM      9  C   UNL     1       3.177  -4.288   2.501  0.00  0.00    +0.005 C 
ATOM     10  C   UNL     1       4.358  -3.606   3.176  0.00  0.00    +0.003 C 
ATOM     11  C   UNL     1       3.901  -2.870   4.411  0.00  0.00    +0.000 C 
ATOM     12  C   UNL     1       2.724  -1.985   4.262  0.00  0.00    +0.003 C 
ATOM     13  C   UNL     1       3.064  -0.475   4.117  0.00  0.00    +0.049 C 
ATOM     14  C   UNL     1       5.069  -2.201   5.131  0.00  0.00    +0.031 C 
ATOM     15  C   UNL     1       5.889  -1.403   4.162  0.00  0.00    -0.027 C 
ATOM     16  C   UNL     1       5.978  -1.695   2.904  0.00  0.00    -0.064 C 
ATOM     17  C   UNL     1       5.247  -2.830   2.240  0.00  0.00    -0.008 C 
ATOM     18  C   UNL     1       6.314  -3.763   1.639  0.00  0.00    +0.015 C 
ATOM     19  C   UNL     1       7.248  -2.995   0.711  0.00  0.00    +0.046 C 
ATOM     20  C   UNL     1       7.949  -1.851   1.435  0.00  0.00    +0.180 C 
ATOM     21  C   UNL     1       6.922  -0.883   2.032  0.00  0.00    +0.075 C 
ATOM     22  C   UNL     1       4.451  -2.252   1.075  0.00  0.00    +0.016 C 
ATOM     23  C   UNL     1       0.366  -2.689   3.977  0.00  0.00    +0.012 C 
ENDROOT
BRANCH  20  24
ATOM     24  O   UNL     1       8.782  -2.385   2.500  0.00  0.00    -0.461 OA
BRANCH  24  25
ATOM     25  C   UNL     1       9.899  -1.704   2.800  0.00  0.00    +0.304 C 
ATOM     26  O   UNL     1      10.173  -0.696   2.193  0.00  0.00    -0.251 OA
ATOM     27  C   UNL     1      10.812  -2.197   3.893  0.00  0.00    +0.136 C 
ENDBRANCH  24  25
ENDBRANCH  20  24
BRANCH   3  28
ATOM     28  C   UNL     1      -0.751   1.893   1.826  0.00  0.00    +0.074 C 
BRANCH  28  29
ATOM     29  C   UNL     1      -1.674   2.143   3.020  0.00  0.00    +0.012 C 
BRANCH  29  30
ATOM     30  C   UNL     1      -2.737   3.174   2.636  0.00  0.00    +0.004 C 
ATOM     31  C   UNL     1      -3.638   2.595   1.543  0.00  0.00    +0.009 C 
BRANCH  30  32
ATOM     32  C   UNL     1      -3.582   3.517   3.864  0.00  0.00    +0.119 C 
BRANCH  32  33
ATOM     33  N   UNL     1      -4.521   4.590   3.526  0.00  0.00    -0.242 N 
ATOM     34  C   UNL     1      -5.735   4.290   3.024  0.00  0.00    +0.219 C 
ATOM     35  O   UNL     1      -6.473   5.177   2.650  0.00  0.00    -0.275 OA
ATOM     36  C   UNL     1      -6.176   2.852   2.927  0.00  0.00    +0.110 C 
ATOM     37  C   UNL     1      -4.171   5.878   3.718  0.00  0.00    +0.219 C 
ATOM     38  O   UNL     1      -3.030   6.157   4.019  0.00  0.00    -0.275 OA
ATOM     39  C   UNL     1      -5.197   6.970   3.559  0.00  0.00    +0.110 C 
ENDBRANCH  32  33
ENDBRANCH  30  32
ENDBRANCH  29  30
ENDBRANCH  28  29
ENDBRANCH   3  28
TORSDOF 7
