REMARK  Name = ZINC06599438
REMARK  16 active torsions:
REMARK  status: ('A' for Active; 'I' for Inactive)
REMARK    1  A    between atoms: C_1  and  C_2
REMARK    2  A    between atoms: C_2  and  O_3
REMARK    3  A    between atoms: O_3  and  C_4
REMARK    4  A    between atoms: C_4  and  C_6
REMARK    5  A    between atoms: C_7  and  C_34
REMARK    6  A    between atoms: C_8  and  C_31
REMARK    7  A    between atoms: C_10  and  N_11
REMARK    8  A    between atoms: C_12  and  C_14
REMARK    9  A    between atoms: C_14  and  S_15
REMARK   10  A    between atoms: S_15  and  C_16
REMARK   11  A    between atoms: C_19  and  C_21
REMARK   12  A    between atoms: C_21  and  S_22
REMARK   13  A    between atoms: S_22  and  C_23
REMARK   14  A    between atoms: C_25  and  C_30
REMARK   15  A    between atoms: C_27  and  C_29
REMARK   16  A    between atoms: C_31  and  C_33
REMARK                            x       y       z     vdW  Elec       q    Type
REMARK                         _______ _______ _______ _____ _____    ______ ____
ROOT
ATOM      1  N   UNL     1      -1.280  -2.325  -2.490  0.00  0.00    -0.279 N 
ATOM      2  C   UNL     1      -1.323  -3.176  -3.535  0.00  0.00    +0.228 C 
ATOM      3  O   UNL     1      -1.367  -4.372  -3.340  0.00  0.00    -0.275 OA
ATOM      4  H   UNL     1      -1.245  -1.368  -2.646  0.00  0.00    +0.155 HD
ENDROOT
BRANCH   1   9
ATOM      5  C   UNL     1      -1.248  -2.099   0.003  0.00  0.00    +0.091 A 
ATOM      6  C   UNL     1      -1.259  -2.819   1.184  0.00  0.00    -0.017 A 
ATOM      7  C   UNL     1      -1.318  -4.198   1.088  0.00  0.00    +0.060 A 
ATOM      8  S   UNL     1      -1.345  -4.465  -0.675  0.00  0.00    -0.070 S 
ATOM      9  C   UNL     1      -1.287  -2.815  -1.200  0.00  0.00    +0.087 A 
ATOM     10  C   UNL     1      -1.213  -2.129   2.523  0.00  0.00    +0.046 C 
BRANCH   7  11
ATOM     11  C   UNL     1      -1.345  -5.154   2.124  0.00  0.00    +0.167 C 
ATOM     12  O   UNL     1      -1.319  -4.793   3.284  0.00  0.00    -0.292 OA
ATOM     13  C   UNL     1      -1.404  -6.623   1.793  0.00  0.00    +0.092 C 
ENDBRANCH   7  11
BRANCH   5  14
ATOM     14  C   UNL     1      -1.191  -0.632   0.010  0.00  0.00    +0.342 C 
ATOM     15  O   UNL     1      -2.219   0.016   0.023  0.00  0.00    -0.245 OA
BRANCH  14  16
ATOM     16  O   UNL     1       0.002  -0.004   0.002  0.00  0.00    -0.461 OA
BRANCH  16  18
ATOM     17  C   UNL     1       1.418   1.977  -0.001  0.00  0.00    +0.048 C 
ATOM     18  C   UNL     1      -0.018   1.448   0.010  0.00  0.00    +0.229 C 
ENDBRANCH  16  18
ENDBRANCH  14  16
ENDBRANCH   5  14
ENDBRANCH   1   9
BRANCH   2  19
ATOM     19  C   UNL     1      -1.316  -2.641  -4.943  0.00  0.00    +0.175 C 
BRANCH  19  20
ATOM     20  S   UNL     1      -1.380  -4.021  -6.113  0.00  0.00    -0.056 S 
BRANCH  20  21
ATOM     21  C   UNL     1      -1.360  -3.133  -7.635  0.00  0.00    +0.278 A 
ATOM     22  N   UNL     1      -1.311  -1.830  -7.775  0.00  0.00    -0.101 NA
ATOM     23  N   UNL     1      -1.312  -1.537  -9.027  0.00  0.00    -0.111 NA
ATOM     24  C   UNL     1      -1.361  -2.630  -9.731  0.00  0.00    +0.228 A 
ATOM     25  O   UNL     1      -1.387  -3.667  -8.871  0.00  0.00    -0.415 OA
BRANCH  24  26
ATOM     26  C   UNL     1      -1.379  -2.720 -11.235  0.00  0.00    +0.175 C 
BRANCH  26  27
ATOM     27  S   UNL     1       0.319  -2.822 -11.854  0.00  0.00    -0.077 S 
BRANCH  27  28
ATOM     28  C   UNL     1       0.009  -2.915 -13.585  0.00  0.00    +0.189 A 
ATOM     29  N   UNL     1      -1.243  -2.899 -14.021  0.00  0.00    -0.227 NA
ATOM     30  C   UNL     1      -1.510  -2.962 -15.314  0.00  0.00    +0.043 A 
ATOM     31  C   UNL     1      -0.462  -3.056 -16.217  0.00  0.00    +0.046 A 
ATOM     32  C   UNL     1       0.835  -3.076 -15.728  0.00  0.00    +0.043 A 
ATOM     33  N   UNL     1       1.033  -3.004 -14.422  0.00  0.00    -0.227 NA
ATOM     34  C   UNL     1       2.004  -3.177 -16.673  0.00  0.00    +0.066 C 
ATOM     35  C   UNL     1      -2.936  -2.937 -15.801  0.00  0.00    +0.066 C 
ENDBRANCH  27  28
ENDBRANCH  26  27
ENDBRANCH  24  26
ENDBRANCH  20  21
ENDBRANCH  19  20
ENDBRANCH   2  19
TORSDOF 11
