REMARK  Name = ZINC53363026
REMARK  9 active torsions:
REMARK  status: ('A' for Active; 'I' for Inactive)
REMARK    1  A    between atoms: C_1  and  C_2
REMARK    2  A    between atoms: C_2  and  O_3
REMARK    3  A    between atoms: O_3  and  C_4
REMARK    4  A    between atoms: C_8  and  C_11
REMARK    5  A    between atoms: C_9  and  O_10
REMARK    6  A    between atoms: C_14  and  C_27
REMARK    7  A    between atoms: C_16  and  C_19
REMARK    8  A    between atoms: C_24  and  O_25
REMARK    9  A    between atoms: O_25  and  C_26
REMARK                            x       y       z     vdW  Elec       q    Type
REMARK                         _______ _______ _______ _____ _____    ______ ____
ROOT
ATOM      1  C   UNL     1      -4.316  -4.377   0.007  0.00  0.00    +0.095 C 
ATOM      2  C   UNL     1      -4.878  -4.374   1.432  0.00  0.00    +0.079 C 
ATOM      3  C   UNL     1      -6.101  -5.246   1.491  0.00  0.00    +0.047 C 
ATOM      4  N   UNL     1      -6.400  -6.094   0.580  0.00  0.00    -0.264 NA
ATOM      5  C   UNL     1      -5.608  -6.314  -0.623  0.00  0.00    +0.207 C 
ATOM      6  N   UNL     1      -4.253  -5.772  -0.460  0.00  0.00    -0.284 NA
ATOM      7  H   UNL     1      -3.729  -5.843  -1.319  0.00  0.00    +0.125 HD
ENDROOT
BRANCH   3   8
ATOM      8  C   UNL     1      -7.000  -5.119   2.655  0.00  0.00    -0.004 A 
ATOM      9  C   UNL     1      -6.711  -4.201   3.667  0.00  0.00    +0.011 A 
ATOM     10  C   UNL     1      -7.555  -4.087   4.752  0.00  0.00    +0.016 A 
ATOM     11  C   UNL     1      -8.687  -4.880   4.839  0.00  0.00    +0.018 A 
ATOM     12  C   UNL     1      -8.979  -5.792   3.839  0.00  0.00    +0.016 A 
ATOM     13  C   UNL     1      -8.146  -5.911   2.746  0.00  0.00    +0.011 A 
ATOM     14 BR   UNL     1      -9.838  -4.717   6.330  0.00  0.00    -0.050 Br
ENDBRANCH   3   8
BRANCH   1  19
ATOM     15  C   UNL     1      -1.498  -1.849   0.006  0.00  0.00    +0.162 A 
ATOM     16  C   UNL     1      -0.389  -2.680  -0.003  0.00  0.00    +0.049 A 
ATOM     17  C   UNL     1      -0.553  -4.052  -0.008  0.00  0.00    +0.004 A 
ATOM     18  C   UNL     1      -1.823  -4.600  -0.005  0.00  0.00    +0.009 A 
ATOM     19  C   UNL     1      -2.934  -3.777   0.004  0.00  0.00    +0.015 A 
ATOM     20  C   UNL     1      -2.776  -2.400   0.016  0.00  0.00    +0.163 A 
BRANCH  20  21
ATOM     21  O   UNL     1      -3.868  -1.589   0.030  0.00  0.00    -0.503 OA
ATOM     22  H   UNL     1      -4.192  -1.350  -0.849  0.00  0.00    +0.292 HD
ENDBRANCH  20  21
BRANCH  15  23
ATOM     23  O   UNL     1      -1.339  -0.499   0.012  0.00  0.00    -0.489 OA
BRANCH  23  25
ATOM     24  C   UNL     1      -0.019   1.526   0.010  0.00  0.00    +0.048 C 
ATOM     25  C   UNL     1       0.002  -0.004   0.002  0.00  0.00    +0.226 C 
ENDBRANCH  23  25
ENDBRANCH  15  23
ENDBRANCH   1  19
BRANCH   5  26
ATOM     26  C   UNL     1      -6.276  -5.632  -1.789  0.00  0.00    +0.033 A 
ATOM     27  C   UNL     1      -5.510  -5.064  -2.789  0.00  0.00    +0.010 A 
ATOM     28  C   UNL     1      -6.123  -4.438  -3.859  0.00  0.00    +0.001 A 
ATOM     29  C   UNL     1      -7.502  -4.378  -3.931  0.00  0.00    +0.004 A 
ATOM     30  C   UNL     1      -8.272  -4.945  -2.934  0.00  0.00    +0.046 A 
ATOM     31  C   UNL     1      -7.660  -5.579  -1.862  0.00  0.00    +0.127 A 
BRANCH  31  32
ATOM     32  O   UNL     1      -8.415  -6.142  -0.882  0.00  0.00    -0.495 OA
ATOM     33  C   UNL     1      -9.834  -6.049  -1.023  0.00  0.00    +0.277 C 
ENDBRANCH  31  32
ENDBRANCH   5  26
TORSDOF 7
