REMARK  Name = ZINC61872900
REMARK  3 active torsions:
REMARK  status: ('A' for Active; 'I' for Inactive)
REMARK    1  A    between atoms: C_1  and  C_2
REMARK    2  A    between atoms: N_12  and  C_13
REMARK    3  A    between atoms: C_13  and  C_15
REMARK                            x       y       z     vdW  Elec       q    Type
REMARK                         _______ _______ _______ _____ _____    ______ ____
ROOT
ATOM      1  C   UNL     1      -0.315   1.478   0.029  0.00  0.00    +0.063 C 
ATOM      2  C   UNL     1      -0.095  -0.013   0.009  0.00  0.00    +0.015 A 
ATOM      3  C   UNL     1      -0.137  -0.660  -1.178  0.00  0.00    +0.046 A 
ATOM      4  C   UNL     1       0.066  -2.056  -1.230  0.00  0.00    +0.068 A 
ATOM      5  C   UNL     1       0.319  -2.761   0.036  0.00  0.00    +0.021 A 
ATOM      6  C   UNL     1       0.530  -4.140   0.074  0.00  0.00    +0.012 A 
ATOM      7  C   UNL     1       0.763  -4.756   1.271  0.00  0.00    +0.001 A 
ATOM      8  C   UNL     1       0.791  -4.022   2.450  0.00  0.00    +0.002 A 
ATOM      9  C   UNL     1       0.585  -2.661   2.435  0.00  0.00    +0.026 A 
ATOM     10  C   UNL     1       0.347  -2.011   1.227  0.00  0.00    +0.048 A 
ATOM     11  N   UNL     1       0.143  -0.652   1.177  0.00  0.00    -0.358 N 
ATOM     12  N   UNL     1       0.028  -2.716  -2.393  0.00  0.00    -0.175 NA
ATOM     13  H   UNL     1       0.167  -0.139   2.001  0.00  0.00    +0.166 HD
ENDROOT
BRANCH  12  14
ATOM     14  C   UNL     1      -0.089  -2.044  -3.538  0.00  0.00    +0.286 C 
ATOM     15  O   UNL     1       0.740  -1.201  -3.837  0.00  0.00    -0.266 OA
BRANCH  14  16
ATOM     16  C   UNL     1      -1.226  -2.321  -4.449  0.00  0.00    +0.127 A 
ATOM     17  C   UNL     1      -1.338  -1.619  -5.647  0.00  0.00    +0.034 A 
ATOM     18  C   UNL     1      -2.405  -1.888  -6.488  0.00  0.00    +0.019 A 
ATOM     19  C   UNL     1      -3.325  -2.853  -6.102  0.00  0.00    +0.036 A 
ATOM     20  C   UNL     1      -3.151  -3.513  -4.896  0.00  0.00    +0.126 A 
ATOM     21  N   UNL     1      -2.124  -3.240  -4.119  0.00  0.00    -0.249 NA
ATOM     22 BR   UNL     1      -4.802  -3.262  -7.210  0.00  0.00    -0.049 Br
ENDBRANCH  14  16
ENDBRANCH  12  14
TORSDOF 2
