REMARK  Name = ZINC14163051
REMARK  3 active torsions:
REMARK  status: ('A' for Active; 'I' for Inactive)
REMARK    1  A    between atoms: C_1  and  C_2
REMARK    2  A    between atoms: C_5  and  C_25
REMARK    3  A    between atoms: C_14  and  C_23
REMARK                            x       y       z     vdW  Elec       q    Type
REMARK                         _______ _______ _______ _____ _____    ______ ____
ROOT
ATOM      1  C   UNL     1      -0.019   1.526   0.010  0.00  0.00    +0.009 C 
ATOM      2  C   UNL     1       0.002  -0.004   0.002  0.00  0.00    +0.004 C 
ATOM      3  C   UNL     1       0.742  -0.512   1.242  0.00  0.00    +0.009 C 
ATOM      4  C   UNL     1       0.792  -2.041   1.217  0.00  0.00    +0.004 C 
ATOM      5  C   UNL     1      -0.636  -2.595   1.246  0.00  0.00    +0.110 C 
ATOM      6  N   UNL     1      -1.397  -1.999   0.140  0.00  0.00    -0.305 N 
ATOM      7  C   UNL     1      -1.435  -0.535   0.017  0.00  0.00    +0.110 C 
ATOM      8  C   UNL     1      -2.055  -2.788  -0.755  0.00  0.00    +0.175 C 
ATOM      9  N   UNL     1      -2.007  -4.104  -0.634  0.00  0.00    -0.150 NA
ATOM     10  C   UNL     1      -2.647  -4.920  -1.460  0.00  0.00    +0.258 C 
ATOM     11  O   UNL     1      -2.546  -6.122  -1.308  0.00  0.00    -0.272 OA
ATOM     12  C   UNL     1      -3.494  -4.386  -2.587  0.00  0.00    +0.202 C 
ATOM     13  C   UNL     1      -2.959  -3.011  -3.000  0.00  0.00    +0.058 C 
ATOM     14  N   UNL     1      -2.759  -2.217  -1.778  0.00  0.00    -0.312 N 
ATOM     15  C   UNL     1      -1.629  -3.172  -3.732  0.00  0.00    +0.027 C 
ATOM     16  C   UNL     1      -1.095  -1.795  -4.133  0.00  0.00    +0.002 C 
ATOM     17  C   UNL     1      -2.107  -1.103  -5.048  0.00  0.00    +0.000 C 
ATOM     18  C   UNL     1      -3.435  -0.936  -4.307  0.00  0.00    +0.002 C 
ATOM     19  C   UNL     1      -3.972  -2.313  -3.906  0.00  0.00    +0.027 C 
ATOM     20  C   UNL     1       1.496  -2.509  -0.058  0.00  0.00    +0.009 C 
ATOM     21  H   UNL     1      -3.114  -1.318  -1.701  0.00  0.00    +0.149 HD
ENDROOT
BRANCH  12  22
ATOM     22  C   UNL     1      -4.891  -4.260  -2.142  0.00  0.00    +0.077 C 
ATOM     23  N   UNL     1      -5.969  -4.162  -1.798  0.00  0.00    -0.196 NA
ENDBRANCH  12  22
TORSDOF 1
