REMARK  Name = ZINC12489699
REMARK  9 active torsions:
REMARK  status: ('A' for Active; 'I' for Inactive)
REMARK    1  A    between atoms: C_4  and  C_7
REMARK    2  A    between atoms: C_7  and  C_9
REMARK    3  A    between atoms: C_7  and  N_19
REMARK    4  A    between atoms: N_11  and  C_12
REMARK    5  A    between atoms: C_12  and  C_13
REMARK    6  A    between atoms: N_19  and  C_20
REMARK    7  A    between atoms: C_27  and  C_29
REMARK    8  A    between atoms: C_29  and  N_30
REMARK    9  A    between atoms: C_31  and  C_33
REMARK                            x       y       z     vdW  Elec       q    Type
REMARK                         _______ _______ _______ _____ _____    ______ ____
ROOT
ATOM      1  N   UNL     1      -3.464   3.260  -0.928  0.00  0.00    -0.253 N 
ATOM      2  C   UNL     1      -3.798   3.932  -2.047  0.00  0.00    +0.238 C 
ATOM      3  O   UNL     1      -3.412   5.070  -2.209  0.00  0.00    -0.274 OA
ENDROOT
BRANCH   1   4
ATOM      4  C   UNL     1      -3.911   1.946  -0.741  0.00  0.00    +0.056 A 
ATOM      5  C   UNL     1      -5.123   1.706  -0.108  0.00  0.00    +0.025 A 
ATOM      6  C   UNL     1      -5.563   0.410   0.070  0.00  0.00    +0.002 A 
ATOM      7  C   UNL     1      -4.794  -0.651  -0.372  0.00  0.00    +0.002 A 
ATOM      8  C   UNL     1      -3.583  -0.417  -0.998  0.00  0.00    +0.022 A 
ATOM      9  C   UNL     1      -3.139   0.879  -1.184  0.00  0.00    +0.062 A 
ATOM     10 CL   UNL     1      -1.619   1.172  -1.970  0.00  0.00    -0.082 Cl
ENDBRANCH   1   4
BRANCH   1  11
ATOM     11  C   UNL     1      -2.634   3.903   0.093  0.00  0.00    +0.197 C 
BRANCH  11  15
ATOM     12  C   UNL     1       0.713   1.404   0.990  0.00  0.00    +0.000 A 
ATOM     13  C   UNL     1       0.909   2.631   0.384  0.00  0.00    +0.000 A 
ATOM     14  C   UNL     1      -0.174   3.442   0.098  0.00  0.00    +0.006 A 
ATOM     15  C   UNL     1      -1.453   3.021   0.409  0.00  0.00    -0.018 A 
ATOM     16  C   UNL     1      -1.649   1.794   1.014  0.00  0.00    +0.006 A 
ATOM     17  C   UNL     1      -0.566   0.986   1.305  0.00  0.00    +0.000 A 
ENDBRANCH  11  15
BRANCH  11  18
ATOM     18  C   UNL     1      -3.449   4.117   1.342  0.00  0.00    +0.239 C 
ATOM     19  O   UNL     1      -4.610   3.767   1.376  0.00  0.00    -0.273 OA
ATOM     20  N   UNL     1      -2.889   4.698   2.421  0.00  0.00    -0.311 N 
ATOM     21  H   UNL     1      -1.961   4.978   2.394  0.00  0.00    +0.149 HD
BRANCH  20  22
ATOM     22  C   UNL     1      -3.682   4.907   3.636  0.00  0.00    +0.135 C 
BRANCH  22  23
ATOM     23  C   UNL     1      -2.814   5.579   4.702  0.00  0.00    +0.135 C 
ATOM     24  C   UNL     1      -3.640   5.802   5.984  0.00  0.00    +0.035 C 
ATOM     25  C   UNL     1      -2.859   5.032   7.077  0.00  0.00    +0.031 C 
ATOM     26  C   UNL     1      -1.445   4.924   6.451  0.00  0.00    +0.160 C 
ATOM     27  O   UNL     1      -1.713   4.722   5.047  0.00  0.00    -0.375 OA
ENDBRANCH  22  23
ENDBRANCH  20  22
ENDBRANCH  11  18
ENDBRANCH   1  11
BRANCH   2  28
ATOM     28  C   UNL     1      -4.653   3.270  -3.097  0.00  0.00    +0.201 C 
BRANCH  28  29
ATOM     29  N   UNL     1      -4.873   4.202  -4.206  0.00  0.00    -0.302 N 
ATOM     30  C   UNL     1      -5.614   3.825  -5.267  0.00  0.00    +0.251 C 
ATOM     31  O   UNL     1      -6.100   2.709  -5.303  0.00  0.00    -0.270 OA
ATOM     32  H   UNL     1      -4.485   5.091  -4.177  0.00  0.00    +0.150 HD
BRANCH  30  33
ATOM     33  C   UNL     1      -5.834   4.757  -6.376  0.00  0.00    +0.074 A 
ATOM     34  C   UNL     1      -6.555   4.569  -7.545  0.00  0.00    +0.021 A 
ATOM     35  C   UNL     1      -6.602   5.620  -8.426  0.00  0.00    +0.008 A 
ATOM     36  C   UNL     1      -5.951   6.773  -8.119  0.00  0.00    +0.046 A 
ATOM     37  S   UNL     1      -5.251   6.431  -6.570  0.00  0.00    -0.092 S 
ENDBRANCH  30  33
ENDBRANCH  28  29
ENDBRANCH   2  28
TORSDOF 9
