REMARK  Name = ZINC39352987
REMARK  5 active torsions:
REMARK  status: ('A' for Active; 'I' for Inactive)
REMARK    1  A    between atoms: C_1  and  C_2
REMARK    2  A    between atoms: C_2  and  O_3
REMARK    3  A    between atoms: O_3  and  C_4
REMARK    4  A    between atoms: C_10  and  C_11
REMARK    5  A    between atoms: N_22  and  C_23
REMARK                            x       y       z     vdW  Elec       q    Type
REMARK                         _______ _______ _______ _____ _____    ______ ____
ROOT
ATOM      1  C   UNL     1      -1.550  -1.855  -0.430  0.00  0.00    +0.346 C 
ATOM      2  O   UNL     1      -0.488  -2.666  -0.588  0.00  0.00    -0.245 OA
ATOM      3  C   UNL     1      -2.790  -2.389  -0.092  0.00  0.00    +0.139 C 
ATOM      4  C   UNL     1      -2.979  -3.835   0.101  0.00  0.00    +0.120 C 
ATOM      5  S   UNL     1      -4.707  -3.979   0.510  0.00  0.00    -0.065 S 
ATOM      6  C   UNL     1      -5.173  -2.260   0.439  0.00  0.00    +0.062 C 
ATOM      7  C   UNL     1      -6.417  -1.699   0.664  0.00  0.00    +0.025 C 
ATOM      8  C   UNL     1      -3.911  -1.578   0.085  0.00  0.00    +0.209 C 
ATOM      9  O   UNL     1      -3.853  -0.368  -0.048  0.00  0.00    -0.286 OA
ATOM     10  N   UNL     1      -2.084  -4.795  -0.005  0.00  0.00    -0.238 NA
ENDROOT
BRANCH   7  11
ATOM     11  C   UNL     1      -7.498  -2.513   0.995  0.00  0.00    -0.018 C 
ATOM     12  C   UNL     1      -8.813  -2.111   1.248  0.00  0.00    +0.003 A 
ATOM     13  C   UNL     1      -9.439  -0.847   1.253  0.00  0.00    +0.010 A 
ATOM     14  C   UNL     1     -10.762  -0.752   1.542  0.00  0.00    +0.001 A 
ATOM     15  C   UNL     1     -11.531  -1.882   1.836  0.00  0.00    +0.002 A 
ATOM     16  C   UNL     1     -10.996  -3.127   1.849  0.00  0.00    +0.026 A 
ATOM     17  C   UNL     1      -9.617  -3.305   1.557  0.00  0.00    +0.043 A 
ATOM     18  N   UNL     1      -8.871  -4.389   1.506  0.00  0.00    -0.380 N 
ATOM     19  C   UNL     1      -7.498  -4.018   1.150  0.00  0.00    +0.149 C 
ATOM     20  H   UNL     1      -9.182  -5.293   1.673  0.00  0.00    +0.160 HD
ENDBRANCH   7  11
BRANCH  10  21
ATOM     21  C   UNL     1      -2.468  -6.100   0.095  0.00  0.00    +0.083 A 
ATOM     22  C   UNL     1      -3.547  -6.575  -0.658  0.00  0.00    +0.030 A 
ATOM     23  C   UNL     1      -3.929  -7.895  -0.552  0.00  0.00    +0.022 A 
ATOM     24  C   UNL     1      -3.248  -8.752   0.297  0.00  0.00    +0.042 A 
ATOM     25  C   UNL     1      -2.179  -8.290   1.046  0.00  0.00    +0.042 A 
ATOM     26  C   UNL     1      -1.781  -6.972   0.947  0.00  0.00    +0.068 A 
ATOM     27 CL   UNL     1      -0.436  -6.397   1.881  0.00  0.00    -0.081 Cl
ATOM     28 CL   UNL     1      -3.738 -10.413   0.423  0.00  0.00    -0.083 Cl
ENDBRANCH  10  21
BRANCH   1  29
ATOM     29  O   UNL     1      -1.413  -0.528  -0.599  0.00  0.00    -0.461 OA
BRANCH  29  31
ATOM     30  C   UNL     1      -0.152   1.474  -1.094  0.00  0.00    +0.048 C 
ATOM     31  C   UNL     1      -0.112  -0.049  -0.946  0.00  0.00    +0.229 C 
ENDBRANCH  29  31
ENDBRANCH   1  29
TORSDOF 4
