REMARK  Name = ZINC40530110
REMARK  16 active torsions:
REMARK  status: ('A' for Active; 'I' for Inactive)
REMARK    1  A    between atoms: C_1  and  C_2
REMARK    2  A    between atoms: C_2  and  C_3
REMARK    3  A    between atoms: C_3  and  C_4
REMARK    4  A    between atoms: C_4  and  C_5
REMARK    5  A    between atoms: C_5  and  O_6
REMARK    6  A    between atoms: O_6  and  C_7
REMARK    7  A    between atoms: C_11  and  C_13
REMARK    8  A    between atoms: C_18  and  O_27
REMARK    9  A    between atoms: C_22  and  N_26
REMARK   10  A    between atoms: C_23  and  C_24
REMARK   11  A    between atoms: O_27  and  C_28
REMARK   12  A    between atoms: C_28  and  C_30
REMARK   13  A    between atoms: C_35  and  O_36
REMARK   14  A    between atoms: O_36  and  C_37
REMARK   15  A    between atoms: C_37  and  C_38
REMARK   16  A    between atoms: C_38  and  C_39
REMARK                            x       y       z     vdW  Elec       q    Type
REMARK                         _______ _______ _______ _____ _____    ______ ____
ROOT
ATOM      1  C   UNL     1      -5.332  -8.150  -0.016  0.00  0.00    +0.098 C 
ATOM      2  C   UNL     1      -6.074  -8.630  -1.236  0.00  0.00    +0.008 A 
ATOM      3  C   UNL     1      -5.473  -8.534  -2.479  0.00  0.00    +0.012 A 
ATOM      4  C   UNL     1      -6.138  -8.970  -3.608  0.00  0.00    +0.047 A 
ATOM      5  C   UNL     1      -7.414  -9.506  -3.499  0.00  0.00    +0.135 A 
ATOM      6  C   UNL     1      -8.018  -9.603  -2.256  0.00  0.00    +0.093 A 
ATOM      7  C   UNL     1      -7.348  -9.164  -1.121  0.00  0.00    +0.138 A 
ATOM      8  O   UNL     1      -7.953  -9.266   0.088  0.00  0.00    -0.441 OA
ATOM      9  C   UNL     1      -7.217  -9.222   1.212  0.00  0.00    +0.199 C 
ATOM     10  C   UNL     1      -5.969  -8.705   1.227  0.00  0.00    +0.098 C 
ENDROOT
BRANCH   1  15
ATOM     11  C   UNL     1      -4.233  -4.535   0.049  0.00  0.00    +0.121 A 
ATOM     12  C   UNL     1      -5.454  -3.879   0.121  0.00  0.00    +0.045 A 
ATOM     13  C   UNL     1      -6.627  -4.606   0.148  0.00  0.00    +0.004 A 
ATOM     14  C   UNL     1      -6.587  -5.988   0.103  0.00  0.00    +0.005 A 
ATOM     15  C   UNL     1      -5.372  -6.644   0.032  0.00  0.00    -0.031 A 
ATOM     16  C   UNL     1      -4.196  -5.921  -0.001  0.00  0.00    +0.050 A 
BRANCH  11  17
ATOM     17  O   UNL     1      -3.077  -3.822   0.022  0.00  0.00    -0.492 OA
BRANCH  17  18
ATOM     18  C   UNL     1      -3.192  -2.398   0.077  0.00  0.00    +0.229 C 
BRANCH  18  19
ATOM     19  C   UNL     1      -1.796  -1.772   0.036  0.00  0.00    +0.041 C 
BRANCH  19  20
ATOM     20  C   UNL     1      -1.919  -0.248   0.095  0.00  0.00    +0.003 C 
BRANCH  20  22
ATOM     21  C   UNL     1      -0.646   1.901   0.113  0.00  0.00    +0.004 C 
ATOM     22  C   UNL     1      -0.523   0.377   0.054  0.00  0.00    -0.003 C 
ENDBRANCH  20  22
ENDBRANCH  19  20
ENDBRANCH  18  19
ENDBRANCH  17  18
ENDBRANCH  11  17
ENDBRANCH   1  15
BRANCH   9  23
ATOM     23  N   UNL     1      -7.749  -9.716   2.376  0.00  0.00    -0.328 N 
ATOM     24  H   UNL     1      -8.644 -10.090   2.380  0.00  0.00    +0.145 HD
ATOM     25  H   UNL     1      -7.230  -9.692   3.195  0.00  0.00    +0.145 HD
ENDBRANCH   9  23
BRANCH  10  26
ATOM     26  C   UNL     1      -5.237  -8.687   2.458  0.00  0.00    +0.101 C 
ATOM     27  N   UNL     1      -4.657  -8.673   3.434  0.00  0.00    -0.191 NA
ENDBRANCH  10  26
BRANCH   5  28
ATOM     28  O   UNL     1      -8.069  -9.934  -4.609  0.00  0.00    -0.422 OA
BRANCH  28  29
ATOM     29  C   UNL     1      -7.607 -11.038  -5.230  0.00  0.00    +0.348 C 
ATOM     30  O   UNL     1      -6.699 -11.677  -4.738  0.00  0.00    -0.244 OA
BRANCH  29  31
ATOM     31  C   UNL     1      -8.204 -11.469  -6.507  0.00  0.00    +0.101 A 
ATOM     32  C   UNL     1      -9.246 -10.734  -7.080  0.00  0.00    +0.018 A 
ATOM     33  C   UNL     1      -9.800 -11.143  -8.274  0.00  0.00    +0.001 A 
ATOM     34  C   UNL     1      -9.329 -12.281  -8.909  0.00  0.00    +0.004 A 
ATOM     35  C   UNL     1      -8.301 -13.016  -8.354  0.00  0.00    +0.046 A 
ATOM     36  C   UNL     1      -7.727 -12.616  -7.156  0.00  0.00    +0.134 A 
BRANCH  36  37
ATOM     37  O   UNL     1      -6.713 -13.335  -6.613  0.00  0.00    -0.491 OA
BRANCH  37  38
ATOM     38  C   UNL     1      -6.280 -14.492  -7.332  0.00  0.00    +0.229 C 
BRANCH  38  39
ATOM     39  C   UNL     1      -5.138 -15.168  -6.570  0.00  0.00    +0.038 C 
ATOM     40  C   UNL     1      -4.675 -16.406  -7.339  0.00  0.00    +0.007 C 
ENDBRANCH  38  39
ENDBRANCH  37  38
ENDBRANCH  36  37
ENDBRANCH  29  31
ENDBRANCH  28  29
ENDBRANCH   5  28
TORSDOF 14
