REMARK  Name = ZINC20206577
REMARK  7 active torsions:
REMARK  status: ('A' for Active; 'I' for Inactive)
REMARK    1  A    between atoms: C_1  and  C_2
REMARK    2  A    between atoms: C_2  and  S_3
REMARK    3  A    between atoms: S_3  and  C_6
REMARK    4  A    between atoms: C_14  and  C_15
REMARK    5  A    between atoms: C_18  and  N_21
REMARK    6  A    between atoms: N_21  and  C_22
REMARK    7  A    between atoms: N_21  and  C_23
REMARK                            x       y       z     vdW  Elec       q    Type
REMARK                         _______ _______ _______ _____ _____    ______ ____
ROOT
ATOM      1  C   UNL     1      -0.295  -2.610  -1.302  0.00  0.00    +0.257 C 
ATOM      2  N   UNL     1      -1.253  -3.315  -1.820  0.00  0.00    -0.174 NA
ATOM      3  S   UNL     1      -0.664  -4.884  -1.806  0.00  0.00    +0.049 S 
ATOM      4  C   UNL     1       0.809  -4.614  -1.074  0.00  0.00    +0.183 C 
ATOM      5  N   UNL     1       1.748  -5.463  -0.720  0.00  0.00    -0.152 NA
ATOM      6  C   UNL     1       2.840  -5.012  -0.075  0.00  0.00    +0.273 C 
ATOM      7  O   UNL     1       3.784  -5.752   0.148  0.00  0.00    -0.268 OA
ATOM      8  C   UNL     1       2.868  -3.593   0.356  0.00  0.00    +0.078 C 
ATOM      9  C   UNL     1       3.639  -3.170   1.417  0.00  0.00    +0.024 C 
ATOM     10  C   UNL     1       2.015  -2.650  -0.422  0.00  0.00    +0.117 C 
ATOM     11  N   UNL     1       2.327  -1.398  -0.624  0.00  0.00    -0.386 N 
ATOM     12  N   UNL     1       0.840  -3.244  -0.923  0.00  0.00    -0.203 N 
ATOM     13  H   UNL     1       3.095  -1.011  -0.174  0.00  0.00    +0.157 HD
ATOM     14  H   UNL     1       1.792  -0.855  -1.224  0.00  0.00    +0.157 HD
ENDROOT
BRANCH   9  15
ATOM     15  C   UNL     1       4.291  -4.152   2.285  0.00  0.00    -0.024 A 
ATOM     16  C   UNL     1       5.579  -3.906   2.783  0.00  0.00    +0.010 A 
ATOM     17  C   UNL     1       6.182  -4.825   3.594  0.00  0.00    +0.023 A 
ATOM     18  C   UNL     1       5.520  -6.005   3.925  0.00  0.00    +0.029 A 
ATOM     19  C   UNL     1       4.240  -6.254   3.433  0.00  0.00    +0.023 A 
ATOM     20  C   UNL     1       3.626  -5.339   2.627  0.00  0.00    +0.010 A 
BRANCH  18  21
ATOM     21  N   UNL     1       6.138  -6.937   4.750  0.00  0.00    -0.336 N 
ATOM     22  C   UNL     1       7.431  -6.628   5.364  0.00  0.00    +0.129 C 
ATOM     23  C   UNL     1       5.496  -8.229   5.005  0.00  0.00    +0.129 C 
ENDBRANCH  18  21
ENDBRANCH   9  15
BRANCH   1  24
ATOM     24  S   UNL     1      -0.463  -0.868  -1.105  0.00  0.00    +0.029 S 
ATOM     25  O   UNL     1       0.343  -0.551   0.022  0.00  0.00    -0.167 OA
ATOM     26  O   UNL     1      -1.866  -0.639  -1.079  0.00  0.00    -0.167 OA
BRANCH  24  28
ATOM     27  C   UNL     1       0.166   1.370  -2.546  0.00  0.00    +0.028 C 
ATOM     28  C   UNL     1       0.259  -0.156  -2.609  0.00  0.00    +0.172 C 
ENDBRANCH  24  28
ENDBRANCH   1  24
TORSDOF 4
