REMARK  Name = ZINC15730852
REMARK  5 active torsions:
REMARK  status: ('A' for Active; 'I' for Inactive)
REMARK    1  A    between atoms: C_1  and  C_2
REMARK    2  A    between atoms: C_9  and  S_15
REMARK    3  A    between atoms: S_15  and  N_18
REMARK    4  A    between atoms: N_18  and  C_19
REMARK    5  A    between atoms: C_23  and  C_25
REMARK                            x       y       z     vdW  Elec       q    Type
REMARK                         _______ _______ _______ _____ _____    ______ ____
ROOT
ATOM      1  S   UNL     1       3.635   3.474  -1.005  0.00  0.00    +0.072 S 
ATOM      2  O   UNL     1       4.928   4.041  -0.846  0.00  0.00    -0.150 OA
ATOM      3  O   UNL     1       3.131   3.067  -2.270  0.00  0.00    -0.150 OA
ENDROOT
BRANCH   1  11
ATOM      4  C   UNL     1       1.383  10.823   2.896  0.00  0.00    +0.018 C 
ATOM      5  C   UNL     1       1.094   9.342   2.638  0.00  0.00    +0.082 C 
ATOM      6  C   UNL     1       0.190   9.226   1.445  0.00  0.00    +0.087 C 
ATOM      7  S   UNL     1      -0.542   7.609   1.248  0.00  0.00    -0.123 S 
ATOM      8  C   UNL     1       0.692   6.512   0.676  0.00  0.00    +0.029 A 
ATOM      9  C   UNL     1       0.271   5.497  -0.194  0.00  0.00    +0.018 A 
ATOM     10  C   UNL     1       1.151   4.577  -0.712  0.00  0.00    +0.030 A 
ATOM     11  C   UNL     1       2.487   4.645  -0.359  0.00  0.00    +0.110 A 
ATOM     12  C   UNL     1       2.916   5.634   0.492  0.00  0.00    +0.053 A 
ATOM     13  C   UNL     1       2.032   6.588   1.024  0.00  0.00    +0.049 A 
ATOM     14  N   UNL     1       2.616   7.504   1.859  0.00  0.00    -0.284 N 
ATOM     15  C   UNL     1       2.383   8.626   2.443  0.00  0.00    +0.221 C 
ATOM     16  O   UNL     1       3.359   9.182   2.903  0.00  0.00    -0.275 OA
ATOM     17  H   UNL     1       3.509   7.203   2.088  0.00  0.00    +0.155 HD
ENDBRANCH   1  11
BRANCH   1  18
ATOM     18  N   UNL     1       3.578   2.141  -0.023  0.00  0.00    -0.216 N 
ATOM     19  H   UNL     1       3.304   1.284  -0.385  0.00  0.00    +0.174 HD
BRANCH  18  20
ATOM     20  C   UNL     1       3.925   2.252   1.325  0.00  0.00    +0.049 A 
ATOM     21  C   UNL     1       5.077   2.939   1.693  0.00  0.00    +0.024 A 
ATOM     22  C   UNL     1       5.424   3.052   3.026  0.00  0.00    +0.003 A 
ATOM     23  C   UNL     1       4.630   2.483   4.001  0.00  0.00    +0.012 A 
ATOM     24  C   UNL     1       3.472   1.791   3.643  0.00  0.00    +0.022 A 
ATOM     25  C   UNL     1       3.121   1.677   2.297  0.00  0.00    +0.036 A 
BRANCH  24  26
ATOM     26  C   UNL     1       2.620   1.180   4.685  0.00  0.00    +0.167 A 
ATOM     27  C   UNL     1       2.830   1.206   6.037  0.00  0.00    +0.072 A 
ATOM     28  C   UNL     1       1.737   0.486   6.563  0.00  0.00    +0.157 A 
ATOM     29  N   UNL     1       1.012   0.115   5.546  0.00  0.00    -0.086 NA
ATOM     30  O   UNL     1       1.479   0.493   4.497  0.00  0.00    -0.355 OA
ENDBRANCH  24  26
ENDBRANCH  18  20
ENDBRANCH   1  18
TORSDOF 4
