REMARK  Name = ZINC19862572
REMARK  4 active torsions:
REMARK  status: ('A' for Active; 'I' for Inactive)
REMARK    1  A    between atoms: C_1  and  C_2
REMARK    2  A    between atoms: C_5  and  C_8
REMARK    3  A    between atoms: C_10  and  N_14
REMARK    4  A    between atoms: C_15  and  C_16
REMARK                            x       y       z     vdW  Elec       q    Type
REMARK                         _______ _______ _______ _____ _____    ______ ____
ROOT
ATOM      1  C   UNL     1       0.895   9.948   0.509  0.00  0.00    +0.095 A 
ATOM      2  C   UNL     1       1.341   8.653   0.819  0.00  0.00    +0.077 A 
ATOM      3  C   UNL     1       0.629   7.770   0.036  0.00  0.00    +0.149 A 
ATOM      4  N   UNL     1      -0.225   8.506  -0.734  0.00  0.00    -0.260 N 
ATOM      5  H   UNL     1      -0.894   8.004  -1.448  0.00  0.00    +0.191 HD
ATOM      6  N   UNL     1      -0.040   9.857  -0.413  0.00  0.00    -0.172 NA
ENDROOT
BRANCH   1  11
ATOM      7  C   UNL     1       2.824  14.832   2.876  0.00  0.00    +0.044 C 
ATOM      8  C   UNL     1       2.320  13.554   2.256  0.00  0.00    -0.050 A 
ATOM      9  C   UNL     1       1.329  13.600   1.292  0.00  0.00    +0.004 A 
ATOM     10  C   UNL     1       0.863  12.433   0.722  0.00  0.00    +0.010 A 
ATOM     11  C   UNL     1       1.392  11.207   1.119  0.00  0.00    +0.002 A 
ATOM     12  C   UNL     1       2.386  11.166   2.094  0.00  0.00    +0.010 A 
ATOM     13  C   UNL     1       2.849  12.340   2.654  0.00  0.00    +0.004 A 
ENDBRANCH   1  11
BRANCH   3  14
ATOM     14  N   UNL     1       0.758   6.413   0.028  0.00  0.00    -0.236 NA
ATOM     15  C   UNL     1      -0.307   5.656   0.035  0.00  0.00    +0.128 C 
BRANCH  15  16
ATOM     16  C   UNL     1      -0.169   4.195   0.026  0.00  0.00    +0.075 A 
ATOM     17  C   UNL     1      -1.280   3.382   0.032  0.00  0.00    +0.208 A 
ATOM     18  O   UNL     1      -1.189   2.052   0.019  0.00  0.00    -0.462 OA
ATOM     19  C   UNL     1      -0.017   1.387   0.010  0.00  0.00    +0.138 A 
ATOM     20  C   UNL     1       0.002  -0.004   0.002  0.00  0.00    +0.047 A 
ATOM     21  C   UNL     1       1.204  -0.677  -0.013  0.00  0.00    +0.004 A 
ATOM     22  C   UNL     1       2.406   0.016  -0.022  0.00  0.00    +0.001 A 
ATOM     23  C   UNL     1       2.410   1.394  -0.014  0.00  0.00    +0.015 A 
ATOM     24  C   UNL     1       1.200   2.087   0.002  0.00  0.00    +0.065 A 
ATOM     25  C   UNL     1       1.165   3.562   0.010  0.00  0.00    +0.201 A 
ATOM     26  O   UNL     1       2.187   4.226   0.003  0.00  0.00    -0.286 OA
ENDBRANCH  15  16
ENDBRANCH   3  14
TORSDOF 3
