REMARK  Name = ZINC58949569
REMARK  6 active torsions:
REMARK  status: ('A' for Active; 'I' for Inactive)
REMARK    1  A    between atoms: C_1  and  C_2
REMARK    2  A    between atoms: C_6  and  C_7
REMARK    3  A    between atoms: C_9  and  C_19
REMARK    4  A    between atoms: C_10  and  C_18
REMARK    5  A    between atoms: C_12  and  N_17
REMARK    6  A    between atoms: C_13  and  C_14
REMARK                            x       y       z     vdW  Elec       q    Type
REMARK                         _______ _______ _______ _____ _____    ______ ____
ROOT
ATOM      1  C   UNL     1       0.731  -0.189   2.542  0.00  0.00    +0.104 C 
ATOM      2  C   UNL     1      -0.580  -0.365   3.258  0.00  0.00    +0.064 C 
ATOM      3  C   UNL     1      -0.752  -1.339   4.159  0.00  0.00    +0.113 C 
ATOM      4  O   UNL     1       0.228  -2.203   4.468  0.00  0.00    -0.446 OA
ATOM      5  C   UNL     1       1.505  -1.901   4.175  0.00  0.00    +0.193 C 
ATOM      6  C   UNL     1       1.813  -0.948   3.262  0.00  0.00    +0.083 C 
ATOM      7  C   UNL     1      -2.087  -1.470   4.847  0.00  0.00    +0.087 C 
ENDROOT
BRANCH   1  13
ATOM      8  C   UNL     1       1.315   1.359  -0.046  0.00  0.00    +0.044 C 
ATOM      9  C   UNL     1       0.850  -0.074  -0.037  0.00  0.00    -0.039 A 
ATOM     10  C   UNL     1       0.671  -0.761  -1.224  0.00  0.00    +0.011 A 
ATOM     11  C   UNL     1       0.252  -2.049  -1.181  0.00  0.00    +0.046 A 
ATOM     12  S   UNL     1       0.096  -2.329   0.576  0.00  0.00    -0.100 S 
ATOM     13  C   UNL     1       0.606  -0.711   1.134  0.00  0.00    +0.005 A 
ENDBRANCH   1  13
BRANCH   6  14
ATOM     14  C   UNL     1       3.162  -0.665   2.985  0.00  0.00    +0.243 C 
ATOM     15  O   UNL     1       3.692   0.317   3.475  0.00  0.00    -0.271 OA
ATOM     16  N   UNL     1       3.869  -1.480   2.178  0.00  0.00    -0.325 N 
ATOM     17  H   UNL     1       3.448  -2.262   1.787  0.00  0.00    +0.145 HD
ATOM     18  H   UNL     1       4.800  -1.285   1.986  0.00  0.00    +0.145 HD
ENDBRANCH   6  14
BRANCH   2  19
ATOM     19  C   UNL     1      -1.685   0.545   2.965  0.00  0.00    +0.242 C 
ATOM     20  O   UNL     1      -1.682   1.673   3.423  0.00  0.00    -0.271 OA
ATOM     21  N   UNL     1      -2.708   0.136   2.188  0.00  0.00    -0.325 N 
ATOM     22  H   UNL     1      -2.747  -0.784   1.884  0.00  0.00    +0.145 HD
ATOM     23  H   UNL     1      -3.404   0.761   1.934  0.00  0.00    +0.145 HD
ENDBRANCH   2  19
BRANCH   5  24
ATOM     24  N   UNL     1       2.516  -2.572   4.811  0.00  0.00    -0.329 N 
ATOM     25  H   UNL     1       2.309  -3.308   5.409  0.00  0.00    +0.145 HD
ATOM     26  H   UNL     1       3.438  -2.311   4.665  0.00  0.00    +0.145 HD
ENDBRANCH   5  24
TORSDOF 4
