REMARK  Name = ZINC09095155
REMARK  8 active torsions:
REMARK  status: ('A' for Active; 'I' for Inactive)
REMARK    1  A    between atoms: C_1  and  C_2
REMARK    2  A    between atoms: C_5  and  C_8
REMARK    3  A    between atoms: C_9  and  C_18
REMARK    4  A    between atoms: N_28  and  C_29
REMARK    5  A    between atoms: C_29  and  C_31
REMARK    6  A    between atoms: C_29  and  C_32
REMARK    7  A    between atoms: N_34  and  C_35
REMARK    8  A    between atoms: C_35  and  C_36
REMARK                            x       y       z     vdW  Elec       q    Type
REMARK                         _______ _______ _______ _____ _____    ______ ____
ROOT
ATOM      1  C   UNL     1      -1.868   6.026   1.838  0.00  0.00    +0.141 C 
ATOM      2  C   UNL     1      -1.342   6.243   3.234  0.00  0.00    -0.010 A 
ATOM      3  C   UNL     1      -0.233   5.783   3.906  0.00  0.00    +0.006 A 
ATOM      4  C   UNL     1      -0.011   6.165   5.218  0.00  0.00    +0.000 A 
ATOM      5  C   UNL     1      -0.901   7.011   5.856  0.00  0.00    +0.001 A 
ATOM      6  C   UNL     1      -2.016   7.479   5.192  0.00  0.00    +0.013 A 
ATOM      7  C   UNL     1      -2.247   7.097   3.869  0.00  0.00    +0.042 A 
ATOM      8  C   UNL     1      -3.324   7.422   2.914  0.00  0.00    +0.248 C 
ATOM      9  O   UNL     1      -4.271   8.145   3.155  0.00  0.00    -0.270 OA
ATOM     10  N   UNL     1      -3.108   6.805   1.740  0.00  0.00    -0.275 N 
ENDROOT
BRANCH   1  12
ATOM     11  C   UNL     1      -0.076   5.750   0.034  0.00  0.00    +0.053 A 
ATOM     12  C   UNL     1      -0.867   6.517   0.825  0.00  0.00    +0.010 A 
ATOM     13  C   UNL     1      -0.560   7.912   0.510  0.00  0.00    +0.006 A 
ATOM     14  C   UNL     1      -1.035   9.138   0.984  0.00  0.00    +0.010 A 
ATOM     15  C   UNL     1      -0.539  10.302   0.469  0.00  0.00    +0.001 A 
ATOM     16  C   UNL     1       0.433  10.277  -0.522  0.00  0.00    +0.002 A 
ATOM     17  C   UNL     1       0.915   9.080  -1.004  0.00  0.00    +0.026 A 
ATOM     18  C   UNL     1       0.426   7.882  -0.495  0.00  0.00    +0.047 A 
ATOM     19  N   UNL     1       0.701   6.559  -0.764  0.00  0.00    -0.354 N 
ATOM     20  H   UNL     1       1.345   6.245  -1.417  0.00  0.00    +0.166 HD
BRANCH  11  25
ATOM     21  C   UNL     1       0.002  -0.004   0.002  0.00  0.00    +0.044 C 
ATOM     22  C   UNL     1      -0.018   1.503   0.010  0.00  0.00    -0.050 A 
ATOM     23  C   UNL     1      -1.228   2.175   0.020  0.00  0.00    +0.004 A 
ATOM     24  C   UNL     1      -1.253   3.554   0.032  0.00  0.00    +0.010 A 
ATOM     25  C   UNL     1      -0.056   4.272   0.025  0.00  0.00    -0.001 A 
ATOM     26  C   UNL     1       1.160   3.587   0.010  0.00  0.00    +0.010 A 
ATOM     27  C   UNL     1       1.172   2.208   0.003  0.00  0.00    +0.004 A 
ENDBRANCH  11  25
ENDBRANCH   1  12
BRANCH  10  28
ATOM     28  C   UNL     1      -3.968   6.895   0.557  0.00  0.00    +0.160 C 
ATOM     29  C   UNL     1      -4.061   8.354   0.105  0.00  0.00    +0.038 C 
BRANCH  28  30
ATOM     30  C   UNL     1      -5.345   6.386   0.897  0.00  0.00    +0.234 C 
ATOM     31  O   UNL     1      -5.584   5.986   2.017  0.00  0.00    -0.274 OA
ATOM     32  N   UNL     1      -6.310   6.374  -0.044  0.00  0.00    -0.307 N 
ATOM     33  H   UNL     1      -6.118   6.694  -0.939  0.00  0.00    +0.149 HD
BRANCH  32  34
ATOM     34  C   UNL     1      -7.649   5.878   0.287  0.00  0.00    +0.178 C 
BRANCH  34  35
ATOM     35  C   UNL     1      -8.533   5.972  -0.930  0.00  0.00    +0.122 A 
ATOM     36  C   UNL     1      -8.691   5.016  -1.863  0.00  0.00    +0.046 A 
ATOM     37  C   UNL     1      -9.605   5.521  -2.816  0.00  0.00    +0.041 A 
ATOM     38  C   UNL     1      -9.945   6.758  -2.412  0.00  0.00    +0.195 A 
ATOM     39  O   UNL     1      -9.293   7.026  -1.270  0.00  0.00    -0.466 OA
ENDBRANCH  34  35
ENDBRANCH  32  34
ENDBRANCH  28  30
ENDBRANCH  10  28
TORSDOF 6
