REMARK  Name = ZINC22015040
REMARK  13 active torsions:
REMARK  status: ('A' for Active; 'I' for Inactive)
REMARK    1  A    between atoms: C_1  and  C_2
REMARK    2  A    between atoms: C_2  and  C_3
REMARK    3  A    between atoms: C_3  and  C_4
REMARK    4  A    between atoms: C_4  and  N_5
REMARK    5  A    between atoms: C_6  and  N_36
REMARK    6  A    between atoms: C_7  and  N_14
REMARK    7  A    between atoms: N_14  and  C_15
REMARK    8  A    between atoms: C_15  and  C_16
REMARK    9  A    between atoms: C_17  and  C_19
REMARK   10  A    between atoms: C_19  and  N_20
REMARK   11  A    between atoms: N_20  and  C_21
REMARK   12  A    between atoms: N_20  and  C_31
REMARK   13  A    between atoms: C_21  and  C_22
REMARK                            x       y       z     vdW  Elec       q    Type
REMARK                         _______ _______ _______ _____ _____    ______ ____
ROOT
ATOM      1  N   UNL     1       7.604   3.601  -1.744  0.00  0.00    -0.266 N 
ATOM      2  C   UNL     1       6.282   3.500  -1.995  0.00  0.00    +0.203 C 
ATOM      3  O   UNL     1       5.871   3.599  -3.132  0.00  0.00    -0.277 OA
ENDROOT
BRANCH   1   6
ATOM      4  N   UNL     1       9.601   3.349  -4.818  0.00  0.00    -0.280 N 
ATOM      5  C   UNL     1       8.728   3.013  -3.810  0.00  0.00    +0.127 A 
ATOM      6  C   UNL     1       8.498   3.914  -2.790  0.00  0.00    +0.140 A 
ATOM      7  C   UNL     1       9.175   5.148  -2.808  0.00  0.00    +0.277 A 
ATOM      8  O   UNL     1       8.994   5.960  -1.916  0.00  0.00    -0.266 OA
ATOM      9  N   UNL     1      10.025   5.425  -3.816  0.00  0.00    -0.273 N 
ATOM     10  H   UNL     1      10.557   6.388  -3.837  0.00  0.00    +0.173 HD
ATOM     11  C   UNL     1      10.232   4.537  -4.804  0.00  0.00    +0.331 A 
ATOM     12  O   UNL     1      11.005   4.814  -5.702  0.00  0.00    -0.246 OA
BRANCH   5  13
ATOM     13  N   UNL     1       8.089   1.797  -3.821  0.00  0.00    -0.343 N 
ATOM     14  H   UNL     1       7.392   1.535  -3.011  0.00  0.00    +0.144 HD
ATOM     15  H   UNL     1       8.274   1.085  -4.639  0.00  0.00    +0.144 HD
ENDBRANCH   5  13
BRANCH   4  16
ATOM     16  C   UNL     1       9.851   2.405  -5.910  0.00  0.00    +0.128 C 
BRANCH  16  17
ATOM     17  C   UNL     1      11.021   1.492  -5.538  0.00  0.00    +0.021 C 
BRANCH  17  19
ATOM     18  C   UNL     1      12.451  -0.406  -6.307  0.00  0.00    +0.004 C 
ATOM     19  C   UNL     1      11.281   0.506  -6.679  0.00  0.00    -0.002 C 
ENDBRANCH  17  19
ENDBRANCH  16  17
ENDBRANCH   4  16
ENDBRANCH   1   6
BRANCH   1  20
ATOM     20  C   UNL     1       8.111   3.385  -0.387  0.00  0.00    +0.110 C 
ATOM     21  C   UNL     1       8.540   1.925  -0.228  0.00  0.00    +0.025 C 
ENDBRANCH   1  20
BRANCH   2  22
ATOM     22  C   UNL     1       5.316   3.264  -0.862  0.00  0.00    +0.020 C 
BRANCH  22  23
ATOM     23  N   UNL     1       3.940   3.328  -1.371  0.00  0.00    +0.390 N 
ATOM     24  H   UNL     1       3.967   3.107  -2.448  0.00  0.00    -0.080 HD
BRANCH  23  25
ATOM     25  C   UNL     1       3.378   4.675  -1.200  0.00  0.00    -0.067 C 
ATOM     26  C   UNL     1       4.324   5.724  -1.819  0.00  0.00    -0.015 C 
ATOM     27  C   UNL     1       4.233   6.933  -0.856  0.00  0.00    -0.002 C 
ATOM     28  C   UNL     1       4.147   6.256   0.535  0.00  0.00    -0.002 C 
ATOM     29  C   UNL     1       3.266   5.013   0.297  0.00  0.00    -0.015 C 
ENDBRANCH  23  25
BRANCH  23  30
ATOM     30  C   UNL     1       3.092   2.318  -0.724  0.00  0.00    -0.042 C 
BRANCH  30  31
ATOM     31  C   UNL     1       1.781   2.216  -1.461  0.00  0.00    -0.060 A 
ATOM     32  C   UNL     1       1.682   1.418  -2.585  0.00  0.00    +0.005 A 
ATOM     33  C   UNL     1       0.481   1.322  -3.264  0.00  0.00    +0.050 A 
ATOM     34  C   UNL     1      -0.626   2.026  -2.819  0.00  0.00    +0.166 A 
ATOM     35  C   UNL     1      -0.525   2.830  -1.687  0.00  0.00    +0.166 A 
ATOM     36  C   UNL     1       0.681   2.922  -1.011  0.00  0.00    +0.051 A 
ATOM     37  O   UNL     1      -1.737   3.416  -1.459  0.00  0.00    -0.453 OA
ATOM     38  C   UNL     1      -2.470   3.278  -2.689  0.00  0.00    +0.466 C 
ATOM     39  O   UNL     1      -1.902   2.103  -3.298  0.00  0.00    -0.453 OA
ENDBRANCH  30  31
ENDBRANCH  23  30
ENDBRANCH  22  23
ENDBRANCH   2  22
TORSDOF 11
