REMARK  Name = ZINC63795723
REMARK  2 active torsions:
REMARK  status: ('A' for Active; 'I' for Inactive)
REMARK    1  A    between atoms: C_4  and  C_8
REMARK    2  A    between atoms: C_14  and  C_17
REMARK                            x       y       z     vdW  Elec       q    Type
REMARK                         _______ _______ _______ _____ _____    ______ ____
ROOT
ATOM      1  C   UNL     1       3.696  -0.685  -0.038  0.00  0.00    +0.183 A 
ATOM      2  N   UNL     1       4.885  -0.136  -0.042  0.00  0.00    -0.127 NA
ATOM      3  N   UNL     1       5.791  -1.050  -0.070  0.00  0.00    -0.120 NA
ATOM      4  C   UNL     1       5.230  -2.220  -0.102  0.00  0.00    +0.211 A 
ATOM      5  N   UNL     1       3.867  -2.067  -0.047  0.00  0.00    -0.220 N 
ATOM      6  N   UNL     1       3.074  -3.174   0.000  0.00  0.00    -0.265 N 
ATOM      7  C   UNL     1       3.707  -4.422  -0.503  0.00  0.00    +0.182 C 
ATOM      8  S   UNL     1       5.470  -3.982  -0.187  0.00  0.00    -0.058 S 
ATOM      9  H   UNL     1       2.696  -3.309   0.926  0.00  0.00    +0.168 HD
ENDROOT
BRANCH   1  13
ATOM     10  C   UNL     1      -0.017   1.380   0.010  0.00  0.00    +0.021 A 
ATOM     11  C   UNL     1       1.168   2.094   0.002  0.00  0.00    +0.022 A 
ATOM     12  C   UNL     1       2.378   1.430  -0.013  0.00  0.00    +0.052 A 
ATOM     13  C   UNL     1       2.404   0.033  -0.021  0.00  0.00    +0.040 A 
ATOM     14  C   UNL     1       1.206  -0.681  -0.013  0.00  0.00    +0.033 A 
ATOM     15  C   UNL     1       0.002  -0.004   0.002  0.00  0.00    +0.042 A 
ATOM     16 CL   UNL     1      -1.490  -0.891   0.012  0.00  0.00    -0.084 Cl
ATOM     17 CL   UNL     1       3.864   2.328  -0.024  0.00  0.00    -0.083 Cl
ENDBRANCH   1  13
BRANCH   7  18
ATOM     18  C   UNL     1       3.270  -5.643   0.308  0.00  0.00    +0.184 C 
ATOM     19  C   UNL     1       3.881  -6.912  -0.259  0.00  0.00    +0.025 C 
ATOM     20  C   UNL     1       2.824  -7.641  -0.625  0.00  0.00    +0.132 C 
ATOM     21  N   UNL     1       1.673  -6.987  -0.356  0.00  0.00    -0.162 NA
ATOM     22  N   UNL     1       1.823  -5.874   0.163  0.00  0.00    -0.177 NA
ENDBRANCH   7  18
TORSDOF 2
