REMARK  Name = ZINC05395011
REMARK  8 active torsions:
REMARK  status: ('A' for Active; 'I' for Inactive)
REMARK    1  A    between atoms: C_4  and  N_24
REMARK    2  A    between atoms: C_5  and  N_7
REMARK    3  A    between atoms: N_7  and  C_8
REMARK    4  A    between atoms: C_10  and  O_23
REMARK    5  A    between atoms: C_12  and  O_22
REMARK    6  A    between atoms: C_14  and  O_21
REMARK    7  A    between atoms: C_16  and  C_19
REMARK    8  A    between atoms: C_19  and  O_20
REMARK                            x       y       z     vdW  Elec       q    Type
REMARK                         _______ _______ _______ _____ _____    ______ ____
ROOT
ATOM      1  C   UNL     1       3.157   3.383  -1.200  0.00  0.00    +0.235 C 
ATOM      2  C   UNL     1       3.365   1.867  -1.248  0.00  0.00    +0.192 C 
ATOM      3  C   UNL     1       2.001   1.171  -1.192  0.00  0.00    +0.178 C 
ATOM      4  C   UNL     1       1.264   1.617   0.074  0.00  0.00    +0.177 C 
ATOM      5  C   UNL     1       1.137   3.143   0.070  0.00  0.00    +0.177 C 
ATOM      6  O   UNL     1       2.439   3.727  -0.014  0.00  0.00    -0.348 OA
ENDROOT
BRANCH   1   7
ATOM      7  N   UNL     1       4.459   4.055  -1.195  0.00  0.00    -0.315 N 
ATOM      8  H   UNL     1       5.211   3.651  -0.734  0.00  0.00    +0.149 HD
BRANCH   7  13
ATOM      9  C   UNL     1       3.734   7.010  -3.255  0.00  0.00    +0.002 A 
ATOM     10  C   UNL     1       4.931   7.696  -3.159  0.00  0.00    +0.002 A 
ATOM     11  C   UNL     1       5.972   7.175  -2.413  0.00  0.00    +0.034 A 
ATOM     12  C   UNL     1       5.816   5.970  -1.755  0.00  0.00    +0.147 A 
ATOM     13  C   UNL     1       4.617   5.276  -1.854  0.00  0.00    +0.060 A 
ATOM     14  C   UNL     1       3.574   5.802  -2.605  0.00  0.00    +0.025 A 
BRANCH  12  15
ATOM     15  N   UNL     1       6.929   5.416  -0.951  0.00  0.00    +0.058 N 
ATOM     16  O   UNL     1       7.941   6.072  -0.778  0.00  0.00    -0.126 OA
ATOM     17  O   UNL     1       6.832   4.305  -0.462  0.00  0.00    -0.126 OA
ENDBRANCH  12  15
ENDBRANCH   7  13
ENDBRANCH   1   7
BRANCH   4  18
ATOM     18  O   UNL     1      -0.039   1.030   0.100  0.00  0.00    -0.386 OA
ATOM     19  H   UNL     1      -0.035   0.063   0.103  0.00  0.00    +0.210 HD
ENDBRANCH   4  18
BRANCH   3  20
ATOM     20  O   UNL     1       2.189  -0.245  -1.162  0.00  0.00    -0.386 OA
ATOM     21  H   UNL     1       2.651  -0.598  -1.935  0.00  0.00    +0.210 HD
ENDBRANCH   3  20
BRANCH   2  22
ATOM     22  O   UNL     1       4.156   1.458  -0.130  0.00  0.00    -0.385 OA
ATOM     23  H   UNL     1       5.032   1.865  -0.099  0.00  0.00    +0.210 HD
ENDBRANCH   2  22
BRANCH   5  24
ATOM     24  C   UNL     1       0.455   3.602   1.361  0.00  0.00    +0.190 C 
BRANCH  24  25
ATOM     25  O   UNL     1       0.232   5.012   1.306  0.00  0.00    -0.392 OA
ATOM     26  H   UNL     1      -0.199   5.373   2.093  0.00  0.00    +0.210 HD
ENDBRANCH  24  25
ENDBRANCH   5  24
TORSDOF 8
