REMARK  Name = ZINC26593258
REMARK  5 active torsions:
REMARK  status: ('A' for Active; 'I' for Inactive)
REMARK    1  A    between atoms: C_4  and  O_7
REMARK    2  A    between atoms: O_7  and  C_8
REMARK    3  A    between atoms: C_8  and  C_9
REMARK    4  A    between atoms: C_15  and  C_16
REMARK    5  A    between atoms: C_19  and  C_21
REMARK                            x       y       z     vdW  Elec       q    Type
REMARK                         _______ _______ _______ _____ _____    ______ ____
ROOT
ATOM      1  C   UNL     1       4.870  -2.804  -1.763  0.00  0.00    +0.137 C 
ATOM      2  N   UNL     1       5.935  -2.135  -1.424  0.00  0.00    -0.166 NA
ATOM      3  N   UNL     1       7.114  -2.778  -1.114  0.00  0.00    -0.152 N 
ATOM      4  C   UNL     1       8.295  -2.159  -0.651  0.00  0.00    +0.153 C 
ATOM      5  N   UNL     1       8.311  -0.989  -0.065  0.00  0.00    -0.283 NA
ATOM      6  C   UNL     1       9.520  -2.967  -0.895  0.00  0.00    +0.084 C 
ATOM      7  C   UNL     1      10.745  -2.373  -1.163  0.00  0.00    +0.063 C 
ATOM      8  C   UNL     1       9.363  -4.438  -0.836  0.00  0.00    +0.273 C 
ATOM      9  O   UNL     1      10.310  -5.160  -0.567  0.00  0.00    -0.268 OA
ATOM     10  N   UNL     1       8.144  -4.957  -1.087  0.00  0.00    -0.152 NA
ATOM     11  C   UNL     1       7.126  -4.150  -1.244  0.00  0.00    +0.181 C 
ATOM     12  S   UNL     1       5.442  -4.495  -1.680  0.00  0.00    -0.035 S 
ATOM     13  H   UNL     1       7.482  -0.503   0.070  0.00  0.00    +0.188 HD
ENDROOT
BRANCH   7  14
ATOM     14  C   UNL     1      10.820  -0.989  -1.388  0.00  0.00    +0.129 A 
ATOM     15  C   UNL     1      11.986  -0.250  -1.533  0.00  0.00    +0.050 A 
ATOM     16  C   UNL     1      11.600   1.074  -1.738  0.00  0.00    +0.050 A 
ATOM     17  C   UNL     1      10.222   1.102  -1.712  0.00  0.00    +0.136 A 
ATOM     18  O   UNL     1       9.771  -0.147  -1.506  0.00  0.00    -0.455 OA
BRANCH  17  19
ATOM     19  C   UNL     1       9.382   2.303  -1.886  0.00  0.00    +0.020 A 
ATOM     20  C   UNL     1       9.975   3.549  -2.105  0.00  0.00    +0.031 A 
ATOM     21  C   UNL     1       9.184   4.668  -2.268  0.00  0.00    +0.043 A 
ATOM     22  C   UNL     1       7.804   4.558  -2.214  0.00  0.00    +0.040 A 
ATOM     23  C   UNL     1       7.210   3.326  -1.997  0.00  0.00    +0.043 A 
ATOM     24  C   UNL     1       7.989   2.198  -1.838  0.00  0.00    +0.031 A 
ATOM     25 CL   UNL     1       5.479   3.199  -1.930  0.00  0.00    -0.083 Cl
ATOM     26 CL   UNL     1       9.919   6.216  -2.541  0.00  0.00    -0.083 Cl
ENDBRANCH  17  19
ENDBRANCH   7  14
BRANCH   1  27
ATOM     27  C   UNL     1       3.503  -2.284  -2.126  0.00  0.00    +0.293 C 
BRANCH  27  28
ATOM     28  O   UNL     1       3.502  -0.857  -2.059  0.00  0.00    -0.485 OA
BRANCH  28  32
ATOM     29  C   UNL     1      -0.035   1.060  -2.972  0.00  0.00    +0.000 A 
ATOM     30  C   UNL     1       1.080   1.799  -2.620  0.00  0.00    +0.004 A 
ATOM     31  C   UNL     1       2.265   1.159  -2.314  0.00  0.00    +0.045 A 
ATOM     32  C   UNL     1       2.337  -0.226  -2.359  0.00  0.00    +0.121 A 
ATOM     33  C   UNL     1       1.217  -0.965  -2.712  0.00  0.00    +0.045 A 
ATOM     34  C   UNL     1       0.034  -0.320  -3.018  0.00  0.00    +0.004 A 
ENDBRANCH  28  32
ENDBRANCH  27  28
ENDBRANCH   1  27
TORSDOF 5
