REMARK  Name = ZINC09768375
REMARK  7 active torsions:
REMARK  status: ('A' for Active; 'I' for Inactive)
REMARK    1  A    between atoms: C_1  and  O_2
REMARK    2  A    between atoms: O_2  and  C_3
REMARK    3  A    between atoms: C_3  and  C_5
REMARK    4  A    between atoms: C_5  and  N_6
REMARK    5  A    between atoms: N_16  and  C_17
REMARK    6  A    between atoms: C_17  and  C_19
REMARK    7  A    between atoms: C_19  and  N_20
REMARK                            x       y       z     vdW  Elec       q    Type
REMARK                         _______ _______ _______ _____ _____    ______ ____
ROOT
ATOM      1  N   UNL     1       2.247   1.883  -0.129  0.00  0.00    -0.309 N 
ATOM      2  C   UNL     1       0.907   2.158  -0.334  0.00  0.00    +0.077 A 
ATOM      3  C   UNL     1       0.591   3.521  -0.421  0.00  0.00    +0.040 A 
ATOM      4  C   UNL     1      -0.693   3.969  -0.624  0.00  0.00    +0.017 A 
ATOM      5  C   UNL     1      -1.724   3.055  -0.749  0.00  0.00    +0.003 A 
ATOM      6  C   UNL     1      -1.442   1.702  -0.671  0.00  0.00    +0.022 A 
ATOM      7  C   UNL     1      -0.158   1.252  -0.463  0.00  0.00    +0.066 A 
ATOM      8 CL   UNL     1       0.149  -0.454  -0.367  0.00  0.00    -0.081 Cl
ATOM      9  S   UNL     1       2.164   4.318  -0.214  0.00  0.00    -0.052 S 
ATOM     10  C   UNL     1       3.144   2.899  -0.028  0.00  0.00    +0.167 A 
ATOM     11  N   UNL     1       4.458   2.824   0.167  0.00  0.00    -0.155 NA
ENDROOT
BRANCH  11  12
ATOM     12  C   UNL     1       5.184   3.935   0.240  0.00  0.00    +0.256 C 
ATOM     13  O   UNL     1       4.647   5.020   0.129  0.00  0.00    -0.272 OA
BRANCH  12  14
ATOM     14  C   UNL     1       6.672   3.849   0.462  0.00  0.00    +0.214 C 
BRANCH  14  15
ATOM     15  N   UNL     1       7.238   5.200   0.504  0.00  0.00    -0.225 N 
ATOM     16  C   UNL     1       7.698   5.867  -0.570  0.00  0.00    +0.254 C 
ATOM     17  O   UNL     1       7.710   5.451  -1.711  0.00  0.00    -0.270 OA
ATOM     18  C   UNL     1       8.184   7.191  -0.130  0.00  0.00    +0.049 A 
ATOM     19  C   UNL     1       8.749   8.279  -0.776  0.00  0.00    +0.014 A 
ATOM     20  C   UNL     1       9.109   9.401  -0.046  0.00  0.00    +0.001 A 
ATOM     21  C   UNL     1       8.908   9.443   1.321  0.00  0.00    +0.001 A 
ATOM     22  C   UNL     1       8.343   8.362   1.981  0.00  0.00    +0.014 A 
ATOM     23  C   UNL     1       7.979   7.233   1.264  0.00  0.00    +0.049 A 
ATOM     24  C   UNL     1       7.371   5.935   1.623  0.00  0.00    +0.254 C 
ATOM     25  O   UNL     1       7.046   5.589   2.741  0.00  0.00    -0.270 OA
ENDBRANCH  14  15
ENDBRANCH  12  14
ENDBRANCH  11  12
BRANCH   1  26
ATOM     26  C   UNL     1       2.701   0.494  -0.021  0.00  0.00    +0.244 C 
BRANCH  26  27
ATOM     27  C   UNL     1       2.195  -0.100   1.269  0.00  0.00    +0.327 C 
ATOM     28  O   UNL     1       1.619   0.596   2.070  0.00  0.00    -0.249 OA
BRANCH  27  30
ATOM     29  C   UNL     1       1.871  -1.908   2.788  0.00  0.00    +0.280 C 
ATOM     30  O   UNL     1       2.385  -1.404   1.526  0.00  0.00    -0.467 OA
ENDBRANCH  27  30
ENDBRANCH  26  27
ENDBRANCH   1  26
TORSDOF 6
