REMARK  Name = ZINC57608087
REMARK  10 active torsions:
REMARK  status: ('A' for Active; 'I' for Inactive)
REMARK    1  A    between atoms: C_1  and  C_2
REMARK    2  A    between atoms: C_9  and  C_14
REMARK    3  A    between atoms: C_14  and  C_16
REMARK    4  A    between atoms: C_14  and  N_28
REMARK    5  A    between atoms: N_20  and  C_21
REMARK    6  A    between atoms: C_21  and  C_22
REMARK    7  A    between atoms: N_28  and  C_29
REMARK    8  A    between atoms: N_28  and  C_36
REMARK    9  A    between atoms: C_29  and  C_30
REMARK   10  A    between atoms: C_36  and  C_37
REMARK                            x       y       z     vdW  Elec       q    Type
REMARK                         _______ _______ _______ _____ _____    ______ ____
ROOT
ATOM      1  C   UNL     1      -0.262  -5.100   4.121  0.00  0.00    +0.163 C 
ENDROOT
BRANCH   1  10
ATOM      2  C   UNL     1      -4.419  -6.694  -1.862  0.00  0.00    +0.044 C 
ATOM      3  C   UNL     1      -3.094  -6.335  -1.240  0.00  0.00    -0.050 A 
ATOM      4  C   UNL     1      -1.973  -6.185  -2.046  0.00  0.00    +0.005 A 
ATOM      5  C   UNL     1      -0.752  -5.857  -1.498  0.00  0.00    +0.026 A 
ATOM      6  C   UNL     1      -0.638  -5.674  -0.124  0.00  0.00    +0.049 A 
ATOM      7  C   UNL     1      -1.777  -5.826   0.690  0.00  0.00    -0.001 A 
ATOM      8  C   UNL     1      -3.007  -6.155   0.112  0.00  0.00    +0.013 A 
ATOM      9  C   UNL     1      -1.647  -5.631   2.135  0.00  0.00    +0.021 A 
ATOM     10  C   UNL     1      -0.430  -5.309   2.638  0.00  0.00    +0.042 A 
ATOM     11  C   UNL     1       0.680  -5.167   1.778  0.00  0.00    +0.254 A 
ATOM     12  O   UNL     1       1.765  -4.877   2.252  0.00  0.00    -0.268 OA
ATOM     13  N   UNL     1       0.571  -5.345   0.450  0.00  0.00    -0.322 N 
ATOM     14  H   UNL     1       1.355  -5.240  -0.112  0.00  0.00    +0.169 HD
ENDBRANCH   1  10
BRANCH   1  15
ATOM     15  C   UNL     1      -1.521  -5.523   4.834  0.00  0.00    +0.173 A 
ATOM     16  N   UNL     1      -2.070  -6.713   4.814  0.00  0.00    -0.111 NA
ATOM     17  N   UNL     1      -3.131  -6.674   5.544  0.00  0.00    -0.023 NA
ATOM     18  N   UNL     1      -3.273  -5.490   6.029  0.00  0.00    -0.044 NA
ATOM     19  N   UNL     1      -2.297  -4.752   5.619  0.00  0.00    -0.223 N 
BRANCH  19  20
ATOM     20  C   UNL     1      -2.078  -3.341   5.943  0.00  0.00    +0.182 C 
BRANCH  20  21
ATOM     21  C   UNL     1      -2.792  -2.477   4.936  0.00  0.00    -0.026 A 
ATOM     22  C   UNL     1      -2.157  -2.113   3.763  0.00  0.00    +0.005 A 
ATOM     23  C   UNL     1      -2.812  -1.321   2.839  0.00  0.00    +0.000 A 
ATOM     24  C   UNL     1      -4.102  -0.892   3.087  0.00  0.00    +0.000 A 
ATOM     25  C   UNL     1      -4.738  -1.257   4.260  0.00  0.00    +0.000 A 
ATOM     26  C   UNL     1      -4.084  -2.053   5.182  0.00  0.00    +0.005 A 
ENDBRANCH  20  21
ENDBRANCH  19  20
ENDBRANCH   1  15
BRANCH   1  27
ATOM     27  N   UNL     1       0.867  -5.906   4.604  0.00  0.00    -0.277 NA
BRANCH  27  28
ATOM     28  C   UNL     1       1.316  -5.446   5.925  0.00  0.00    +0.122 C 
BRANCH  28  29
ATOM     29  C   UNL     1       2.175  -4.218   5.764  0.00  0.00    -0.015 A 
ATOM     30  C   UNL     1       3.519  -4.338   5.444  0.00  0.00    +0.008 A 
ATOM     31  C   UNL     1       4.270  -3.181   5.306  0.00  0.00    +0.020 A 
ATOM     32  C   UNL     1       3.658  -1.955   5.489  0.00  0.00    +0.111 A 
ATOM     33  N   UNL     1       2.378  -1.879   5.793  0.00  0.00    -0.263 NA
ATOM     34  C   UNL     1       1.631  -2.958   5.927  0.00  0.00    +0.115 A 
ENDBRANCH  28  29
ENDBRANCH  27  28
BRANCH  27  35
ATOM     35  C   UNL     1       0.521  -7.333   4.634  0.00  0.00    +0.160 C 
BRANCH  35  36
ATOM     36  C   UNL     1       0.561  -7.890   3.234  0.00  0.00    +0.119 A 
ATOM     37  C   UNL     1       1.664  -8.295   2.580  0.00  0.00    +0.046 A 
ATOM     38  C   UNL     1       1.244  -8.740   1.305  0.00  0.00    +0.041 A 
ATOM     39  C   UNL     1      -0.090  -8.580   1.257  0.00  0.00    +0.195 A 
ATOM     40  O   UNL     1      -0.500  -8.070   2.430  0.00  0.00    -0.467 OA
ENDBRANCH  35  36
ENDBRANCH  27  35
ENDBRANCH   1  27
TORSDOF 9
