REMARK  Name = ZINC08762291
REMARK  4 active torsions:
REMARK  status: ('A' for Active; 'I' for Inactive)
REMARK    1  A    between atoms: C_1  and  N_2
REMARK    2  A    between atoms: C_5  and  C_17
REMARK    3  A    between atoms: N_7  and  C_10
REMARK    4  A    between atoms: N_21  and  C_22
REMARK                            x       y       z     vdW  Elec       q    Type
REMARK                         _______ _______ _______ _____ _____    ______ ____
ROOT
ATOM      1  C   UNL     1       2.201   1.218  -0.912  0.00  0.00    +0.157 C 
ATOM      2  N   UNL     1       1.036   1.924  -0.372  0.00  0.00    -0.261 N 
ATOM      3  C   UNL     1      -0.100   1.245  -0.110  0.00  0.00    +0.284 A 
ATOM      4  O   UNL     1      -0.166   0.048  -0.318  0.00  0.00    -0.265 OA
ATOM      5  C   UNL     1      -1.263   1.975   0.427  0.00  0.00    +0.174 A 
ATOM      6  N   UNL     1      -1.154   3.267   0.646  0.00  0.00    -0.155 NA
ATOM      7  N   UNL     1       0.049   3.921   0.356  0.00  0.00    -0.181 N 
ATOM      8  C   UNL     1       1.101   3.247  -0.139  0.00  0.00    +0.353 A 
ATOM      9  O   UNL     1       2.132   3.845  -0.381  0.00  0.00    -0.244 OA
ENDROOT
BRANCH   7  10
ATOM     10  C   UNL     1       0.158   5.298   0.585  0.00  0.00    +0.071 A 
ATOM     11  C   UNL     1      -0.812   6.163   0.095  0.00  0.00    +0.029 A 
ATOM     12  C   UNL     1      -0.705   7.520   0.327  0.00  0.00    +0.022 A 
ATOM     13  C   UNL     1       0.373   8.019   1.037  0.00  0.00    +0.041 A 
ATOM     14  C   UNL     1       1.343   7.160   1.522  0.00  0.00    +0.022 A 
ATOM     15  C   UNL     1       1.238   5.801   1.297  0.00  0.00    +0.029 A 
ATOM     16 CL   UNL     1       0.507   9.727   1.321  0.00  0.00    -0.084 Cl
ENDBRANCH   7  10
BRANCH   5  17
ATOM     17  C   UNL     1      -2.525   1.266   0.721  0.00  0.00    +0.094 A 
ATOM     18  C   UNL     1      -2.690  -0.096   0.838  0.00  0.00    +0.051 A 
ATOM     19  C   UNL     1      -4.034  -0.337   1.123  0.00  0.00    +0.135 A 
ATOM     20  N   UNL     1      -4.664   0.809   1.170  0.00  0.00    -0.179 NA
ATOM     21  N   UNL     1      -3.747   1.838   0.922  0.00  0.00    -0.257 N 
BRANCH  21  22
ATOM     22  C   UNL     1      -4.046   3.272   0.885  0.00  0.00    +0.130 C 
ATOM     23  C   UNL     1      -4.440   3.748   2.293  0.00  0.00    +0.051 C 
ATOM     24  C   UNL     1      -5.049   5.174   2.170  0.00  0.00    +0.168 C 
ATOM     25  S   UNL     1      -6.062   4.977   0.643  0.00  0.00    -0.029 S 
ATOM     26  O   UNL     1      -7.382   4.599   1.010  0.00  0.00    -0.174 OA
ATOM     27  O   UNL     1      -5.866   6.110  -0.191  0.00  0.00    -0.174 OA
ATOM     28  C   UNL     1      -5.210   3.528  -0.103  0.00  0.00    +0.192 C 
ENDBRANCH  21  22
ENDBRANCH   5  17
TORSDOF 3
