REMARK  Name = ZINC16724986
REMARK  11 active torsions:
REMARK  status: ('A' for Active; 'I' for Inactive)
REMARK    1  A    between atoms: C_1  and  C_2
REMARK    2  A    between atoms: C_2  and  C_3
REMARK    3  A    between atoms: C_2  and  C_4
REMARK    4  A    between atoms: C_2  and  C_5
REMARK    5  A    between atoms: C_8  and  C_11
REMARK    6  A    between atoms: C_14  and  S_17
REMARK    7  A    between atoms: N_15  and  N_16
REMARK    8  A    between atoms: S_17  and  C_18
REMARK    9  A    between atoms: C_18  and  C_19
REMARK   10  A    between atoms: N_21  and  C_22
REMARK   11  A    between atoms: C_23  and  C_30
REMARK                            x       y       z     vdW  Elec       q    Type
REMARK                         _______ _______ _______ _____ _____    ______ ____
ROOT
ATOM      1  S   UNL     1      -1.166   3.598   0.453  0.00  0.00    -0.075 S 
ENDROOT
BRANCH   1   5
ATOM      2  C   UNL     1      -4.337   5.800  -0.147  0.00  0.00    +0.182 A 
ATOM      3  N   UNL     1      -4.843   4.596  -0.014  0.00  0.00    -0.127 NA
ATOM      4  N   UNL     1      -3.902   3.745   0.188  0.00  0.00    -0.121 NA
ATOM      5  C   UNL     1      -2.738   4.354   0.205  0.00  0.00    +0.209 A 
ATOM      6  N   UNL     1      -2.973   5.682  -0.010  0.00  0.00    -0.224 N 
BRANCH   2  10
ATOM      7  C   UNL     1      -6.502   9.384  -0.864  0.00  0.00    -0.042 A 
ATOM      8  C   UNL     1      -5.139   9.345  -1.097  0.00  0.00    +0.005 A 
ATOM      9  C   UNL     1      -4.430   8.184  -0.866  0.00  0.00    +0.012 A 
ATOM     10  C   UNL     1      -5.091   7.048  -0.396  0.00  0.00    +0.021 A 
ATOM     11  C   UNL     1      -6.467   7.093  -0.169  0.00  0.00    +0.012 A 
ATOM     12  C   UNL     1      -7.163   8.261  -0.399  0.00  0.00    +0.005 A 
BRANCH   7  14
ATOM     13  C   UNL     1      -7.133  11.048  -2.590  0.00  0.00    +0.015 C 
ATOM     14  C   UNL     1      -7.270  10.655  -1.118  0.00  0.00    -0.013 C 
ATOM     15  C   UNL     1      -8.747  10.435  -0.784  0.00  0.00    +0.015 C 
ATOM     16  C   UNL     1      -6.710  11.774  -0.237  0.00  0.00    +0.015 C 
ENDBRANCH   7  14
ENDBRANCH   2  10
BRANCH   6  17
ATOM     17  N   UNL     1      -2.047   6.684  -0.077  0.00  0.00    -0.295 N 
ATOM     18  H   UNL     1      -1.789   6.875  -1.034  0.00  0.00    +0.163 HD
ATOM     19  H   UNL     1      -2.384   7.519   0.380  0.00  0.00    +0.163 HD
ENDBRANCH   6  17
ENDBRANCH   1   5
BRANCH   1  20
ATOM     20  C   UNL     1      -1.676   1.874   0.662  0.00  0.00    +0.173 C 
BRANCH  20  21
ATOM     21  C   UNL     1      -0.460   1.015   0.894  0.00  0.00    +0.228 C 
ATOM     22  O   UNL     1       0.644   1.518   0.911  0.00  0.00    -0.275 OA
ATOM     23  N   UNL     1      -0.598  -0.313   1.078  0.00  0.00    -0.279 N 
ATOM     24  H   UNL     1      -1.480  -0.715   1.064  0.00  0.00    +0.155 HD
BRANCH  23  25
ATOM     25  C   UNL     1       0.522  -1.104   1.285  0.00  0.00    +0.084 A 
ATOM     26  C   UNL     1       0.582  -2.471   1.496  0.00  0.00    +0.068 A 
ATOM     27  C   UNL     1       1.903  -3.069   1.687  0.00  0.00    -0.023 A 
ATOM     28  C   UNL     1       2.933  -2.204   1.644  0.00  0.00    -0.004 A 
ATOM     29  S   UNL     1       2.183  -0.622   1.351  0.00  0.00    -0.077 S 
ATOM     30  C   UNL     1       4.256  -2.892   1.850  0.00  0.00    +0.043 C 
ATOM     31  C   UNL     1       3.960  -4.388   1.601  0.00  0.00    +0.010 C 
ATOM     32  C   UNL     1       2.458  -4.471   1.940  0.00  0.00    +0.037 C 
BRANCH  26  33
ATOM     33  C   UNL     1      -0.633  -3.290   1.524  0.00  0.00    +0.244 C 
ATOM     34  O   UNL     1      -1.056  -3.787   0.496  0.00  0.00    -0.270 OA
ATOM     35  N   UNL     1      -1.283  -3.492   2.687  0.00  0.00    -0.325 N 
ATOM     36  H   UNL     1      -0.947  -3.096   3.506  0.00  0.00    +0.145 HD
ATOM     37  H   UNL     1      -2.088  -4.034   2.705  0.00  0.00    +0.145 HD
ENDBRANCH  26  33
ENDBRANCH  23  25
ENDBRANCH  20  21
ENDBRANCH   1  20
TORSDOF 8
