REMARK  Name = ZINC09590746
REMARK  3 active torsions:
REMARK  status: ('A' for Active; 'I' for Inactive)
REMARK    1  A    between atoms: C_4  and  C_7
REMARK    2  A    between atoms: C_12  and  C_28
REMARK    3  A    between atoms: C_14  and  C_26
REMARK                            x       y       z     vdW  Elec       q    Type
REMARK                         _______ _______ _______ _____ _____    ______ ____
ROOT
ATOM      1  C   UNL     1      -2.803   5.976   2.709  0.00  0.00    +0.032 C 
ATOM      2  C   UNL     1      -2.218   5.104   1.593  0.00  0.00    +0.060 C 
ATOM      3  C   UNL     1      -1.157   5.881   0.851  0.00  0.00    +0.025 C 
ATOM      4  C   UNL     1      -1.302   7.223   0.723  0.00  0.00    +0.025 C 
ATOM      5  C   UNL     1      -0.218   7.989  -0.010  0.00  0.00    +0.099 C 
ATOM      6  C   UNL     1       1.119   7.284  -0.119  0.00  0.00    +0.082 C 
ATOM      7  C   UNL     1       1.123   5.907   0.083  0.00  0.00    +0.146 C 
ATOM      8  N   UNL     1      -0.050   5.233   0.369  0.00  0.00    -0.256 N 
ATOM      9  C   UNL     1      -0.076   3.856   0.160  0.00  0.00    +0.050 A 
ATOM     10  C   UNL     1      -1.253   3.136   0.034  0.00  0.00    +0.024 A 
ATOM     11  C   UNL     1      -1.220   1.755  -0.023  0.00  0.00    +0.002 A 
ATOM     12  C   UNL     1      -0.013   1.075   0.008  0.00  0.00    +0.001 A 
ATOM     13  C   UNL     1       1.174   1.777   0.000  0.00  0.00    +0.013 A 
ATOM     14  C   UNL     1       1.149   3.170   0.046  0.00  0.00    +0.036 A 
ATOM     15  C   UNL     1       2.389   3.959  -0.026  0.00  0.00    +0.127 C 
ATOM     16  N   UNL     1       2.300   5.274  -0.029  0.00  0.00    -0.215 NA
ATOM     17  N   UNL     1       3.614   3.345  -0.094  0.00  0.00    -0.343 N 
ATOM     18  C   UNL     1      -2.397   7.919   1.247  0.00  0.00    +0.162 C 
ATOM     19  O   UNL     1      -2.505   9.115   1.055  0.00  0.00    -0.292 OA
ATOM     20  C   UNL     1      -3.446   7.210   2.065  0.00  0.00    +0.088 C 
ATOM     21  H   UNL     1       3.672   2.377  -0.094  0.00  0.00    +0.144 HD
ATOM     22  H   UNL     1       4.422   3.879  -0.141  0.00  0.00    +0.144 HD
ENDROOT
BRANCH   1  26
ATOM     23  C   UNL     1      -5.760   3.766   4.858  0.00  0.00    +0.000 A 
ATOM     24  C   UNL     1      -4.659   4.275   5.522  0.00  0.00    +0.000 A 
ATOM     25  C   UNL     1      -3.703   4.990   4.827  0.00  0.00    +0.004 A 
ATOM     26  C   UNL     1      -3.846   5.196   3.467  0.00  0.00    -0.044 A 
ATOM     27  C   UNL     1      -4.949   4.692   2.804  0.00  0.00    +0.004 A 
ATOM     28  C   UNL     1      -5.904   3.973   3.499  0.00  0.00    +0.000 A 
ENDBRANCH   1  26
BRANCH   5  29
ATOM     29  C   UNL     1      -0.706   8.267  -1.409  0.00  0.00    -0.017 A 
ATOM     30  C   UNL     1      -0.833   9.572  -1.861  0.00  0.00    +0.007 A 
ATOM     31  C   UNL     1      -1.285   9.780  -3.155  0.00  0.00    +0.020 A 
ATOM     32  C   UNL     1      -1.591   8.688  -3.946  0.00  0.00    +0.111 A 
ATOM     33  N   UNL     1      -1.458   7.461  -3.482  0.00  0.00    -0.263 NA
ATOM     34  C   UNL     1      -1.025   7.226  -2.259  0.00  0.00    +0.115 A 
ENDBRANCH   5  29
BRANCH   6  35
ATOM     35  C   UNL     1       2.317   8.002  -0.418  0.00  0.00    +0.099 C 
ATOM     36  N   UNL     1       3.270   8.573  -0.656  0.00  0.00    -0.191 NA
ENDBRANCH   6  35
TORSDOF 3
