REMARK  Name = ZINC63139041
REMARK  5 active torsions:
REMARK  status: ('A' for Active; 'I' for Inactive)
REMARK    1  A    between atoms: C_4  and  C_7
REMARK    2  A    between atoms: N_26  and  C_29
REMARK    3  A    between atoms: C_29  and  C_30
REMARK    4  A    between atoms: C_30  and  C_31
REMARK    5  A    between atoms: C_31  and  N_32
REMARK                            x       y       z     vdW  Elec       q    Type
REMARK                         _______ _______ _______ _____ _____    ______ ____
ROOT
ATOM      1  C   UNL     1       3.711  -0.707  -0.038  0.00  0.00    +0.133 C 
ATOM      2  C   UNL     1       4.107  -1.096   1.390  0.00  0.00    +0.131 C 
ATOM      3  C   UNL     1       5.284  -2.057   1.272  0.00  0.00    -0.034 C 
ATOM      4  C   UNL     1       6.267  -1.536   1.996  0.00  0.00    -0.001 A 
ATOM      5  C   UNL     1       7.613  -2.035   2.322  0.00  0.00    +0.010 A 
ATOM      6  C   UNL     1       8.382  -1.223   3.095  0.00  0.00    +0.001 A 
ATOM      7  C   UNL     1       7.952   0.020   3.569  0.00  0.00    +0.002 A 
ATOM      8  C   UNL     1       6.730   0.555   3.322  0.00  0.00    +0.026 A 
ATOM      9  C   UNL     1       5.829  -0.209   2.524  0.00  0.00    +0.043 A 
ATOM     10  N   UNL     1       4.589   0.055   2.156  0.00  0.00    -0.375 N 
ATOM     11  C   UNL     1       5.237  -3.287   0.399  0.00  0.00    +0.065 C 
ATOM     12  C   UNL     1       4.737  -2.827  -0.983  0.00  0.00    +0.167 C 
ATOM     13  N   UNL     1       3.578  -1.954  -0.824  0.00  0.00    -0.279 N 
ATOM     14  C   UNL     1       2.385  -2.232  -1.361  0.00  0.00    +0.234 C 
ATOM     15  O   UNL     1       1.479  -1.452  -1.155  0.00  0.00    -0.274 OA
ATOM     16  C   UNL     1       2.089  -3.433  -2.197  0.00  0.00    +0.203 C 
ATOM     17  N   UNL     1       3.257  -4.279  -2.375  0.00  0.00    -0.291 N 
ATOM     18  C   UNL     1       4.445  -4.019  -1.833  0.00  0.00    +0.237 C 
ATOM     19  O   UNL     1       5.350  -4.797  -2.049  0.00  0.00    -0.274 OA
ATOM     20  H   UNL     1       4.084   0.860   2.348  0.00  0.00    +0.160 HD
ENDROOT
BRANCH   1  24
ATOM     21  C   UNL     1      -0.016   1.380   0.013  0.00  0.00    +0.000 A 
ATOM     22  C   UNL     1       0.235   0.390   0.945  0.00  0.00    +0.000 A 
ATOM     23  C   UNL     1       1.441  -0.285   0.929  0.00  0.00    +0.005 A 
ATOM     24  C   UNL     1       2.396   0.029  -0.020  0.00  0.00    -0.025 A 
ATOM     25  C   UNL     1       2.145   1.018  -0.953  0.00  0.00    +0.005 A 
ATOM     26  C   UNL     1       0.939   1.694  -0.935  0.00  0.00    +0.000 A 
ENDBRANCH   1  24
BRANCH  17  27
ATOM     27  C   UNL     1       3.118  -5.487  -3.192  0.00  0.00    +0.110 C 
BRANCH  27  28
ATOM     28  C   UNL     1       3.436  -5.155  -4.652  0.00  0.00    +0.040 C 
BRANCH  28  29
ATOM     29  C   UNL     1       3.291  -6.417  -5.505  0.00  0.00    +0.124 C 
BRANCH  29  30
ATOM     30  N   UNL     1       3.595  -6.098  -6.902  0.00  0.00    -0.338 N 
ATOM     31  C   UNL     1       2.705  -5.675  -7.852  0.00  0.00    +0.104 A 
ATOM     32  C   UNL     1       3.403  -5.500  -8.990  0.00  0.00    +0.101 A 
ATOM     33  N   UNL     1       4.685  -5.808  -8.743  0.00  0.00    -0.352 N 
ATOM     34  C   UNL     1       4.808  -6.162  -7.493  0.00  0.00    +0.173 A 
ATOM     35  H   UNL     1       5.406  -5.770  -9.389  0.00  0.00    +0.166 HD
ENDBRANCH  29  30
ENDBRANCH  28  29
ENDBRANCH  27  28
ENDBRANCH  17  27
TORSDOF 5
