REMARK  Name = ZINC08725220
REMARK  6 active torsions:
REMARK  status: ('A' for Active; 'I' for Inactive)
REMARK    1  A    between atoms: C_1  and  C_2
REMARK    2  A    between atoms: C_12  and  C_14
REMARK    3  A    between atoms: C_15  and  C_24
REMARK    4  A    between atoms: C_16  and  C_21
REMARK    5  A    between atoms: C_17  and  C_20
REMARK    6  A    between atoms: C_21  and  C_23
REMARK                            x       y       z     vdW  Elec       q    Type
REMARK                         _______ _______ _______ _____ _____    ______ ____
ROOT
ATOM      1  C   UNL     1      -0.904   2.839   0.977  0.00  0.00    +0.044 C 
ATOM      2  C   UNL     1       0.338   1.996   0.838  0.00  0.00    -0.049 A 
ATOM      3  C   UNL     1       1.578   2.595   0.687  0.00  0.00    +0.005 A 
ATOM      4  C   UNL     1       2.721   1.844   0.553  0.00  0.00    +0.027 A 
ATOM      5  C   UNL     1       2.664   0.440   0.565  0.00  0.00    +0.062 A 
ATOM      6  C   UNL     1       1.398  -0.135   0.719  0.00  0.00    +0.040 A 
ATOM      7  C   UNL     1       0.253   0.615   0.853  0.00  0.00    +0.020 A 
ATOM      8  S   UNL     1       1.734  -1.879   0.685  0.00  0.00    -0.049 S 
ATOM      9  C   UNL     1       3.497  -1.782   0.474  0.00  0.00    +0.179 A 
ATOM     10  N   UNL     1       3.746  -0.441   0.439  0.00  0.00    -0.293 N 
ATOM     11  C   UNL     1       5.124  -0.329   0.274  0.00  0.00    +0.123 A 
ATOM     12  C   UNL     1       5.630  -1.586   0.218  0.00  0.00    +0.107 A 
ATOM     13  N   UNL     1       4.603  -2.456   0.345  0.00  0.00    -0.220 NA
ENDROOT
BRANCH  12  14
ATOM     14  C   UNL     1       7.056  -1.943   0.049  0.00  0.00    +0.070 A 
ATOM     15  C   UNL     1       7.633  -3.102   0.455  0.00  0.00    -0.013 A 
ATOM     16  C   UNL     1       9.048  -3.010   0.079  0.00  0.00    +0.041 A 
ATOM     17  C   UNL     1       9.204  -1.780  -0.533  0.00  0.00    +0.024 A 
ATOM     18  N   UNL     1       8.010  -1.158  -0.548  0.00  0.00    -0.356 N 
ATOM     19  H   UNL     1       7.848  -0.279  -0.926  0.00  0.00    +0.166 HD
ATOM     20  C   UNL     1      10.490  -1.230  -1.092  0.00  0.00    +0.064 C 
ATOM     21  C   UNL     1       6.956  -4.254   1.152  0.00  0.00    +0.047 C 
BRANCH  16  22
ATOM     22  C   UNL     1      10.086  -4.019   0.305  0.00  0.00    +0.162 C 
ATOM     23  O   UNL     1      10.709  -4.025   1.347  0.00  0.00    -0.292 OA
ATOM     24  C   UNL     1      10.381  -5.048  -0.755  0.00  0.00    +0.091 C 
ENDBRANCH  16  22
ENDBRANCH  12  14
TORSDOF 2
