REMARK  Name = ZINC63204592
REMARK  5 active torsions:
REMARK  status: ('A' for Active; 'I' for Inactive)
REMARK    1  A    between atoms: C_7  and  C_10
REMARK    2  A    between atoms: C_10  and  C_11
REMARK    3  A    between atoms: C_11  and  C_13
REMARK    4  A    between atoms: C_11  and  N_27
REMARK    5  A    between atoms: C_28  and  C_30
REMARK                            x       y       z     vdW  Elec       q    Type
REMARK                         _______ _______ _______ _____ _____    ______ ____
ROOT
ATOM      1  C   UNL     1       0.462  -3.645  -1.445  0.00  0.00    +0.163 C 
ENDROOT
BRANCH   1   2
ATOM      2  C   UNL     1      -0.270  -4.963  -1.446  0.00  0.00    +0.236 C 
ATOM      3  O   UNL     1      -1.446  -5.003  -1.741  0.00  0.00    -0.274 OA
ATOM      4  N   UNL     1       0.382  -6.096  -1.119  0.00  0.00    -0.297 N 
ATOM      5  C   UNL     1       1.774  -6.050  -0.651  0.00  0.00    +0.127 C 
ATOM      6  C   UNL     1       1.857  -6.754   0.709  0.00  0.00    +0.125 C 
ATOM      7  N   UNL     1       1.188  -8.059   0.604  0.00  0.00    -0.314 N 
ATOM      8  C   UNL     1      -0.204  -8.105   0.135  0.00  0.00    +0.125 C 
ATOM      9  C   UNL     1      -0.289  -7.400  -1.219  0.00  0.00    +0.127 C 
ATOM     10  C   UNL     1       1.861  -9.228   0.941  0.00  0.00    +0.099 A 
ATOM     11  C   UNL     1       3.210  -9.175   1.276  0.00  0.00    +0.042 A 
ATOM     12  C   UNL     1       3.866 -10.346   1.609  0.00  0.00    +0.005 A 
ATOM     13  C   UNL     1       3.149 -11.535   1.596  0.00  0.00    +0.018 A 
ATOM     14  C   UNL     1       1.812 -11.514   1.254  0.00  0.00    +0.084 A 
ATOM     15  N   UNL     1       1.210 -10.381   0.945  0.00  0.00    -0.350 N 
ATOM     16  H   UNL     1       0.268 -10.393   0.712  0.00  0.00    +0.166 HD
ENDBRANCH   1   2
BRANCH   1  17
ATOM     17  N   UNL     1      -0.209  -2.712  -2.353  0.00  0.00    -0.300 N 
ATOM     18  C   UNL     1       0.482  -1.698  -2.910  0.00  0.00    +0.246 C 
ATOM     19  O   UNL     1       1.663  -1.557  -2.657  0.00  0.00    -0.270 OA
ATOM     20  H   UNL     1      -1.151  -2.825  -2.555  0.00  0.00    +0.150 HD
BRANCH  18  21
ATOM     21  C   UNL     1      -0.195  -0.757  -3.826  0.00  0.00    +0.055 A 
ATOM     22  C   UNL     1      -1.552  -0.913  -4.114  0.00  0.00    +0.014 A 
ATOM     23  C   UNL     1      -2.178  -0.031  -4.970  0.00  0.00    +0.001 A 
ATOM     24  C   UNL     1      -1.464   1.006  -5.544  0.00  0.00    +0.001 A 
ATOM     25  C   UNL     1      -0.119   1.167  -5.265  0.00  0.00    +0.021 A 
ATOM     26  C   UNL     1       0.519   0.295  -4.405  0.00  0.00    +0.053 A 
ATOM     27 CL   UNL     1       2.206   0.502  -4.049  0.00  0.00    -0.083 Cl
ENDBRANCH  18  21
ENDBRANCH   1  17
BRANCH   1  28
ATOM     28  C   UNL     1       0.465  -3.065  -0.029  0.00  0.00    +0.065 C 
BRANCH  28  35
ATOM     29  C   UNL     1      -0.550   1.391  -0.438  0.00  0.00    +0.001 A 
ATOM     30  C   UNL     1       0.567   2.233  -0.349  0.00  0.00    +0.002 A 
ATOM     31  C   UNL     1       1.819   1.765  -0.159  0.00  0.00    +0.026 A 
ATOM     32  C   UNL     1       2.054   0.367  -0.041  0.00  0.00    +0.043 A 
ATOM     33  N   UNL     1       3.155  -0.320   0.142  0.00  0.00    -0.380 N 
ATOM     34  C   UNL     1       2.813  -1.746   0.188  0.00  0.00    +0.144 C 
ATOM     35  C   UNL     1       1.314  -1.820   0.002  0.00  0.00    -0.039 C 
ATOM     36  C   UNL     1       0.890  -0.543  -0.132  0.00  0.00    -0.001 A 
ATOM     37  C   UNL     1      -0.438   0.047  -0.339  0.00  0.00    +0.010 A 
ATOM     38  H   UNL     1       4.046   0.051   0.232  0.00  0.00    +0.160 HD
ENDBRANCH  28  35
ENDBRANCH   1  28
TORSDOF 5
