REMARK  Name = ZINC16678051
REMARK  2 active torsions:
REMARK  status: ('A' for Active; 'I' for Inactive)
REMARK    1  A    between atoms: C_1  and  C_2
REMARK    2  A    between atoms: C_3  and  N_13
REMARK                            x       y       z     vdW  Elec       q    Type
REMARK                         _______ _______ _______ _____ _____    ______ ____
ROOT
ATOM      1  C   UNL     1      -1.326  -0.717   0.040  0.00  0.00    +0.068 C 
ATOM      2  C   UNL     1      -0.009   0.015   0.016  0.00  0.00    +0.071 A 
ATOM      3  C   UNL     1       1.151  -0.687  -0.276  0.00  0.00    +0.148 A 
ATOM      4  C   UNL     1       2.361  -0.020  -0.298  0.00  0.00    +0.047 A 
ATOM      5  C   UNL     1       2.361   1.350  -0.023  0.00  0.00    +0.034 A 
ATOM      6  C   UNL     1       3.400   2.378   0.049  0.00  0.00    +0.040 A 
ATOM      7  C   UNL     1       2.786   3.531   0.361  0.00  0.00    +0.099 A 
ATOM      8  N   UNL     1       1.439   3.321   0.493  0.00  0.00    -0.345 N 
ATOM      9  H   UNL     1       0.789   4.005   0.716  0.00  0.00    +0.167 HD
ATOM     10  C   UNL     1       1.145   1.998   0.265  0.00  0.00    +0.140 A 
ATOM     11  N   UNL     1       0.013   1.306   0.272  0.00  0.00    -0.232 NA
ATOM     12  I   UNL     1       5.452   2.104  -0.271  0.00  0.00    -0.042 I 
ENDROOT
BRANCH   3  13
ATOM     13  N   UNL     1       1.093  -2.139  -0.559  0.00  0.00    +0.058 N 
ATOM     14  O   UNL     1       2.123  -2.773  -0.699  0.00  0.00    -0.126 OA
ATOM     15  O   UNL     1       0.016  -2.698  -0.654  0.00  0.00    -0.126 OA
ENDBRANCH   3  13
TORSDOF 1
