REMARK  Name = ZINC36564788
REMARK  18 active torsions:
REMARK  status: ('A' for Active; 'I' for Inactive)
REMARK    1  A    between atoms: C_1  and  C_2
REMARK    2  A    between atoms: C_2  and  C_3
REMARK    3  A    between atoms: C_3  and  C_4
REMARK    4  A    between atoms: C_4  and  C_5
REMARK    5  A    between atoms: C_5  and  C_7
REMARK    6  A    between atoms: C_5  and  C_9
REMARK    7  A    between atoms: C_7  and  C_8
REMARK    8  A    between atoms: N_11  and  C_12
REMARK    9  A    between atoms: N_11  and  C_15
REMARK   10  A    between atoms: C_12  and  C_13
REMARK   11  A    between atoms: C_13  and  C_14
REMARK   12  A    between atoms: C_15  and  C_17
REMARK   13  A    between atoms: C_15  and  C_26
REMARK   14  A    between atoms: C_20  and  N_23
REMARK   15  A    between atoms: N_28  and  C_29
REMARK   16  A    between atoms: C_29  and  S_30
REMARK   17  A    between atoms: S_30  and  C_33
REMARK   18  A    between atoms: C_36  and  C_39
REMARK                            x       y       z     vdW  Elec       q    Type
REMARK                         _______ _______ _______ _____ _____    ______ ____
ROOT
ATOM      1  C   UNL     1       2.321  -6.141  -4.838  0.00  0.00    +0.192 C 
ENDROOT
BRANCH   1   2
ATOM      2  C   UNL     1       1.859  -5.926  -6.255  0.00  0.00    -0.018 A 
ATOM      3  C   UNL     1       2.168  -4.749  -6.912  0.00  0.00    +0.008 A 
ATOM      4  C   UNL     1       1.744  -4.552  -8.213  0.00  0.00    +0.033 A 
ATOM      5  C   UNL     1       1.010  -5.531  -8.857  0.00  0.00    +0.126 A 
ATOM      6  C   UNL     1       0.701  -6.707  -8.200  0.00  0.00    +0.033 A 
ATOM      7  C   UNL     1       1.129  -6.907  -6.901  0.00  0.00    +0.008 A 
BRANCH   5   8
ATOM      8  N   UNL     1       0.555  -5.319 -10.249  0.00  0.00    +0.056 N 
ATOM      9  O   UNL     1       0.825  -4.289 -10.823  0.00  0.00    -0.126 OA
ATOM     10  O   UNL     1      -0.087  -6.175 -10.812  0.00  0.00    -0.126 OA
ENDBRANCH   5   8
ENDBRANCH   1   2
BRANCH   1  11
ATOM     11  C   UNL     1       3.805  -6.406  -4.828  0.00  0.00    +0.239 C 
ATOM     12  O   UNL     1       4.535  -5.741  -4.124  0.00  0.00    -0.273 OA
ATOM     13  N   UNL     1       4.320  -7.382  -5.602  0.00  0.00    -0.294 N 
ATOM     14  H   UNL     1       3.736  -7.913  -6.165  0.00  0.00    +0.150 HD
BRANCH  13  15
ATOM     15  C   UNL     1       5.762  -7.639  -5.592  0.00  0.00    +0.278 C 
BRANCH  15  16
ATOM     16  S   UNL     1       6.131  -8.972  -4.418  0.00  0.00    +0.013 S 
ATOM     17  O   UNL     1       7.519  -9.277  -4.444  0.00  0.00    -0.168 OA
ATOM     18  O   UNL     1       5.464  -8.736  -3.186  0.00  0.00    -0.168 OA
BRANCH  16  19
ATOM     19  C   UNL     1       5.345 -10.398  -5.090  0.00  0.00    +0.090 A 
ATOM     20  C   UNL     1       4.038 -10.693  -4.748  0.00  0.00    +0.027 A 
ATOM     21  C   UNL     1       3.421 -11.812  -5.275  0.00  0.00    +0.005 A 
ATOM     22  C   UNL     1       4.111 -12.636  -6.145  0.00  0.00    -0.050 A 
ATOM     23  C   UNL     1       5.417 -12.341  -6.487  0.00  0.00    +0.005 A 
ATOM     24  C   UNL     1       6.032 -11.219  -5.963  0.00  0.00    +0.027 A 
ATOM     25  C   UNL     1       3.438 -13.857  -6.719  0.00  0.00    +0.044 C 
ENDBRANCH  16  19
ENDBRANCH  15  16
ENDBRANCH  13  15
ENDBRANCH   1  11
BRANCH   1  28
ATOM     26  C   UNL     1       0.801  -4.754  -3.532  0.00  0.00    +0.220 C 
ATOM     27  O   UNL     1      -0.096  -5.521  -3.813  0.00  0.00    -0.275 OA
ATOM     28  N   UNL     1       2.034  -4.944  -4.043  0.00  0.00    -0.286 N 
BRANCH  26  29
ATOM     29  C   UNL     1       0.537  -3.590  -2.613  0.00  0.00    +0.075 C 
BRANCH  29  30
ATOM     30  C   UNL     1      -0.451  -4.013  -1.525  0.00  0.00    +0.009 C 
ATOM     31  C   UNL     1       0.226  -5.007  -0.579  0.00  0.00    +0.004 C 
ENDBRANCH  29  30
BRANCH  29  32
ATOM     32  C   UNL     1      -0.054  -2.430  -3.416  0.00  0.00    +0.013 C 
BRANCH  32  33
ATOM     33  C   UNL     1      -0.206  -1.207  -2.510  0.00  0.00    +0.000 C 
BRANCH  33  35
ATOM     34  C   UNL     1      -0.950   1.176  -2.406  0.00  0.00    +0.004 C 
ATOM     35  C   UNL     1      -0.798  -0.047  -3.313  0.00  0.00    -0.003 C 
ENDBRANCH  33  35
ENDBRANCH  32  33
ENDBRANCH  29  32
ENDBRANCH  26  29
BRANCH  28  36
ATOM     36  C   UNL     1       3.086  -3.954  -3.803  0.00  0.00    +0.108 C 
BRANCH  36  37
ATOM     37  C   UNL     1       3.677  -4.165  -2.408  0.00  0.00    +0.016 C 
ATOM     38  C   UNL     1       4.882  -3.241  -2.219  0.00  0.00    +0.005 C 
ENDBRANCH  36  37
ENDBRANCH  28  36
ENDBRANCH   1  28
TORSDOF 14
