REMARK  Name = ZINC50360330
REMARK  7 active torsions:
REMARK  status: ('A' for Active; 'I' for Inactive)
REMARK    1  A    between atoms: C_1  and  C_2
REMARK    2  A    between atoms: C_2  and  C_3
REMARK    3  A    between atoms: N_5  and  C_6
REMARK    4  A    between atoms: C_10  and  N_13
REMARK    5  A    between atoms: C_11  and  C_12
REMARK    6  A    between atoms: N_13  and  C_14
REMARK    7  A    between atoms: C_14  and  C_15
REMARK                            x       y       z     vdW  Elec       q    Type
REMARK                         _______ _______ _______ _____ _____    ______ ____
ROOT
ATOM      1  C   UNL     1      -2.966  -2.289   0.111  0.00  0.00    +0.038 A 
ATOM      2  C   UNL     1      -4.003  -1.365   0.112  0.00  0.00    +0.024 A 
ATOM      3  C   UNL     1      -5.312  -1.794   0.214  0.00  0.00    +0.004 A 
ATOM      4  C   UNL     1      -5.595  -3.142   0.314  0.00  0.00    +0.023 A 
ATOM      5  C   UNL     1      -4.562  -4.072   0.313  0.00  0.00    +0.032 A 
ATOM      6  C   UNL     1      -3.246  -3.644   0.205  0.00  0.00    -0.008 A 
ATOM      7  C   UNL     1      -2.124  -4.650   0.198  0.00  0.00    +0.047 C 
ENDROOT
BRANCH   1  10
ATOM      8  C   UNL     1      -1.363  -0.670  -0.574  0.00  0.00    +0.217 C 
ATOM      9  O   UNL     1      -2.249  -0.029  -1.098  0.00  0.00    -0.275 OA
ATOM     10  N   UNL     1      -1.640  -1.854   0.008  0.00  0.00    -0.285 N 
ATOM     11  H   UNL     1      -0.921  -2.404   0.355  0.00  0.00    +0.155 HD
BRANCH   8  13
ATOM     12  C   UNL     1       0.090   1.206  -1.294  0.00  0.00    +0.013 C 
ATOM     13  C   UNL     1       0.049  -0.144  -0.575  0.00  0.00    +0.093 C 
ENDBRANCH   8  13
ENDBRANCH   1  10
BRANCH   5  14
ATOM     14  N   UNL     1      -4.849  -5.435   0.414  0.00  0.00    -0.336 N 
ATOM     15  H   UNL     1      -4.127  -6.084   0.414  0.00  0.00    +0.147 HD
BRANCH  14  16
ATOM     16  C   UNL     1      -6.239  -5.886   0.522  0.00  0.00    +0.176 C 
BRANCH  16  17
ATOM     17  C   UNL     1      -6.273  -7.389   0.618  0.00  0.00    +0.124 A 
ATOM     18  C   UNL     1      -6.234  -8.106   1.756  0.00  0.00    +0.062 A 
ATOM     19  C   UNL     1      -6.290  -9.469   1.384  0.00  0.00    +0.070 A 
ATOM     20  C   UNL     1      -6.359  -9.504   0.040  0.00  0.00    +0.184 A 
ATOM     21  O   UNL     1      -6.354  -8.241  -0.418  0.00  0.00    -0.450 OA
ATOM     22 BR   UNL     1      -6.455 -11.065  -1.023  0.00  0.00    -0.007 Br
ATOM     23 BR   UNL     1      -6.270 -10.957   2.550  0.00  0.00    -0.046 Br
ENDBRANCH  16  17
ENDBRANCH  14  16
ENDBRANCH   5  14
TORSDOF 5
