REMARK  Name = ZINC36533892
REMARK  13 active torsions:
REMARK  status: ('A' for Active; 'I' for Inactive)
REMARK    1  A    between atoms: C_1  and  C_2
REMARK    2  A    between atoms: C_5  and  S_8
REMARK    3  A    between atoms: S_8  and  C_11
REMARK    4  A    between atoms: C_11  and  N_12
REMARK    5  A    between atoms: C_13  and  C_15
REMARK    6  A    between atoms: C_15  and  C_17
REMARK    7  A    between atoms: C_15  and  N_24
REMARK    8  A    between atoms: C_22  and  O_23
REMARK    9  A    between atoms: N_24  and  C_25
REMARK   10  A    between atoms: C_26  and  C_28
REMARK   11  A    between atoms: C_28  and  C_29
REMARK   12  A    between atoms: C_29  and  C_31
REMARK   13  A    between atoms: C_29  and  C_32
REMARK                            x       y       z     vdW  Elec       q    Type
REMARK                         _______ _______ _______ _____ _____    ______ ____
ROOT
ATOM      1  C   UNL     1       3.164  -4.859   3.507  0.00  0.00    +0.195 C 
ENDROOT
BRANCH   1   2
ATOM      2  C   UNL     1       4.474  -4.202   3.158  0.00  0.00    +0.023 A 
ATOM      3  C   UNL     1       5.096  -4.494   1.960  0.00  0.00    +0.009 A 
ATOM      4  C   UNL     1       6.299  -3.892   1.639  0.00  0.00    +0.001 A 
ATOM      5  C   UNL     1       6.882  -2.996   2.517  0.00  0.00    +0.004 A 
ATOM      6  C   UNL     1       6.264  -2.700   3.716  0.00  0.00    +0.046 A 
ATOM      7  C   UNL     1       5.054  -3.299   4.037  0.00  0.00    +0.122 A 
BRANCH   7   8
ATOM      8  O   UNL     1       4.441  -3.006   5.214  0.00  0.00    -0.506 OA
ATOM      9  H   UNL     1       4.699  -3.582   5.947  0.00  0.00    +0.292 HD
ENDBRANCH   7   8
ENDBRANCH   1   2
BRANCH   1  11
ATOM     10  N   UNL     1       2.242  -4.639   1.222  0.00  0.00    -0.294 N 
ATOM     11  C   UNL     1       2.546  -5.441   2.262  0.00  0.00    +0.239 C 
ATOM     12  O   UNL     1       2.323  -6.631   2.195  0.00  0.00    -0.273 OA
ATOM     13  H   UNL     1       2.420  -3.687   1.276  0.00  0.00    +0.150 HD
BRANCH  10  14
ATOM     14  C   UNL     1       1.641  -5.204   0.012  0.00  0.00    +0.278 C 
BRANCH  14  15
ATOM     15  S   UNL     1      -0.164  -5.048   0.102  0.00  0.00    +0.013 S 
ATOM     16  O   UNL     1      -0.630  -5.483   1.372  0.00  0.00    -0.168 OA
ATOM     17  O   UNL     1      -0.757  -5.535  -1.094  0.00  0.00    -0.168 OA
BRANCH  15  22
ATOM     18  C   UNL     1      -1.213   0.893   0.029  0.00  0.00    +0.044 C 
ATOM     19  C   UNL     1      -0.951  -0.590   0.048  0.00  0.00    -0.050 A 
ATOM     20  C   UNL     1      -0.891  -1.296  -1.139  0.00  0.00    +0.005 A 
ATOM     21  C   UNL     1      -0.651  -2.657  -1.123  0.00  0.00    +0.027 A 
ATOM     22  C   UNL     1      -0.469  -3.313   0.081  0.00  0.00    +0.090 A 
ATOM     23  C   UNL     1      -0.527  -2.607   1.268  0.00  0.00    +0.027 A 
ATOM     24  C   UNL     1      -0.764  -1.245   1.251  0.00  0.00    +0.005 A 
ENDBRANCH  15  22
ENDBRANCH  14  15
ENDBRANCH  10  14
ENDBRANCH   1  11
BRANCH   1  25
ATOM     25  N   UNL     1       3.397  -5.927   4.482  0.00  0.00    -0.289 N 
ATOM     26  C   UNL     1       4.370  -6.983   4.192  0.00  0.00    +0.133 C 
ATOM     27  C   UNL     1       2.717  -5.939   5.645  0.00  0.00    +0.217 C 
ATOM     28  O   UNL     1       1.911  -5.065   5.885  0.00  0.00    -0.276 OA
BRANCH  27  29
ATOM     29  C   UNL     1       2.957  -7.038   6.647  0.00  0.00    +0.104 C 
BRANCH  29  30
ATOM     30  C   UNL     1       2.064  -6.817   7.870  0.00  0.00    +0.025 C 
ATOM     31  C   UNL     1       2.480  -5.526   8.578  0.00  0.00    +0.013 C 
BRANCH  30  32
ATOM     32  C   UNL     1       2.213  -7.980   8.818  0.00  0.00    -0.044 A 
ATOM     33  C   UNL     1       3.450  -8.274   9.361  0.00  0.00    +0.004 A 
ATOM     34  C   UNL     1       3.586  -9.340  10.230  0.00  0.00    +0.000 A 
ATOM     35  C   UNL     1       2.487 -10.112  10.556  0.00  0.00    +0.000 A 
ATOM     36  C   UNL     1       1.250  -9.817  10.013  0.00  0.00    +0.000 A 
ATOM     37  C   UNL     1       1.113  -8.748   9.148  0.00  0.00    +0.004 A 
ENDBRANCH  30  32
ENDBRANCH  29  30
ENDBRANCH  27  29
ENDBRANCH   1  25
TORSDOF 10
