REMARK  Name = ZINC20696045
REMARK  8 active torsions:
REMARK  status: ('A' for Active; 'I' for Inactive)
REMARK    1  A    between atoms: C_2  and  C_3
REMARK    2  A    between atoms: C_3  and  N_4
REMARK    3  A    between atoms: N_4  and  C_5
REMARK    4  A    between atoms: N_4  and  S_8
REMARK    5  A    between atoms: C_5  and  C_6
REMARK    6  A    between atoms: S_8  and  C_11
REMARK    7  A    between atoms: C_24  and  C_27
REMARK    8  A    between atoms: C_32  and  O_33
REMARK                            x       y       z     vdW  Elec       q    Type
REMARK                         _______ _______ _______ _____ _____    ______ ____
ROOT
ATOM      1  C   UNL     1       6.849  -1.219  -2.171  0.00  0.00    +0.106 A 
ATOM      2  C   UNL     1       7.165  -1.193  -0.825  0.00  0.00    +0.030 A 
ATOM      3  C   UNL     1       6.478  -0.360   0.033  0.00  0.00    +0.025 A 
ATOM      4  C   UNL     1       5.462   0.459  -0.448  0.00  0.00    +0.031 A 
ATOM      5  C   UNL     1       5.136   0.415  -1.808  0.00  0.00    -0.018 A 
ATOM      6  C   UNL     1       5.835  -0.415  -2.658  0.00  0.00    +0.034 A 
ATOM      7  C   UNL     1       4.017   1.264  -2.269  0.00  0.00    +0.049 C 
ATOM      8  C   UNL     1       3.919   1.745  -3.670  0.00  0.00    -0.023 C 
ATOM      9  C   UNL     1       3.306   2.923  -3.671  0.00  0.00    -0.030 C 
ATOM     10  C   UNL     1       2.972   3.341  -2.238  0.00  0.00    +0.033 C 
ATOM     11  C   UNL     1       4.041   2.582  -1.439  0.00  0.00    +0.029 C 
ATOM     12  C   UNL     1       3.682   2.174  -0.021  0.00  0.00    +0.108 C 
ATOM     13  N   UNL     1       4.790   1.309   0.439  0.00  0.00    -0.336 N 
ATOM     14  H   UNL     1       5.100   1.326   1.494  0.00  0.00    +0.147 HD
ENDROOT
BRANCH  12  15
ATOM     15  C   UNL     1       2.385   1.406  -0.013  0.00  0.00    +0.015 A 
ATOM     16  C   UNL     1       2.399   0.025  -0.021  0.00  0.00    +0.024 A 
ATOM     17  C   UNL     1       1.209  -0.680  -0.014  0.00  0.00    +0.018 A 
ATOM     18  C   UNL     1       0.002  -0.004   0.002  0.00  0.00    +0.019 A 
ATOM     19  C   UNL     1      -0.017   1.377   0.010  0.00  0.00    +0.047 A 
ATOM     20  C   UNL     1       1.176   2.086   0.002  0.00  0.00    +0.122 A 
ATOM     21 BR   UNL     1       1.232  -2.571  -0.025  0.00  0.00    -0.050 Br
BRANCH  20  22
ATOM     22  O   UNL     1       1.160   3.445   0.009  0.00  0.00    -0.506 OA
ATOM     23  H   UNL     1       0.201   3.984   0.021  0.00  0.00    +0.292 HD
ENDBRANCH  20  22
ENDBRANCH  12  15
BRANCH   1  24
ATOM     24  S   UNL     1       7.737  -2.277  -3.265  0.00  0.00    +0.061 S 
ATOM     25  O   UNL     1       8.269  -3.329  -2.471  0.00  0.00    -0.153 OA
ATOM     26  O   UNL     1       6.886  -2.518  -4.377  0.00  0.00    -0.153 OA
BRANCH  24  27
ATOM     27  N   UNL     1       9.030  -1.416  -3.837  0.00  0.00    -0.169 NA
BRANCH  27  28
ATOM     28  C   UNL     1      10.307  -1.447  -3.119  0.00  0.00    +0.136 C 
BRANCH  28  30
ATOM     29  C   UNL     1      12.397  -2.180  -4.145  0.00  0.00    +0.005 C 
ATOM     30  C   UNL     1      11.198  -2.500  -3.725  0.00  0.00    -0.018 C 
ENDBRANCH  28  30
ENDBRANCH  27  28
BRANCH  27  31
ATOM     31  C   UNL     1       8.898  -0.622  -5.061  0.00  0.00    +0.136 C 
BRANCH  31  32
ATOM     32  C   UNL     1       8.566   0.804  -4.702  0.00  0.00    -0.018 C 
ATOM     33  C   UNL     1       9.316   1.782  -5.144  0.00  0.00    +0.005 C 
ENDBRANCH  31  32
ENDBRANCH  27  31
ENDBRANCH  24  27
ENDBRANCH   1  24
TORSDOF 8
