REMARK  Name = ZINC09184431
REMARK  8 active torsions:
REMARK  status: ('A' for Active; 'I' for Inactive)
REMARK    1  A    between atoms: C_1  and  C_2
REMARK    2  A    between atoms: C_7  and  C_18
REMARK    3  A    between atoms: C_12  and  C_13
REMARK    4  A    between atoms: C_13  and  C_14
REMARK    5  A    between atoms: C_14  and  O_16
REMARK    6  A    between atoms: O_16  and  C_17
REMARK    7  A    between atoms: C_22  and  C_23
REMARK    8  A    between atoms: C_22  and  N_53
REMARK                            x       y       z     vdW  Elec       q    Type
REMARK                         _______ _______ _______ _____ _____    ______ ____
ROOT
ATOM      1  C   UNL     1       2.967   1.995   0.433  0.00  0.00    +0.045 C 
ATOM      2  C   UNL     1       1.791   1.089   0.693  0.00  0.00    -0.029 A 
ATOM      3  C   UNL     1       1.945  -0.367   0.680  0.00  0.00    +0.021 A 
ATOM      4  C   UNL     1       3.186  -0.959   0.427  0.00  0.00    +0.017 A 
ATOM      5  C   UNL     1       3.305  -2.321   0.419  0.00  0.00    -0.021 A 
ATOM      6  C   UNL     1       2.195  -3.124   0.664  0.00  0.00    +0.125 A 
ATOM      7  C   UNL     1       0.956  -2.553   0.917  0.00  0.00    +0.034 A 
ATOM      8  C   UNL     1       0.819  -1.174   0.927  0.00  0.00    +0.146 A 
ATOM      9  O   UNL     1      -0.379  -0.600   1.171  0.00  0.00    -0.422 OA
ATOM     10  C   UNL     1      -0.527   0.734   1.184  0.00  0.00    +0.341 A 
ATOM     11  O   UNL     1      -1.628   1.207   1.404  0.00  0.00    -0.245 OA
ATOM     12  C   UNL     1       0.558   1.602   0.944  0.00  0.00    +0.051 A 
ATOM     13  C   UNL     1      -0.240  -3.431   1.179  0.00  0.00    +0.051 C 
ATOM     14  O   UNL     1       2.304  -4.479   0.661  0.00  0.00    -0.509 OA
ATOM     15  C   UNL     1       3.470  -5.037   0.051  0.00  0.00    +0.157 C 
ATOM     16  C   UNL     1       4.653  -2.936   0.138  0.00  0.00    -0.034 C 
ATOM     17  N   UNL     1       4.650  -4.337   0.600  0.00  0.00    +0.407 N 
ATOM     18  H   UNL     1       4.602  -4.352   1.625  0.00  0.00    -0.076 HD
ENDROOT
BRANCH  12  19
ATOM     19  C   UNL     1       0.351   3.095   0.967  0.00  0.00    +0.163 C 
BRANCH  19  20
ATOM     20  C   UNL     1       0.574   3.612   2.365  0.00  0.00    +0.311 C 
ATOM     21  O   UNL     1       0.871   2.846   3.252  0.00  0.00    -0.250 OA
BRANCH  20  22
ATOM     22  O   UNL     1       0.443   4.922   2.625  0.00  0.00    -0.468 OA
ATOM     23  C   UNL     1       0.673   5.349   3.993  0.00  0.00    +0.280 C 
ENDBRANCH  20  22
ENDBRANCH  19  20
ENDBRANCH  12  19
BRANCH  17  24
ATOM     24  C   UNL     1       5.891  -5.017   0.166  0.00  0.00    -0.042 C 
BRANCH  24  25
ATOM     25  C   UNL     1       7.100  -4.209   0.643  0.00  0.00    +0.102 C 
ATOM     26  C   UNL     1       8.404  -4.934   0.247  0.00  0.00    +0.032 C 
ATOM     27  C   UNL     1       9.301  -4.702   1.493  0.00  0.00    +0.030 C 
ATOM     28  C   UNL     1       8.244  -4.735   2.626  0.00  0.00    +0.160 C 
ATOM     29  O   UNL     1       7.080  -4.103   2.071  0.00  0.00    -0.378 OA
ENDBRANCH  24  25
ENDBRANCH  17  24
TORSDOF 5
