REMARK  Name = ZINC03468676
REMARK  10 active torsions:
REMARK  status: ('A' for Active; 'I' for Inactive)
REMARK    1  A    between atoms: C_1  and  C_2
REMARK    2  A    between atoms: C_6  and  C_27
REMARK    3  A    between atoms: C_7  and  N_8
REMARK    4  A    between atoms: C_9  and  C_11
REMARK    5  A    between atoms: C_11  and  S_12
REMARK    6  A    between atoms: S_12  and  C_13
REMARK    7  A    between atoms: C_16  and  C_19
REMARK    8  A    between atoms: N_17  and  N_18
REMARK    9  A    between atoms: C_27  and  C_28
REMARK   10  A    between atoms: C_27  and  C_29
REMARK                            x       y       z     vdW  Elec       q    Type
REMARK                         _______ _______ _______ _____ _____    ______ ____
ROOT
ATOM      1  S   UNL     1       0.139   1.165  -1.667  0.00  0.00    -0.075 S 
ENDROOT
BRANCH   1   2
ATOM      2  C   UNL     1       1.827   1.643  -1.503  0.00  0.00    +0.209 A 
ATOM      3  N   UNL     1       2.736   1.052  -0.760  0.00  0.00    -0.121 NA
ATOM      4  N   UNL     1       3.863   1.659  -0.876  0.00  0.00    -0.127 NA
ATOM      5  C   UNL     1       3.741   2.679  -1.693  0.00  0.00    +0.183 A 
ATOM      6  N   UNL     1       2.433   2.700  -2.120  0.00  0.00    -0.224 N 
BRANCH   5   7
ATOM      7  C   UNL     1       4.807   3.626  -2.081  0.00  0.00    +0.039 A 
ATOM      8  C   UNL     1       4.564   5.001  -2.067  0.00  0.00    +0.014 A 
ATOM      9  C   UNL     1       5.564   5.880  -2.425  0.00  0.00    +0.021 A 
ATOM     10  C   UNL     1       6.806   5.401  -2.809  0.00  0.00    +0.042 A 
ATOM     11  C   UNL     1       7.053   4.040  -2.831  0.00  0.00    +0.040 A 
ATOM     12  C   UNL     1       6.061   3.149  -2.470  0.00  0.00    +0.053 A 
ATOM     13 CL   UNL     1       6.372   1.442  -2.498  0.00  0.00    -0.083 Cl
ATOM     14 CL   UNL     1       8.058   6.515  -3.265  0.00  0.00    -0.083 Cl
ENDBRANCH   5   7
BRANCH   6  15
ATOM     15  N   UNL     1       1.860   3.593  -2.981  0.00  0.00    -0.295 N 
ATOM     16  H   UNL     1       1.414   4.345  -2.478  0.00  0.00    +0.163 HD
ATOM     17  H   UNL     1       2.539   3.949  -3.637  0.00  0.00    +0.163 HD
ENDBRANCH   6  15
ENDBRANCH   1   2
BRANCH   1  18
ATOM     18  C   UNL     1       0.114  -0.278  -0.575  0.00  0.00    +0.173 C 
BRANCH  18  20
ATOM     19  N   UNL     1      -1.530  -1.960   0.193  0.00  0.00    -0.284 N 
ATOM     20  C   UNL     1      -1.272  -0.871  -0.557  0.00  0.00    +0.228 C 
ATOM     21  O   UNL     1      -2.155  -0.367  -1.218  0.00  0.00    -0.275 OA
ATOM     22  H   UNL     1      -0.809  -2.405   0.666  0.00  0.00    +0.155 HD
BRANCH  19  29
ATOM     23  C   UNL     1      -3.596  -0.141   0.914  0.00  0.00    +0.045 C 
ATOM     24  C   UNL     1      -3.875  -1.597   0.639  0.00  0.00    -0.029 A 
ATOM     25  C   UNL     1      -5.165  -2.082   0.728  0.00  0.00    +0.005 A 
ATOM     26  C   UNL     1      -5.421  -3.418   0.481  0.00  0.00    +0.001 A 
ATOM     27  C   UNL     1      -4.389  -4.271   0.139  0.00  0.00    +0.006 A 
ATOM     28  C   UNL     1      -3.097  -3.791   0.043  0.00  0.00    -0.023 A 
ATOM     29  C   UNL     1      -2.837  -2.450   0.290  0.00  0.00    +0.040 A 
BRANCH  28  30
ATOM     30  C   UNL     1      -1.972  -4.722  -0.331  0.00  0.00    +0.015 C 
ATOM     31  C   UNL     1      -1.873  -5.843   0.705  0.00  0.00    +0.012 C 
ATOM     32  C   UNL     1      -2.246  -5.325  -1.710  0.00  0.00    +0.012 C 
ENDBRANCH  28  30
ENDBRANCH  19  29
ENDBRANCH  18  20
ENDBRANCH   1  18
TORSDOF 7
