REMARK  Name = ZINC01131320
REMARK  12 active torsions:
REMARK  status: ('A' for Active; 'I' for Inactive)
REMARK    1  A    between atoms: C_1  and  C_2
REMARK    2  A    between atoms: C_2  and  C_4
REMARK    3  A    between atoms: C_2  and  N_24
REMARK    4  A    between atoms: C_7  and  S_10
REMARK    5  A    between atoms: N_8  and  C_9
REMARK    6  A    between atoms: S_10  and  C_11
REMARK    7  A    between atoms: C_11  and  C_12
REMARK    8  A    between atoms: N_14  and  C_15
REMARK    9  A    between atoms: C_20  and  C_21
REMARK   10  A    between atoms: C_21  and  C_22
REMARK   11  A    between atoms: C_21  and  C_23
REMARK   12  A    between atoms: C_25  and  C_27
REMARK                            x       y       z     vdW  Elec       q    Type
REMARK                         _______ _______ _______ _____ _____    ______ ____
ROOT
ATOM      1  C   UNL     1       0.723  -0.442  -1.249  0.00  0.00    +0.154 A 
ATOM      2  N   UNL     1       0.246  -0.437  -2.461  0.00  0.00    -0.132 NA
ATOM      3  N   UNL     1       1.108  -0.930  -3.277  0.00  0.00    -0.122 NA
ATOM      4  C   UNL     1       2.192  -1.280  -2.623  0.00  0.00    +0.192 A 
ATOM      5  N   UNL     1       1.981  -0.974  -1.308  0.00  0.00    -0.308 N 
ATOM      6  C   UNL     1       2.910  -1.177  -0.194  0.00  0.00    +0.152 C 
ENDROOT
BRANCH   1   8
ATOM      7  C   UNL     1       0.012   1.583  -0.006  0.00  0.00    +0.036 C 
ATOM      8  C   UNL     1       0.021   0.053  -0.011  0.00  0.00    +0.138 C 
BRANCH   8   9
ATOM      9  N   UNL     1      -1.358  -0.443  -0.000  0.00  0.00    -0.302 N 
ATOM     10  C   UNL     1      -2.016  -0.578   1.168  0.00  0.00    +0.246 C 
ATOM     11  O   UNL     1      -1.466  -0.289   2.213  0.00  0.00    -0.270 OA
ATOM     12  H   UNL     1      -1.797  -0.673  -0.834  0.00  0.00    +0.150 HD
BRANCH  10  13
ATOM     13  C   UNL     1      -3.407  -1.078   1.179  0.00  0.00    +0.051 A 
ATOM     14  C   UNL     1      -4.040  -1.417  -0.019  0.00  0.00    +0.014 A 
ATOM     15  C   UNL     1      -5.338  -1.883  -0.002  0.00  0.00    +0.001 A 
ATOM     16  C   UNL     1      -6.013  -2.016   1.198  0.00  0.00    +0.001 A 
ATOM     17  C   UNL     1      -5.394  -1.683   2.389  0.00  0.00    +0.016 A 
ATOM     18  C   UNL     1      -4.092  -1.220   2.387  0.00  0.00    +0.030 A 
ATOM     19 BR   UNL     1      -3.243  -0.772   4.017  0.00  0.00    -0.050 Br
ENDBRANCH  10  13
ENDBRANCH   8   9
ENDBRANCH   1   8
BRANCH   4  20
ATOM     20  S   UNL     1       3.645  -2.000  -3.311  0.00  0.00    -0.077 S 
BRANCH  20  21
ATOM     21  C   UNL     1       3.274  -2.129  -5.082  0.00  0.00    +0.173 C 
BRANCH  21  22
ATOM     22  C   UNL     1       4.451  -2.739  -5.799  0.00  0.00    +0.227 C 
ATOM     23  O   UNL     1       5.442  -3.055  -5.176  0.00  0.00    -0.275 OA
ATOM     24  N   UNL     1       4.402  -2.932  -7.132  0.00  0.00    -0.285 N 
ATOM     25  H   UNL     1       3.581  -2.754  -7.618  0.00  0.00    +0.155 HD
BRANCH  24  26
ATOM     26  C   UNL     1       5.534  -3.390  -7.814  0.00  0.00    +0.037 A 
ATOM     27  C   UNL     1       6.801  -3.165  -7.291  0.00  0.00    +0.023 A 
ATOM     28  C   UNL     1       7.916  -3.618  -7.967  0.00  0.00    +0.002 A 
ATOM     29  C   UNL     1       7.774  -4.295  -9.164  0.00  0.00    +0.000 A 
ATOM     30  C   UNL     1       6.514  -4.520  -9.688  0.00  0.00    +0.006 A 
ATOM     31  C   UNL     1       5.394  -4.075  -9.014  0.00  0.00    -0.024 A 
BRANCH  31  32
ATOM     32  C   UNL     1       4.021  -4.328  -9.582  0.00  0.00    +0.015 C 
ATOM     33  C   UNL     1       3.952  -3.782 -11.009  0.00  0.00    +0.012 C 
ATOM     34  C   UNL     1       3.744  -5.833  -9.597  0.00  0.00    +0.012 C 
ENDBRANCH  31  32
ENDBRANCH  24  26
ENDBRANCH  21  22
ENDBRANCH  20  21
ENDBRANCH   4  20
TORSDOF 8
