REMARK  Name = ZINC15828226
REMARK  5 active torsions:
REMARK  status: ('A' for Active; 'I' for Inactive)
REMARK    1  A    between atoms: C_7  and  C_8
REMARK    2  A    between atoms: C_7  and  N_69
REMARK    3  A    between atoms: C_8  and  C_9
REMARK    4  A    between atoms: C_9  and  N_10
REMARK    5  A    between atoms: C_11  and  C_13
REMARK                            x       y       z     vdW  Elec       q    Type
REMARK                         _______ _______ _______ _____ _____    ______ ____
ROOT
ATOM      1  C   UNL     1      -2.478   7.545  -0.077  0.00  0.00    +0.078 C 
ATOM      2  C   UNL     1      -1.827   7.095   1.234  0.00  0.00    +0.032 C 
ATOM      3  C   UNL     1      -1.551   5.591   1.170  0.00  0.00    +0.108 C 
ATOM      4  N   UNL     1      -0.662   5.303   0.036  0.00  0.00    -0.308 N 
ATOM      5  C   UNL     1      -1.286   5.684  -1.237  0.00  0.00    +0.108 C 
ATOM      6  C   UNL     1      -1.554   7.190  -1.245  0.00  0.00    +0.032 C 
ATOM      7  C   UNL     1      -0.288   3.970   0.026  0.00  0.00    +0.184 A 
ATOM      8  N   UNL     1       0.912   3.455   0.012  0.00  0.00    -0.139 NA
ATOM      9  N   UNL     1       1.110   2.077   0.003  0.00  0.00    -0.169 N 
ATOM     10  C   UNL     1       2.302   1.414  -0.013  0.00  0.00    +0.279 A 
ATOM     11  O   UNL     1       3.348   2.045  -0.018  0.00  0.00    -0.265 OA
ATOM     12  C   UNL     1       2.332   0.013  -0.025  0.00  0.00    +0.040 A 
ATOM     13  C   UNL     1       1.151  -0.685  -0.015  0.00  0.00    +0.053 A 
ATOM     14  N   UNL     1       0.002  -0.004   0.002  0.00  0.00    -0.226 NA
ATOM     15  C   UNL     1      -0.016   1.303   0.009  0.00  0.00    +0.201 A 
ATOM     16  S   UNL     1      -1.319   2.513   0.035  0.00  0.00    -0.013 S 
ATOM     17  C   UNL     1       1.090  -2.188  -0.017  0.00  0.00    +0.056 C 
ATOM     18  C   UNL     1       2.427  -2.777  -0.462  0.00  0.00    +0.006 C 
ATOM     19  C   UNL     1       3.541  -2.131   0.370  0.00  0.00    +0.005 C 
ATOM     20  C   UNL     1       3.674  -0.669  -0.052  0.00  0.00    +0.042 C 
ENDROOT
BRANCH   1  22
ATOM     21  N   UNL     1      -3.263   9.658  -1.097  0.00  0.00    -0.315 N 
ATOM     22  C   UNL     1      -2.699   9.036  -0.043  0.00  0.00    +0.216 C 
ATOM     23  O   UNL     1      -2.368   9.676   0.933  0.00  0.00    -0.276 OA
ATOM     24  H   UNL     1      -3.527   9.146  -1.878  0.00  0.00    +0.149 HD
BRANCH  21  25
ATOM     25  C   UNL     1      -3.478  11.106  -1.064  0.00  0.00    +0.102 C 
BRANCH  25  26
ATOM     26  C   UNL     1      -4.128  11.556  -2.374  0.00  0.00    +0.000 C 
BRANCH  26  27
ATOM     27  C   UNL     1      -4.353  13.069  -2.340  0.00  0.00    -0.077 C 
BRANCH  27  34
ATOM     28  C   UNL     1      -3.833  15.211  -6.171  0.00  0.00    -0.002 C 
ATOM     29  C   UNL     1      -4.412  16.249  -5.324  0.00  0.00    -0.002 C 
ATOM     30  C   UNL     1      -4.332  15.890  -3.826  0.00  0.00    -0.019 C 
ATOM     31  C   UNL     1      -5.427  14.907  -3.511  0.00  0.00    -0.079 C 
ATOM     32  C   UNL     1      -4.102  13.202  -4.753  0.00  0.00    -0.079 C 
ATOM     33  C   UNL     1      -4.567  13.862  -6.023  0.00  0.00    -0.019 C 
ATOM     34  N   UNL     1      -5.018  13.463  -3.591  0.00  0.00    +0.380 N 
ATOM     35  H   UNL     1      -5.864  12.894  -3.711  0.00  0.00    -0.082 HD
ENDBRANCH  27  34
ENDBRANCH  26  27
ENDBRANCH  25  26
ENDBRANCH  21  25
ENDBRANCH   1  22
TORSDOF 5
