REMARK  Name = ZINC08594656
REMARK  8 active torsions:
REMARK  status: ('A' for Active; 'I' for Inactive)
REMARK    1  A    between atoms: C_1  and  C_2
REMARK    2  A    between atoms: C_4  and  C_37
REMARK    3  A    between atoms: N_5  and  C_31
REMARK    4  A    between atoms: C_15  and  C_18
REMARK    5  A    between atoms: N_20  and  C_21
REMARK    6  A    between atoms: C_26  and  C_27
REMARK    7  A    between atoms: C_27  and  O_29
REMARK    8  A    between atoms: O_29  and  C_30
REMARK                            x       y       z     vdW  Elec       q    Type
REMARK                         _______ _______ _______ _____ _____    ______ ____
ROOT
ATOM      1  C   UNL     1       1.481   1.316  -1.258  0.00  0.00    +0.068 C 
ATOM      2  C   UNL     1       1.199  -0.142  -1.004  0.00  0.00    +0.072 A 
ATOM      3  C   UNL     1       0.979  -1.023  -2.086  0.00  0.00    +0.049 A 
ATOM      4  C   UNL     1       0.940  -0.933  -3.459  0.00  0.00    +0.051 A 
ATOM      5  N   UNL     1       0.674  -2.158  -3.945  0.00  0.00    -0.236 N 
ATOM      6  N   UNL     1       0.535  -3.070  -2.890  0.00  0.00    -0.163 NA
ATOM      7  C   UNL     1       0.709  -2.436  -1.753  0.00  0.00    +0.137 A 
ATOM      8  C   UNL     1       0.699  -2.779  -0.332  0.00  0.00    +0.172 A 
ATOM      9  N   UNL     1       0.928  -1.817   0.541  0.00  0.00    -0.132 NA
ATOM     10  N   UNL     1       1.162  -0.602   0.220  0.00  0.00    -0.152 NA
ATOM     11  N   UNL     1       0.455  -4.078   0.086  0.00  0.00    -0.311 N 
ATOM     12  C   UNL     1       0.207  -5.145  -0.893  0.00  0.00    +0.106 C 
ATOM     13  C   UNL     1       1.178  -6.298  -0.622  0.00  0.00    +0.020 C 
ATOM     14  C   UNL     1       1.045  -6.740   0.838  0.00  0.00    +0.016 C 
ATOM     15  C   UNL     1       1.409  -5.575   1.760  0.00  0.00    +0.093 C 
ATOM     16  C   UNL     1       0.447  -4.415   1.516  0.00  0.00    +0.119 C 
ATOM     17  C   UNL     1       1.157   0.317  -4.273  0.00  0.00    +0.066 C 
ENDROOT
BRANCH   5  18
ATOM     18  C   UNL     1       0.554  -2.476  -5.304  0.00  0.00    +0.066 A 
ATOM     19  C   UNL     1       1.431  -1.923  -6.229  0.00  0.00    +0.028 A 
ATOM     20  C   UNL     1       1.310  -2.239  -7.568  0.00  0.00    +0.002 A 
ATOM     21  C   UNL     1       0.318  -3.104  -7.989  0.00  0.00    +0.000 A 
ATOM     22  C   UNL     1      -0.557  -3.657  -7.071  0.00  0.00    +0.002 A 
ATOM     23  C   UNL     1      -0.438  -3.350  -5.730  0.00  0.00    +0.028 A 
ENDBRANCH   5  18
BRANCH  15  24
ATOM     24  C   UNL     1       1.310  -6.020   3.196  0.00  0.00    +0.222 C 
ATOM     25  O   UNL     1       0.543  -5.463   3.953  0.00  0.00    -0.275 OA
ATOM     26  N   UNL     1       2.074  -7.038   3.641  0.00  0.00    -0.285 N 
ATOM     27  H   UNL     1       2.636  -7.529   3.021  0.00  0.00    +0.155 HD
BRANCH  26  28
ATOM     28  C   UNL     1       2.056  -7.385   4.989  0.00  0.00    +0.047 A 
ATOM     29  C   UNL     1       1.798  -6.420   5.954  0.00  0.00    +0.024 A 
ATOM     30  C   UNL     1       1.781  -6.766   7.290  0.00  0.00    +0.002 A 
ATOM     31  C   UNL     1       2.020  -8.074   7.680  0.00  0.00    +0.001 A 
ATOM     32  C   UNL     1       2.278  -9.045   6.737  0.00  0.00    +0.017 A 
ATOM     33  C   UNL     1       2.293  -8.712   5.380  0.00  0.00    +0.080 A 
BRANCH  33  34
ATOM     34  C   UNL     1       2.562  -9.746   4.365  0.00  0.00    +0.341 C 
ATOM     35  O   UNL     1       2.634  -9.441   3.191  0.00  0.00    -0.245 OA
BRANCH  34  36
ATOM     36  O   UNL     1       2.728 -11.030   4.739  0.00  0.00    -0.464 OA
ATOM     37  C   UNL     1       2.986 -11.980   3.703  0.00  0.00    +0.280 C 
ENDBRANCH  34  36
ENDBRANCH  33  34
ENDBRANCH  26  28
ENDBRANCH  15  24
TORSDOF 5
