REMARK  Name = ZINC09310621
REMARK  9 active torsions:
REMARK  status: ('A' for Active; 'I' for Inactive)
REMARK    1  A    between atoms: C_1  and  O_2
REMARK    2  A    between atoms: O_2  and  C_3
REMARK    3  A    between atoms: C_5  and  C_23
REMARK    4  A    between atoms: C_8  and  O_9
REMARK    5  A    between atoms: O_9  and  C_10
REMARK    6  A    between atoms: C_10  and  C_12
REMARK    7  A    between atoms: N_24  and  N_25
REMARK    8  A    between atoms: N_25  and  C_26
REMARK    9  A    between atoms: C_26  and  N_28
REMARK                            x       y       z     vdW  Elec       q    Type
REMARK                         _______ _______ _______ _____ _____    ______ ____
ROOT
ATOM      1  C   UNL     1      -1.044   7.860  -1.463  0.00  0.00    +0.164 A 
ATOM      2  C   UNL     1      -1.024   9.241  -1.395  0.00  0.00    +0.059 A 
ATOM      3  C   UNL     1      -2.057   9.920  -0.744  0.00  0.00    -0.001 A 
ATOM      4  C   UNL     1      -3.106   9.201  -0.166  0.00  0.00    +0.028 A 
ATOM      5  C   UNL     1      -3.122   7.824  -0.243  0.00  0.00    +0.064 A 
ATOM      6  C   UNL     1      -2.092   7.149  -0.885  0.00  0.00    +0.187 A 
ATOM      7 BR   UNL     1      -4.547   6.852   0.533  0.00  0.00    -0.046 Br
ENDROOT
BRANCH   1   9
ATOM      8  C   UNL     1       1.004   7.989  -2.666  0.00  0.00    +0.277 C 
ATOM      9  O   UNL     1      -0.039   7.197  -2.095  0.00  0.00    -0.491 OA
ENDBRANCH   1   9
BRANCH   3  10
ATOM     10  C   UNL     1      -2.041  11.393  -0.669  0.00  0.00    +0.138 C 
ATOM     11  N   UNL     1      -3.002  12.022  -0.064  0.00  0.00    -0.188 NA
BRANCH  11  12
ATOM     12  N   UNL     1      -2.987  13.421   0.007  0.00  0.00    -0.219 N 
ATOM     13  H   UNL     1      -2.258  13.919  -0.395  0.00  0.00    +0.176 HD
BRANCH  12  14
ATOM     14  C   UNL     1      -3.984  14.075   0.635  0.00  0.00    +0.147 C 
ATOM     15  S   UNL     1      -3.966  15.784   0.723  0.00  0.00    -0.017 S 
BRANCH  14  16
ATOM     16  N   UNL     1      -4.996  13.382   1.194  0.00  0.00    -0.339 N 
ATOM     17  H   UNL     1      -5.007  12.413   1.144  0.00  0.00    +0.144 HD
ATOM     18  H   UNL     1      -5.714  13.852   1.646  0.00  0.00    +0.144 HD
ENDBRANCH  14  16
ENDBRANCH  12  14
ENDBRANCH  11  12
ENDBRANCH   3  10
BRANCH   6  19
ATOM     19  O   UNL     1      -2.110   5.791  -0.954  0.00  0.00    -0.421 OA
BRANCH  19  20
ATOM     20  C   UNL     1      -1.510   5.123   0.044  0.00  0.00    +0.319 C 
ATOM     21  O   UNL     1      -0.986   5.729   0.949  0.00  0.00    -0.250 OA
BRANCH  20  22
ATOM     22  C   UNL     1      -1.490   3.616   0.036  0.00  0.00    +0.069 C 
ATOM     23  C   UNL     1      -0.773   3.123  -1.223  0.00  0.00    +0.021 C 
ATOM     24  C   UNL     1      -0.753   1.593  -1.232  0.00  0.00    -0.009 C 
ATOM     25  C   UNL     1      -0.013   1.086   0.008  0.00  0.00    +0.007 C 
ATOM     26  C   UNL     1      -0.729   1.579   1.267  0.00  0.00    -0.009 C 
ATOM     27  C   UNL     1      -0.750   3.109   1.275  0.00  0.00    +0.021 C 
ATOM     28  C   UNL     1      -2.164   1.050   1.278  0.00  0.00    +0.007 C 
ATOM     29  C   UNL     1      -2.904   1.556   0.038  0.00  0.00    -0.009 C 
ATOM     30  C   UNL     1      -2.188   1.063  -1.221  0.00  0.00    +0.007 C 
ATOM     31  C   UNL     1      -2.925   3.086   0.047  0.00  0.00    +0.021 C 
ENDBRANCH  20  22
ENDBRANCH  19  20
ENDBRANCH   6  19
TORSDOF 8
