REMARK  Name = ZINC39393473
REMARK  11 active torsions:
REMARK  status: ('A' for Active; 'I' for Inactive)
REMARK    1  A    between atoms: C_1  and  C_2
REMARK    2  A    between atoms: C_2  and  C_3
REMARK    3  A    between atoms: C_2  and  C_4
REMARK    4  A    between atoms: C_4  and  C_5
REMARK    5  A    between atoms: C_7  and  C_11
REMARK    6  A    between atoms: C_11  and  N_12
REMARK    7  A    between atoms: C_24  and  N_29
REMARK    8  A    between atoms: C_26  and  O_28
REMARK    9  A    between atoms: C_30  and  C_32
REMARK   10  A    between atoms: C_32  and  O_33
REMARK   11  A    between atoms: O_33  and  C_34
REMARK                            x       y       z     vdW  Elec       q    Type
REMARK                         _______ _______ _______ _____ _____    ______ ____
ROOT
ATOM      1  N   UNL     1      -2.554  -6.299  -0.192  0.00  0.00    +0.381 N 
ATOM      2  C   UNL     1      -2.486  -5.997  -1.627  0.00  0.00    -0.078 C 
ATOM      3  C   UNL     1      -2.251  -7.291  -2.412  0.00  0.00    -0.005 C 
ATOM      4  C   UNL     1      -3.393  -8.265  -2.133  0.00  0.00    +0.021 C 
ATOM      5  C   UNL     1      -3.527  -8.505  -0.631  0.00  0.00    -0.005 C 
ATOM      6  C   UNL     1      -3.709  -7.163   0.083  0.00  0.00    -0.078 C 
ATOM      7  C   UNL     1      -3.161  -9.569  -2.857  0.00  0.00    -0.034 A 
ATOM      8  C   UNL     1      -2.327 -10.633  -2.554  0.00  0.00    +0.004 A 
ATOM      9  C   UNL     1      -2.284 -11.740  -3.379  0.00  0.00    +0.000 A 
ATOM     10  C   UNL     1      -3.077 -11.788  -4.510  0.00  0.00    +0.000 A 
ATOM     11  C   UNL     1      -3.909 -10.729  -4.814  0.00  0.00    +0.006 A 
ATOM     12  C   UNL     1      -3.953  -9.617  -3.990  0.00  0.00    -0.021 A 
ATOM     13  C   UNL     1      -4.765  -8.344  -4.102  0.00  0.00    +0.133 C 
ATOM     14  C   UNL     1      -4.712  -7.706  -2.697  0.00  0.00    +0.149 C 
ATOM     15  H   UNL     1      -1.708  -6.771   0.090  0.00  0.00    -0.082 HD
ENDROOT
BRANCH  13  16
ATOM     16  N   UNL     1      -6.149  -8.655  -4.470  0.00  0.00    -0.303 N 
ATOM     17  C   UNL     1      -6.488  -8.788  -5.767  0.00  0.00    +0.251 C 
ATOM     18  O   UNL     1      -5.647  -8.651  -6.631  0.00  0.00    -0.272 OA
ATOM     19  H   UNL     1      -6.821  -8.765  -3.779  0.00  0.00    +0.149 HD
BRANCH  17  20
ATOM     20  C   UNL     1      -7.911  -9.108  -6.145  0.00  0.00    +0.324 C 
BRANCH  20  21
ATOM     21  O   UNL     1      -8.018  -9.197  -7.567  0.00  0.00    -0.483 OA
BRANCH  21  22
ATOM     22  C   UNL     1      -9.245  -9.482  -8.077  0.00  0.00    +0.121 A 
ATOM     23  C   UNL     1     -10.325  -9.665  -7.227  0.00  0.00    +0.045 A 
ATOM     24  C   UNL     1     -11.572  -9.953  -7.748  0.00  0.00    +0.004 A 
ATOM     25  C   UNL     1     -11.743 -10.060  -9.116  0.00  0.00    +0.000 A 
ATOM     26  C   UNL     1     -10.667  -9.878  -9.966  0.00  0.00    +0.004 A 
ATOM     27  C   UNL     1      -9.420  -9.584  -9.450  0.00  0.00    +0.045 A 
ENDBRANCH  21  22
ENDBRANCH  20  21
ENDBRANCH  17  20
ENDBRANCH  13  16
BRANCH  14  28
ATOM     28  O   UNL     1      -4.663  -6.281  -2.788  0.00  0.00    -0.389 OA
ATOM     29  H   UNL     1      -5.470  -5.881  -3.138  0.00  0.00    +0.210 HD
ENDBRANCH  14  28
BRANCH   1  30
ATOM     30  C   UNL     1      -2.690  -5.047   0.564  0.00  0.00    -0.046 C 
BRANCH  30  33
ATOM     31  C   UNL     1      -1.449  -4.058   3.505  0.00  0.00    +0.062 C 
ATOM     32  C   UNL     1      -2.622  -4.057   2.867  0.00  0.00    +0.024 C 
ATOM     33  C   UNL     1      -2.602  -5.344   2.062  0.00  0.00    +0.136 C 
ATOM     34  N   UNL     1      -1.293  -5.928   2.405  0.00  0.00    -0.182 NA
ATOM     35  N   UNL     1      -0.732  -5.160   3.189  0.00  0.00    -0.159 NA
BRANCH  31  36
ATOM     36  C   UNL     1      -0.985  -2.975   4.444  0.00  0.00    +0.060 C 
BRANCH  36  38
ATOM     37  C   UNL     1      -0.733  -2.334   6.846  0.00  0.00    +0.007 C 
ATOM     38  C   UNL     1      -1.314  -3.373   5.884  0.00  0.00    -0.011 C 
ATOM     39  C   UNL     1      -2.833  -3.438   6.060  0.00  0.00    +0.007 C 
ENDBRANCH  36  38
ENDBRANCH  31  36
ENDBRANCH  30  33
ENDBRANCH   1  30
TORSDOF 9
