REMARK  Name = ZINC36528359
REMARK  15 active torsions:
REMARK  status: ('A' for Active; 'I' for Inactive)
REMARK    1  A    between atoms: C_1  and  C_2
REMARK    2  A    between atoms: C_2  and  C_3
REMARK    3  A    between atoms: C_2  and  C_4
REMARK    4  A    between atoms: C_2  and  C_5
REMARK    5  A    between atoms: C_5  and  C_6
REMARK    6  A    between atoms: C_6  and  C_7
REMARK    7  A    between atoms: C_6  and  C_8
REMARK    8  A    between atoms: C_6  and  N_9
REMARK    9  A    between atoms: C_10  and  C_12
REMARK   10  A    between atoms: C_12  and  C_14
REMARK   11  A    between atoms: C_12  and  N_21
REMARK   12  A    between atoms: C_19  and  O_20
REMARK   13  A    between atoms: N_21  and  C_22
REMARK   14  A    between atoms: C_23  and  C_25
REMARK   15  A    between atoms: C_25  and  C_26
REMARK                            x       y       z     vdW  Elec       q    Type
REMARK                         _______ _______ _______ _____ _____    ______ ____
ROOT
ATOM      1  C   UNL     1       5.390  -0.476  -4.284  0.00  0.00    +0.195 C 
ENDROOT
BRANCH   1   2
ATOM      2  C   UNL     1       5.300  -1.961  -4.528  0.00  0.00    +0.023 A 
ATOM      3  C   UNL     1       4.790  -2.792  -3.549  0.00  0.00    +0.009 A 
ATOM      4  C   UNL     1       4.708  -4.154  -3.772  0.00  0.00    +0.001 A 
ATOM      5  C   UNL     1       5.134  -4.688  -4.974  0.00  0.00    +0.004 A 
ATOM      6  C   UNL     1       5.643  -3.861  -5.956  0.00  0.00    +0.046 A 
ATOM      7  C   UNL     1       5.723  -2.493  -5.737  0.00  0.00    +0.122 A 
BRANCH   7   8
ATOM      8  O   UNL     1       6.218  -1.676  -6.704  0.00  0.00    -0.506 OA
ATOM      9  H   UNL     1       7.175  -1.543  -6.654  0.00  0.00    +0.292 HD
ENDBRANCH   7   8
ENDBRANCH   1   2
BRANCH   1  11
ATOM     10  N   UNL     1       3.199  -0.351  -3.142  0.00  0.00    -0.308 N 
ATOM     11  C   UNL     1       4.524  -0.107  -3.107  0.00  0.00    +0.239 C 
ATOM     12  O   UNL     1       5.020   0.410  -2.128  0.00  0.00    -0.273 OA
ATOM     13  H   UNL     1       2.803  -0.765  -3.925  0.00  0.00    +0.149 HD
BRANCH  10  14
ATOM     14  C   UNL     1       2.358   0.008  -1.998  0.00  0.00    +0.030 C 
ATOM     15  C   UNL     1       2.571   1.483  -1.651  0.00  0.00    +0.031 C 
ATOM     16  C   UNL     1       2.736  -0.859  -0.795  0.00  0.00    +0.031 C 
BRANCH  14  17
ATOM     17  C   UNL     1       0.888  -0.225  -2.353  0.00  0.00    +0.031 C 
BRANCH  17  19
ATOM     18  C   UNL     1       1.063  -0.731  -4.793  0.00  0.00    +0.010 C 
ATOM     19  C   UNL     1       0.613   0.305  -3.761  0.00  0.00    -0.036 C 
ATOM     20  C   UNL     1       1.386   1.608  -3.976  0.00  0.00    +0.010 C 
ATOM     21  C   UNL     1      -0.885   0.569  -3.924  0.00  0.00    +0.010 C 
ENDBRANCH  17  19
ENDBRANCH  14  17
ENDBRANCH  10  14
ENDBRANCH   1  11
BRANCH   1  22
ATOM     22  N   UNL     1       6.780  -0.112  -4.001  0.00  0.00    -0.289 N 
ATOM     23  C   UNL     1       7.513  -0.793  -2.932  0.00  0.00    +0.133 C 
ATOM     24  C   UNL     1       7.385   0.852  -4.725  0.00  0.00    +0.221 C 
ATOM     25  O   UNL     1       6.778   1.416  -5.610  0.00  0.00    -0.275 OA
BRANCH  24  26
ATOM     26  C   UNL     1       8.815   1.227  -4.434  0.00  0.00    +0.131 C 
BRANCH  26  27
ATOM     27  C   UNL     1       9.249   2.320  -5.376  0.00  0.00    -0.039 A 
ATOM     28  C   UNL     1       9.819   1.997  -6.594  0.00  0.00    +0.005 A 
ATOM     29  C   UNL     1      10.216   2.999  -7.458  0.00  0.00    +0.015 A 
ATOM     30  C   UNL     1      10.045   4.325  -7.105  0.00  0.00    +0.018 A 
ATOM     31  C   UNL     1       9.475   4.648  -5.887  0.00  0.00    +0.015 A 
ATOM     32  C   UNL     1       9.073   3.645  -5.025  0.00  0.00    +0.005 A 
ATOM     33 BR   UNL     1      10.590   5.697  -8.287  0.00  0.00    -0.050 Br
ENDBRANCH  26  27
ENDBRANCH  24  26
ENDBRANCH   1  22
TORSDOF 9
