REMARK  Name = ZINC36028186
REMARK  11 active torsions:
REMARK  status: ('A' for Active; 'I' for Inactive)
REMARK    1  A    between atoms: C_1  and  C_2
REMARK    2  A    between atoms: C_2  and  C_3
REMARK    3  A    between atoms: C_3  and  C_5
REMARK    4  A    between atoms: C_3  and  C_6
REMARK    5  A    between atoms: C_6  and  N_7
REMARK    6  A    between atoms: C_10  and  C_32
REMARK    7  A    between atoms: N_16  and  S_19
REMARK    8  A    between atoms: S_19  and  C_22
REMARK    9  A    between atoms: C_32  and  C_34
REMARK   10  A    between atoms: C_32  and  C_35
REMARK   11  A    between atoms: C_35  and  C_36
REMARK                            x       y       z     vdW  Elec       q    Type
REMARK                         _______ _______ _______ _____ _____    ______ ____
ROOT
ATOM      1  N   UNL     1       1.828  -2.139   2.032  0.00  0.00    -0.313 N 
ATOM      2  C   UNL     1       3.166  -2.048   1.877  0.00  0.00    +0.201 C 
ATOM      3  O   UNL     1       3.741  -1.745   0.854  0.00  0.00    -0.277 OA
ATOM      4  C   UNL     1       3.826  -2.385   3.196  0.00  0.00    +0.022 C 
ATOM      5  N   UNL     1       2.771  -3.068   3.984  0.00  0.00    +0.401 N 
ATOM      6  C   UNL     1       1.521  -2.517   3.414  0.00  0.00    +0.006 C 
ATOM      7  C   UNL     1       0.429  -3.585   3.440  0.00  0.00    +0.023 C 
ATOM      8  C   UNL     1      -0.849  -3.021   2.811  0.00  0.00    +0.109 C 
ATOM      9  N   UNL     1      -1.200  -1.769   3.495  0.00  0.00    -0.177 NA
ATOM     10  C   UNL     1      -0.190  -0.706   3.589  0.00  0.00    +0.109 C 
ATOM     11  C   UNL     1       1.083  -1.290   4.212  0.00  0.00    +0.023 C 
ATOM     12  H   UNL     1       2.817  -4.067   3.851  0.00  0.00    -0.082 HD
ATOM     13  H   UNL     1       2.848  -2.833   4.962  0.00  0.00    -0.082 HD
ENDROOT
BRANCH   9  14
ATOM     14  S   UNL     1      -2.707  -1.560   4.150  0.00  0.00    +0.063 S 
ATOM     15  O   UNL     1      -2.930  -0.158   4.217  0.00  0.00    -0.153 OA
ATOM     16  O   UNL     1      -3.579  -2.437   3.451  0.00  0.00    -0.153 OA
BRANCH  14  17
ATOM     17  C   UNL     1      -2.637  -2.138   5.813  0.00  0.00    +0.131 A 
ATOM     18  C   UNL     1      -2.817  -1.271   6.846  0.00  0.00    +0.031 A 
ATOM     19  C   UNL     1      -2.766  -1.707   8.168  0.00  0.00    +0.003 A 
ATOM     20  C   UNL     1      -2.534  -3.016   8.464  0.00  0.00    +0.010 A 
ATOM     21  C   UNL     1      -2.344  -3.939   7.423  0.00  0.00    +0.002 A 
ATOM     22  C   UNL     1      -2.401  -3.498   6.077  0.00  0.00    +0.097 A 
ATOM     23  N   UNL     1      -2.224  -4.374   5.083  0.00  0.00    -0.253 NA
ATOM     24  C   UNL     1      -2.003  -5.643   5.324  0.00  0.00    +0.111 A 
ATOM     25  C   UNL     1      -1.941  -6.143   6.623  0.00  0.00    +0.020 A 
ATOM     26  C   UNL     1      -2.101  -5.300   7.686  0.00  0.00    +0.011 A 
ENDBRANCH  14  17
ENDBRANCH   9  14
BRANCH   4  27
ATOM     27  C   UNL     1       5.016  -3.321   2.973  0.00  0.00    -0.020 C 
ATOM     28  C   UNL     1       4.561  -4.541   2.170  0.00  0.00    +0.006 C 
BRANCH  27  29
ATOM     29  C   UNL     1       6.109  -2.580   2.199  0.00  0.00    -0.001 C 
ATOM     30  C   UNL     1       7.346  -3.472   2.084  0.00  0.00    +0.004 C 
ENDBRANCH  27  29
ENDBRANCH   4  27
BRANCH   1  31
ATOM     31  C   UNL     1       0.837  -1.893   0.982  0.00  0.00    +0.109 C 
BRANCH  31  32
ATOM     32  C   UNL     1       0.556  -3.196   0.230  0.00  0.00    +0.003 C 
ATOM     33  C   UNL     1       1.816  -3.633  -0.521  0.00  0.00    +0.009 C 
BRANCH  32  35
ATOM     34  C   UNL     1      -0.945  -4.304  -1.431  0.00  0.00    +0.004 C 
ATOM     35  C   UNL     1      -0.581  -2.974  -0.768  0.00  0.00    +0.001 C 
ENDBRANCH  32  35
ENDBRANCH  31  32
ENDBRANCH   1  31
TORSDOF 7
