REMARK  Name = ZINC36573194
REMARK  19 active torsions:
REMARK  status: ('A' for Active; 'I' for Inactive)
REMARK    1  A    between atoms: C_1  and  C_2
REMARK    2  A    between atoms: C_2  and  C_3
REMARK    3  A    between atoms: C_3  and  N_4
REMARK    4  A    between atoms: N_4  and  C_5
REMARK    5  A    between atoms: C_5  and  C_7
REMARK    6  A    between atoms: C_5  and  C_14
REMARK    7  A    between atoms: C_10  and  C_13
REMARK    8  A    between atoms: N_16  and  C_17
REMARK    9  A    between atoms: C_17  and  C_18
REMARK   10  A    between atoms: C_17  and  C_19
REMARK   11  A    between atoms: C_17  and  C_20
REMARK   12  A    between atoms: C_20  and  C_21
REMARK   13  A    between atoms: C_21  and  C_22
REMARK   14  A    between atoms: C_21  and  C_23
REMARK   15  A    between atoms: C_21  and  C_24
REMARK   16  A    between atoms: C_25  and  C_27
REMARK   17  A    between atoms: C_27  and  C_28
REMARK   18  A    between atoms: C_27  and  C_34
REMARK   19  A    between atoms: C_27  and  O_40
REMARK                            x       y       z     vdW  Elec       q    Type
REMARK                         _______ _______ _______ _____ _____    ______ ____
ROOT
ATOM      1  N   UNL     1      -2.995  -3.847   0.184  0.00  0.00    -0.283 N 
ATOM      2  C   UNL     1      -1.827  -4.153  -0.416  0.00  0.00    +0.257 C 
ATOM      3  O   UNL     1      -1.008  -4.833   0.163  0.00  0.00    -0.272 OA
ENDROOT
BRANCH   1   4
ATOM      4  C   UNL     1      -4.006  -3.068  -0.535  0.00  0.00    +0.109 C 
BRANCH   4   6
ATOM      5  C   UNL     1      -6.120  -3.213  -1.857  0.00  0.00    +0.005 C 
ATOM      6  C   UNL     1      -4.972  -4.018  -1.246  0.00  0.00    +0.016 C 
ENDBRANCH   4   6
ENDBRANCH   1   4
BRANCH   1   7
ATOM      7  C   UNL     1      -3.253  -4.295   1.555  0.00  0.00    +0.192 C 
BRANCH   7   8
ATOM      8  C   UNL     1      -2.385  -3.514   2.509  0.00  0.00    -0.018 A 
ATOM      9  C   UNL     1      -2.289  -2.140   2.390  0.00  0.00    +0.006 A 
ATOM     10  C   UNL     1      -1.494  -1.425   3.266  0.00  0.00    +0.004 A 
ATOM     11  C   UNL     1      -0.795  -2.083   4.260  0.00  0.00    -0.050 A 
ATOM     12  C   UNL     1      -0.891  -3.457   4.379  0.00  0.00    +0.004 A 
ATOM     13  C   UNL     1      -1.690  -4.172   3.507  0.00  0.00    +0.006 A 
ATOM     14  C   UNL     1       0.073  -1.304   5.214  0.00  0.00    +0.044 C 
ENDBRANCH   7   8
BRANCH   7  15
ATOM     15  C   UNL     1      -4.703  -4.066   1.893  0.00  0.00    +0.238 C 
ATOM     16  O   UNL     1      -5.482  -3.728   1.027  0.00  0.00    -0.273 OA
ATOM     17  N   UNL     1      -5.135  -4.238   3.158  0.00  0.00    -0.308 N 
ATOM     18  H   UNL     1      -4.513  -4.509   3.851  0.00  0.00    +0.149 HD
BRANCH  17  19
ATOM     19  C   UNL     1      -6.545  -4.016   3.487  0.00  0.00    +0.030 C 
ATOM     20  C   UNL     1      -6.833  -2.514   3.514  0.00  0.00    +0.031 C 
ATOM     21  C   UNL     1      -7.427  -4.685   2.431  0.00  0.00    +0.031 C 
BRANCH  19  22
ATOM     22  C   UNL     1      -6.850  -4.618   4.861  0.00  0.00    +0.031 C 
BRANCH  22  23
ATOM     23  C   UNL     1      -6.153  -5.975   4.989  0.00  0.00    -0.036 C 
ATOM     24  C   UNL     1      -4.708  -5.765   5.447  0.00  0.00    +0.010 C 
ATOM     25  C   UNL     1      -6.894  -6.834   6.015  0.00  0.00    +0.010 C 
ATOM     26  C   UNL     1      -6.160  -6.681   3.631  0.00  0.00    +0.010 C 
ENDBRANCH  22  23
ENDBRANCH  19  22
ENDBRANCH  17  19
ENDBRANCH   7  15
ENDBRANCH   1   7
BRANCH   2  27
ATOM     27  C   UNL     1      -1.541  -3.650  -1.808  0.00  0.00    +0.192 C 
BRANCH  27  28
ATOM     28  C   UNL     1      -1.039  -2.231  -1.735  0.00  0.00    -0.003 A 
ATOM     29  C   UNL     1      -0.328  -1.805  -0.629  0.00  0.00    +0.007 A 
ATOM     30  C   UNL     1       0.132  -0.503  -0.562  0.00  0.00    +0.000 A 
ATOM     31  C   UNL     1      -0.117   0.372  -1.603  0.00  0.00    +0.000 A 
ATOM     32  C   UNL     1      -0.827  -0.054  -2.709  0.00  0.00    +0.000 A 
ATOM     33  C   UNL     1      -1.284  -1.357  -2.778  0.00  0.00    +0.007 A 
ENDBRANCH  27  28
BRANCH  27  34
ATOM     34  C   UNL     1      -0.494  -4.521  -2.451  0.00  0.00    -0.003 A 
ATOM     35  C   UNL     1       0.662  -4.837  -1.761  0.00  0.00    +0.007 A 
ATOM     36  C   UNL     1       1.623  -5.637  -2.352  0.00  0.00    +0.000 A 
ATOM     37  C   UNL     1       1.428  -6.120  -3.632  0.00  0.00    +0.000 A 
ATOM     38  C   UNL     1       0.273  -5.804  -4.322  0.00  0.00    +0.000 A 
ATOM     39  C   UNL     1      -0.690  -5.009  -3.730  0.00  0.00    +0.007 A 
ENDBRANCH  27  34
BRANCH  27  40
ATOM     40  O   UNL     1      -2.739  -3.692  -2.586  0.00  0.00    -0.371 OA
ATOM     41  H   UNL     1      -3.119  -4.577  -2.675  0.00  0.00    +0.212 HD
ENDBRANCH  27  40
ENDBRANCH   2  27
TORSDOF 12
