REMARK  Name = ZINC49600046
REMARK  16 active torsions:
REMARK  status: ('A' for Active; 'I' for Inactive)
REMARK    1  A    between atoms: C_1  and  C_2
REMARK    2  A    between atoms: C_3  and  O_32
REMARK    3  A    between atoms: C_8  and  C_9
REMARK    4  A    between atoms: C_9  and  C_31
REMARK    5  A    between atoms: C_10  and  C_11
REMARK    6  A    between atoms: C_11  and  C_12
REMARK    7  A    between atoms: C_11  and  C_13
REMARK    8  A    between atoms: C_11  and  O_30
REMARK    9  A    between atoms: C_13  and  C_15
REMARK   10  A    between atoms: C_13  and  O_29
REMARK   11  A    between atoms: C_15  and  C_28
REMARK   12  A    between atoms: C_16  and  C_17
REMARK   13  A    between atoms: C_17  and  C_27
REMARK   14  A    between atoms: C_20  and  C_26
REMARK   15  A    between atoms: C_22  and  C_25
REMARK   16  A    between atoms: O_32  and  C_33
REMARK                            x       y       z     vdW  Elec       q    Type
REMARK                         _______ _______ _______ _____ _____    ______ ____
ROOT
ATOM      1  C   UNL     1      -0.282  -0.721   5.101  0.00  0.00    +0.111 C 
ATOM      2  C   UNL     1      -0.973  -1.570   6.170  0.00  0.00    +0.049 C 
ENDROOT
BRANCH   1   4
ATOM      3  C   UNL     1      -1.314  -1.810   3.153  0.00  0.00    -0.009 C 
ATOM      4  C   UNL     1      -0.201  -1.502   3.814  0.00  0.00    +0.017 C 
ATOM      5  C   UNL     1      -2.660  -1.544   3.777  0.00  0.00    +0.047 C 
BRANCH   3  13
ATOM      6  C   UNL     1      -0.101  -0.330   1.046  0.00  0.00    +0.051 C 
ATOM      7  C   UNL     1      -0.651  -1.711   0.798  0.00  0.00    +0.034 A 
ATOM      8  C   UNL     1      -0.565  -2.287  -0.483  0.00  0.00    +0.133 A 
ATOM      9  C   UNL     1      -1.080  -3.558  -0.679  0.00  0.00    +0.138 A 
ATOM     10  C   UNL     1      -1.668  -4.229   0.399  0.00  0.00    +0.341 A 
ATOM     11  O   UNL     1      -2.125  -5.348   0.241  0.00  0.00    -0.245 OA
ATOM     12  O   UNL     1      -1.730  -3.644   1.608  0.00  0.00    -0.422 OA
ATOM     13  C   UNL     1      -1.230  -2.411   1.815  0.00  0.00    +0.141 A 
BRANCH   8  14
ATOM     14  O   UNL     1       0.010  -1.610  -1.505  0.00  0.00    -0.494 OA
ATOM     15  C   UNL     1       0.057  -2.267  -2.773  0.00  0.00    +0.277 C 
ENDBRANCH   8  14
ENDBRANCH   3  13
ENDBRANCH   1   4
BRANCH   1  16
ATOM     16  O   UNL     1      -1.031   0.476   4.886  0.00  0.00    -0.382 OA
ATOM     17  H   UNL     1      -0.684   1.035   4.177  0.00  0.00    +0.211 HD
ENDBRANCH   1  16
BRANCH   1  18
ATOM     18  C   UNL     1       1.130  -0.363   5.569  0.00  0.00    +0.175 C 
BRANCH  18  19
ATOM     19  C   UNL     1       1.050   0.417   6.856  0.00  0.00    -0.043 C 
ATOM     20  C   UNL     1       1.539  -0.089   7.961  0.00  0.00    +0.011 C 
ATOM     21  C   UNL     1       0.407   1.780   6.872  0.00  0.00    +0.041 C 
BRANCH  20  22
ATOM     22  C   UNL     1       1.345   0.631   9.270  0.00  0.00    +0.114 C 
ATOM     23  C   UNL     1       0.867  -0.354  10.360  0.00  0.00    +0.189 C 
ATOM     24  C   UNL     1      -0.137   0.470  11.197  0.00  0.00    +0.122 C 
ATOM     25  O   UNL     1       1.135  -0.027  11.725  0.00  0.00    -0.359 OA
ATOM     26  C   UNL     1      -0.147   1.856  10.514  0.00  0.00    +0.151 C 
ATOM     27  O   UNL     1       0.282   1.601   9.158  0.00  0.00    -0.361 OA
ATOM     28  C   UNL     1      -1.558   2.446  10.527  0.00  0.00    +0.041 C 
ATOM     29  C   UNL     1      -1.461  -0.102  11.707  0.00  0.00    +0.047 C 
ATOM     30  C   UNL     1       2.646   1.313   9.699  0.00  0.00    +0.049 C 
ENDBRANCH  20  22
ENDBRANCH  18  19
BRANCH  18  31
ATOM     31  O   UNL     1       1.776   0.430   4.571  0.00  0.00    -0.384 OA
ATOM     32  H   UNL     1       1.321   1.261   4.373  0.00  0.00    +0.210 HD
ENDBRANCH  18  31
ENDBRANCH   1  18
TORSDOF 8
