REMARK  Name = ZINC67292343
REMARK  7 active torsions:
REMARK  status: ('A' for Active; 'I' for Inactive)
REMARK    1  A    between atoms: C_1  and  O_2
REMARK    2  A    between atoms: O_2  and  C_3
REMARK    3  A    between atoms: C_3  and  C_5
REMARK    4  A    between atoms: C_9  and  N_11
REMARK    5  A    between atoms: C_13  and  C_23
REMARK    6  A    between atoms: N_25  and  C_26
REMARK    7  A    between atoms: C_26  and  C_27
REMARK                            x       y       z     vdW  Elec       q    Type
REMARK                         _______ _______ _______ _____ _____    ______ ____
ROOT
ATOM      1  N   UNL     1       1.948  -4.699  -3.326  0.00  0.00    -0.325 N 
ATOM      2  C   UNL     1       2.765  -5.708  -3.114  0.00  0.00    +0.212 A 
ATOM      3  C   UNL     1       3.354  -6.460  -4.241  0.00  0.00    +0.097 A 
ATOM      4  C   UNL     1       4.574  -7.083  -4.016  0.00  0.00    +0.030 A 
ATOM      5  C   UNL     1       5.168  -6.939  -2.685  0.00  0.00    +0.019 A 
ATOM      6  C   UNL     1       6.501  -7.300  -2.453  0.00  0.00    +0.026 A 
ATOM      7  C   UNL     1       7.037  -7.151  -1.193  0.00  0.00    +0.019 A 
ATOM      8  C   UNL     1       6.263  -6.646  -0.156  0.00  0.00    +0.019 A 
ATOM      9  C   UNL     1       4.947  -6.288  -0.370  0.00  0.00    +0.048 A 
ATOM     10  C   UNL     1       4.387  -6.431  -1.631  0.00  0.00    +0.137 A 
ATOM     11  O   UNL     1       3.098  -6.086  -1.854  0.00  0.00    -0.439 OA
ATOM     12 BR   UNL     1       8.836  -7.638  -0.872  0.00  0.00    -0.050 Br
ATOM     13  H   UNL     1       1.789  -4.386  -4.230  0.00  0.00    +0.169 HD
ENDROOT
BRANCH   1  18
ATOM     14  C   UNL     1       0.631  -2.092  -1.119  0.00  0.00    +0.061 A 
ATOM     15  C   UNL     1       0.049  -2.877  -0.121  0.00  0.00    +0.015 A 
ATOM     16  C   UNL     1       0.105  -4.255  -0.201  0.00  0.00    +0.003 A 
ATOM     17  C   UNL     1       0.737  -4.866  -1.266  0.00  0.00    +0.026 A 
ATOM     18  C   UNL     1       1.323  -4.093  -2.272  0.00  0.00    +0.043 A 
ATOM     19  C   UNL     1       1.265  -2.701  -2.200  0.00  0.00    +0.040 A 
BRANCH  14  20
ATOM     20  C   UNL     1       0.570  -0.618  -1.031  0.00  0.00    +0.339 C 
ATOM     21  O   UNL     1       1.073   0.064  -1.902  0.00  0.00    -0.245 OA
BRANCH  20  23
ATOM     22  C   UNL     1      -0.064   1.398   0.035  0.00  0.00    +0.280 C 
ATOM     23  O   UNL     1      -0.043  -0.030   0.015  0.00  0.00    -0.464 OA
ENDBRANCH  20  23
ENDBRANCH  14  20
ENDBRANCH   1  18
BRANCH   3  24
ATOM     24  C   UNL     1       2.675  -6.546  -5.545  0.00  0.00    +0.249 C 
ATOM     25  O   UNL     1       1.652  -5.919  -5.741  0.00  0.00    -0.270 OA
ATOM     26  N   UNL     1       3.189  -7.319  -6.522  0.00  0.00    -0.309 N 
ATOM     27  H   UNL     1       3.963  -7.876  -6.344  0.00  0.00    +0.149 HD
BRANCH  26  28
ATOM     28  C   UNL     1       2.579  -7.318  -7.854  0.00  0.00    +0.136 C 
BRANCH  28  29
ATOM     29  C   UNL     1       3.348  -8.274  -8.768  0.00  0.00    +0.135 C 
ATOM     30  C   UNL     1       2.740  -8.261 -10.193  0.00  0.00    +0.035 C 
ATOM     31  C   UNL     1       3.962  -8.714 -11.039  0.00  0.00    +0.031 C 
ATOM     32  C   UNL     1       5.143  -8.082 -10.272  0.00  0.00    +0.160 C 
ATOM     33  O   UNL     1       4.703  -7.825  -8.932  0.00  0.00    -0.375 OA
ENDBRANCH  28  29
ENDBRANCH  26  28
ENDBRANCH   3  24
TORSDOF 6
