REMARK  Name = ZINC09407549
REMARK  5 active torsions:
REMARK  status: ('A' for Active; 'I' for Inactive)
REMARK    1  A    between atoms: C_1  and  O_2
REMARK    2  A    between atoms: O_2  and  C_3
REMARK    3  A    between atoms: C_3  and  C_5
REMARK    4  A    between atoms: C_10  and  N_11
REMARK    5  A    between atoms: C_12  and  C_14
REMARK                            x       y       z     vdW  Elec       q    Type
REMARK                         _______ _______ _______ _____ _____    ______ ____
ROOT
ATOM      1  N   UNL     1       2.303   3.909  -0.013  0.00  0.00    -0.280 N 
ATOM      2  C   UNL     1       2.252   5.253   0.079  0.00  0.00    +0.255 C 
ATOM      3  O   UNL     1       1.186   5.809   0.265  0.00  0.00    -0.269 OA
ATOM      4  H   UNL     1       3.160   3.460  -0.084  0.00  0.00    +0.155 HD
ENDROOT
BRANCH   2   5
ATOM      5  C   UNL     1       3.479   6.042  -0.044  0.00  0.00    +0.075 A 
ATOM      6  C   UNL     1       3.640   7.416   0.015  0.00  0.00    +0.026 A 
ATOM      7  C   UNL     1       4.899   7.964  -0.125  0.00  0.00    -0.011 A 
ATOM      8  C   UNL     1       5.946   7.069  -0.314  0.00  0.00    +0.027 A 
ATOM      9  S   UNL     1       5.153   5.482  -0.316  0.00  0.00    -0.083 S 
ATOM     10  C   UNL     1       7.366   7.373  -0.493  0.00  0.00    +0.014 A 
ATOM     11  C   UNL     1       8.240   6.430  -1.038  0.00  0.00    +0.011 A 
ATOM     12  C   UNL     1       9.569   6.750  -1.222  0.00  0.00    +0.001 A 
ATOM     13  C   UNL     1      10.039   8.004  -0.871  0.00  0.00    +0.002 A 
ATOM     14  C   UNL     1       9.182   8.941  -0.321  0.00  0.00    +0.027 A 
ATOM     15  C   UNL     1       7.856   8.627  -0.118  0.00  0.00    +0.097 A 
ATOM     16  S   UNL     1       6.771   9.786   0.649  0.00  0.00    +0.002 S 
ATOM     17  O   UNL     1       6.763   9.419   2.022  0.00  0.00    -0.169 OA
ATOM     18  O   UNL     1       7.255  11.058   0.243  0.00  0.00    -0.169 OA
ATOM     19  C   UNL     1       5.146   9.470  -0.091  0.00  0.00    +0.208 C 
ENDBRANCH   2   5
BRANCH   1  25
ATOM     20  C   UNL     1       1.094   1.903   0.610  0.00  0.00    +0.084 A 
ATOM     21  C   UNL     1      -0.094   1.162   0.611  0.00  0.00    +0.066 A 
ATOM     22  C   UNL     1      -1.224   1.670   0.006  0.00  0.00    +0.167 A 
ATOM     23  C   UNL     1      -1.190   2.928  -0.602  0.00  0.00    +0.168 A 
ATOM     24  C   UNL     1      -0.018   3.667  -0.607  0.00  0.00    +0.073 A 
ATOM     25  C   UNL     1       1.126   3.165  -0.006  0.00  0.00    +0.051 A 
ATOM     26  O   UNL     1      -2.424   3.196  -1.115  0.00  0.00    -0.453 OA
ATOM     27  C   UNL     1      -3.322   2.282  -0.459  0.00  0.00    +0.466 C 
ATOM     28  O   UNL     1      -2.485   1.159  -0.124  0.00  0.00    -0.453 OA
BRANCH  20  29
ATOM     29  C   UNL     1       2.303   1.362   1.250  0.00  0.00    +0.341 C 
ATOM     30  O   UNL     1       3.355   1.966   1.169  0.00  0.00    -0.245 OA
BRANCH  29  32
ATOM     31  C   UNL     1       3.475  -0.275   2.533  0.00  0.00    +0.280 C 
ATOM     32  O   UNL     1       2.244   0.198   1.926  0.00  0.00    -0.464 OA
ENDBRANCH  29  32
ENDBRANCH  20  29
ENDBRANCH   1  25
TORSDOF 4
