REMARK  Name = ZINC13389643
REMARK  7 active torsions:
REMARK  status: ('A' for Active; 'I' for Inactive)
REMARK    1  A    between atoms: C_1  and  C_2
REMARK    2  A    between atoms: C_5  and  N_8
REMARK    3  A    between atoms: C_17  and  S_18
REMARK    4  A    between atoms: S_18  and  C_19
REMARK    5  A    between atoms: C_19  and  C_20
REMARK    6  A    between atoms: N_22  and  C_23
REMARK    7  A    between atoms: C_26  and  N_29
REMARK                            x       y       z     vdW  Elec       q    Type
REMARK                         _______ _______ _______ _____ _____    ______ ____
ROOT
ATOM      1  N   UNL     1       0.818  -5.031  -0.091  0.00  0.00    -0.255 N 
ATOM      2  C   UNL     1       1.247  -3.750  -0.181  0.00  0.00    +0.268 A 
ATOM      3  O   UNL     1       2.398  -3.473  -0.473  0.00  0.00    -0.267 OA
ATOM      4  C   UNL     1       0.267  -2.741   0.088  0.00  0.00    +0.076 A 
ATOM      5  C   UNL     1       0.471  -1.302   0.058  0.00  0.00    -0.023 A 
ATOM      6  C   UNL     1      -0.601  -0.530   0.347  0.00  0.00    -0.004 A 
ATOM      7  S   UNL     1      -1.922  -1.671   0.670  0.00  0.00    -0.073 S 
ATOM      8  C   UNL     1      -1.037  -3.177   0.417  0.00  0.00    +0.117 A 
ATOM      9  N   UNL     1      -1.396  -4.453   0.489  0.00  0.00    -0.215 NA
ATOM     10  C   UNL     1      -0.465  -5.362   0.235  0.00  0.00    +0.178 A 
ATOM     11  C   UNL     1      -0.658   0.966   0.386  0.00  0.00    +0.043 C 
ATOM     12  C   UNL     1       0.778   1.507   0.409  0.00  0.00    +0.005 C 
ATOM     13  C   UNL     1       1.588   0.794  -0.678  0.00  0.00    +0.005 C 
ATOM     14  C   UNL     1       1.816  -0.665  -0.280  0.00  0.00    +0.037 C 
ENDROOT
BRANCH   1  19
ATOM     15  C   UNL     1       4.521  -9.208  -1.112  0.00  0.00    +0.044 C 
ATOM     16  C   UNL     1       3.537  -8.099  -0.841  0.00  0.00    -0.050 A 
ATOM     17  C   UNL     1       3.166  -7.241  -1.860  0.00  0.00    +0.005 A 
ATOM     18  C   UNL     1       2.265  -6.223  -1.615  0.00  0.00    +0.026 A 
ATOM     19  C   UNL     1       1.732  -6.063  -0.343  0.00  0.00    +0.052 A 
ATOM     20  C   UNL     1       2.109  -6.923   0.679  0.00  0.00    +0.026 A 
ATOM     21  C   UNL     1       3.007  -7.941   0.427  0.00  0.00    +0.005 A 
ENDBRANCH   1  19
BRANCH  10  22
ATOM     22  S   UNL     1      -0.902  -7.067   0.320  0.00  0.00    -0.078 S 
BRANCH  22  23
ATOM     23  C   UNL     1      -2.648  -6.921   0.773  0.00  0.00    +0.173 C 
BRANCH  23  24
ATOM     24  C   UNL     1      -3.249  -8.297   0.906  0.00  0.00    +0.227 C 
ATOM     25  O   UNL     1      -2.564  -9.279   0.714  0.00  0.00    -0.275 OA
ATOM     26  N   UNL     1      -4.548  -8.436   1.239  0.00  0.00    -0.285 N 
ATOM     27  H   UNL     1      -5.115  -7.653   1.314  0.00  0.00    +0.155 HD
BRANCH  26  28
ATOM     28  C   UNL     1      -5.077  -9.709   1.477  0.00  0.00    +0.034 A 
ATOM     29  C   UNL     1      -6.389  -9.994   1.124  0.00  0.00    +0.025 A 
ATOM     30  C   UNL     1      -6.907 -11.254   1.354  0.00  0.00    +0.034 A 
ATOM     31  C   UNL     1      -6.123 -12.227   1.946  0.00  0.00    +0.126 A 
ATOM     32  C   UNL     1      -4.817 -11.945   2.304  0.00  0.00    +0.034 A 
ATOM     33  C   UNL     1      -4.292 -10.689   2.071  0.00  0.00    +0.025 A 
BRANCH  31  34
ATOM     34  N   UNL     1      -6.683 -13.574   2.197  0.00  0.00    +0.056 N 
ATOM     35  O   UNL     1      -5.993 -14.433   2.718  0.00  0.00    -0.126 OA
ATOM     36  O   UNL     1      -7.832 -13.824   1.883  0.00  0.00    -0.126 OA
ENDBRANCH  31  34
ENDBRANCH  26  28
ENDBRANCH  23  24
ENDBRANCH  22  23
ENDBRANCH  10  22
TORSDOF 6
