REMARK  Name = ZINC11689843
REMARK  10 active torsions:
REMARK  status: ('A' for Active; 'I' for Inactive)
REMARK    1  A    between atoms: C_1  and  C_2
REMARK    2  A    between atoms: C_5  and  C_8
REMARK    3  A    between atoms: C_13  and  C_20
REMARK    4  A    between atoms: N_22  and  C_23
REMARK    5  A    between atoms: C_25  and  C_33
REMARK    6  A    between atoms: C_28  and  C_29
REMARK    7  A    between atoms: C_29  and  O_31
REMARK    8  A    between atoms: O_31  and  C_32
REMARK    9  A    between atoms: C_33  and  O_35
REMARK   10  A    between atoms: O_35  and  C_36
REMARK                            x       y       z     vdW  Elec       q    Type
REMARK                         _______ _______ _______ _____ _____    ______ ____
ROOT
ATOM      1  C   UNL     1       4.825   1.355   0.506  0.00  0.00    +0.211 C 
ATOM      2  C   UNL     1       3.674   2.217  -0.013  0.00  0.00    +0.085 C 
ATOM      3  C   UNL     1       2.386   1.438   0.007  0.00  0.00    -0.029 A 
ATOM      4  C   UNL     1       1.180   2.107   0.009  0.00  0.00    +0.017 A 
ATOM      5  C   UNL     1      -0.017   1.390   0.021  0.00  0.00    +0.037 A 
ATOM      6  C   UNL     1       0.002  -0.005   0.032  0.00  0.00    +0.014 A 
ATOM      7  C   UNL     1       1.206  -0.676   0.031  0.00  0.00    +0.016 A 
ATOM      8  C   UNL     1       2.401   0.042   0.019  0.00  0.00    +0.062 A 
ATOM      9  C   UNL     1       3.702  -0.672   0.023  0.00  0.00    +0.340 C 
ATOM     10  O   UNL     1       3.766  -1.871   0.206  0.00  0.00    -0.245 OA
ATOM     11  O   UNL     1       4.817   0.073  -0.188  0.00  0.00    -0.453 OA
ENDROOT
BRANCH   1  16
ATOM     12  C   UNL     1       9.845   4.045  -0.471  0.00  0.00    +0.044 C 
ATOM     13  C   UNL     1       8.537   3.342  -0.216  0.00  0.00    -0.050 A 
ATOM     14  C   UNL     1       7.962   3.387   1.040  0.00  0.00    +0.004 A 
ATOM     15  C   UNL     1       6.761   2.743   1.274  0.00  0.00    +0.007 A 
ATOM     16  C   UNL     1       6.134   2.056   0.252  0.00  0.00    -0.007 A 
ATOM     17  C   UNL     1       6.712   2.007  -1.004  0.00  0.00    +0.007 A 
ATOM     18  C   UNL     1       7.910   2.654  -1.239  0.00  0.00    +0.004 A 
ENDBRANCH   1  16
BRANCH   5  19
ATOM     19  C   UNL     1      -1.310   2.111   0.018  0.00  0.00    +0.248 C 
ATOM     20  O   UNL     1      -1.328   3.326   0.009  0.00  0.00    -0.270 OA
ATOM     21  N   UNL     1      -2.467   1.420   0.024  0.00  0.00    -0.281 N 
ATOM     22  H   UNL     1      -2.455   0.453  -0.051  0.00  0.00    +0.155 HD
BRANCH  21  23
ATOM     23  C   UNL     1      -3.679   2.094   0.137  0.00  0.00    +0.048 A 
ATOM     24  C   UNL     1      -3.729   3.339   0.750  0.00  0.00    +0.039 A 
ATOM     25  C   UNL     1      -4.945   4.010   0.861  0.00  0.00    +0.061 A 
ATOM     26  C   UNL     1      -6.113   3.433   0.356  0.00  0.00    +0.016 A 
ATOM     27  C   UNL     1      -6.069   2.199  -0.252  0.00  0.00    +0.017 A 
ATOM     28  C   UNL     1      -4.854   1.520  -0.373  0.00  0.00    +0.080 A 
BRANCH  28  29
ATOM     29  C   UNL     1      -4.806   0.200  -1.030  0.00  0.00    +0.341 C 
ATOM     30  O   UNL     1      -3.768  -0.431  -1.052  0.00  0.00    -0.245 OA
BRANCH  29  31
ATOM     31  O   UNL     1      -5.913  -0.306  -1.607  0.00  0.00    -0.464 OA
ATOM     32  C   UNL     1      -5.793  -1.609  -2.236  0.00  0.00    +0.280 C 
ENDBRANCH  29  31
ENDBRANCH  28  29
BRANCH  25  33
ATOM     33  C   UNL     1      -4.999   5.337   1.513  0.00  0.00    +0.339 C 
ATOM     34  O   UNL     1      -3.984   5.839   1.952  0.00  0.00    -0.245 OA
BRANCH  33  35
ATOM     35  O   UNL     1      -6.173   5.987   1.621  0.00  0.00    -0.464 OA
ATOM     36  C   UNL     1      -6.151   7.284   2.273  0.00  0.00    +0.280 C 
ENDBRANCH  33  35
ENDBRANCH  25  33
ENDBRANCH  21  23
ENDBRANCH   5  19
TORSDOF 7
