REMARK  Name = ZINC18322620
REMARK  7 active torsions:
REMARK  status: ('A' for Active; 'I' for Inactive)
REMARK    1  A    between atoms: C_4  and  C_7
REMARK    2  A    between atoms: C_15  and  C_25
REMARK    3  A    between atoms: C_17  and  C_19
REMARK    4  A    between atoms: C_25  and  C_27
REMARK    5  A    between atoms: C_25  and  C_33
REMARK    6  A    between atoms: C_33  and  C_34
REMARK    7  A    between atoms: C_33  and  C_36
REMARK                            x       y       z     vdW  Elec       q    Type
REMARK                         _______ _______ _______ _____ _____    ______ ____
ROOT
ATOM      1  C   UNL     1       3.919  -1.235   0.939  0.00  0.00    +0.080 A 
ATOM      2  C   UNL     1       4.072  -2.594   0.930  0.00  0.00    +0.077 A 
ATOM      3  S   UNL     1       5.814  -2.729   0.548  0.00  0.00    -0.058 S 
ATOM      4  C   UNL     1       6.155  -0.977   0.441  0.00  0.00    +0.188 A 
ATOM      5  N   UNL     1       4.965  -0.462   0.689  0.00  0.00    -0.223 NA
ATOM      6  N   UNL     1       7.354  -0.330   0.165  0.00  0.00    -0.135 N 
ATOM      7  C   UNL     1       8.519  -0.960  -0.086  0.00  0.00    +0.251 C 
ATOM      8  O   UNL     1       8.717  -2.157  -0.114  0.00  0.00    -0.273 OA
ATOM      9  C   UNL     1       9.529   0.144  -0.327  0.00  0.00    +0.137 C 
ATOM     10  C   UNL     1       8.718   1.413  -0.164  0.00  0.00    +0.080 C 
ATOM     11  N   UNL     1       7.505   1.052   0.107  0.00  0.00    -0.174 NA
ENDROOT
BRANCH   1  15
ATOM     12  C   UNL     1       0.119   0.492   1.746  0.00  0.00    +0.000 A 
ATOM     13  C   UNL     1       1.205   1.308   1.486  0.00  0.00    +0.001 A 
ATOM     14  C   UNL     1       2.441   0.753   1.224  0.00  0.00    +0.010 A 
ATOM     15  C   UNL     1       2.594  -0.632   1.221  0.00  0.00    +0.001 A 
ATOM     16  C   UNL     1       1.495  -1.450   1.483  0.00  0.00    +0.010 A 
ATOM     17  C   UNL     1       0.264  -0.883   1.744  0.00  0.00    +0.001 A 
ENDBRANCH   1  15
BRANCH  10  18
ATOM     18  C   UNL     1       9.215   2.795  -0.294  0.00  0.00    -0.001 A 
ATOM     19  C   UNL     1      10.581   3.038  -0.458  0.00  0.00    +0.010 A 
ATOM     20  C   UNL     1      11.038   4.333  -0.579  0.00  0.00    +0.001 A 
ATOM     21  C   UNL     1      10.148   5.391  -0.537  0.00  0.00    +0.000 A 
ATOM     22  C   UNL     1       8.793   5.159  -0.374  0.00  0.00    +0.001 A 
ATOM     23  C   UNL     1       8.321   3.868  -0.259  0.00  0.00    +0.010 A 
ENDBRANCH  10  18
BRANCH   9  24
ATOM     24  C   UNL     1      10.104   0.048  -1.742  0.00  0.00    +0.068 C 
BRANCH  24  25
ATOM     25  C   UNL     1       9.000   0.248  -2.748  0.00  0.00    -0.041 A 
ATOM     26  C   UNL     1       7.916  -0.610  -2.764  0.00  0.00    +0.004 A 
ATOM     27  C   UNL     1       6.904  -0.427  -3.687  0.00  0.00    +0.000 A 
ATOM     28  C   UNL     1       6.974   0.615  -4.593  0.00  0.00    +0.000 A 
ATOM     29  C   UNL     1       8.058   1.473  -4.576  0.00  0.00    +0.000 A 
ATOM     30  C   UNL     1       9.068   1.292  -3.651  0.00  0.00    +0.004 A 
ENDBRANCH  24  25
BRANCH  24  31
ATOM     31  C   UNL     1      10.735  -1.331  -1.943  0.00  0.00    +0.202 C 
BRANCH  31  32
ATOM     32  C   UNL     1      11.397  -1.381  -3.257  0.00  0.00    +0.081 C 
ATOM     33  N   UNL     1      11.909  -1.419  -4.270  0.00  0.00    -0.195 NA
ENDBRANCH  31  32
BRANCH  31  34
ATOM     34  C   UNL     1      11.726  -1.577  -0.884  0.00  0.00    +0.081 C 
ATOM     35  N   UNL     1      12.492  -1.767  -0.066  0.00  0.00    -0.195 NA
ENDBRANCH  31  34
ENDBRANCH  24  31
ENDBRANCH   9  24
TORSDOF 7
