REMARK  Name = ZINC37360032
REMARK  5 active torsions:
REMARK  status: ('A' for Active; 'I' for Inactive)
REMARK    1  A    between atoms: C_3  and  N_8
REMARK    2  A    between atoms: C_9  and  N_33
REMARK    3  A    between atoms: C_11  and  C_25
REMARK    4  A    between atoms: N_17  and  C_18
REMARK    5  A    between atoms: C_18  and  C_19
REMARK                            x       y       z     vdW  Elec       q    Type
REMARK                         _______ _______ _______ _____ _____    ______ ____
ROOT
ATOM      1  N   UNL     1       3.524   2.356   0.342  0.00  0.00    -0.216 N 
ATOM      2  C   UNL     1       4.682   1.937   0.890  0.00  0.00    +0.131 A 
ATOM      3  C   UNL     1       5.674   2.829   0.502  0.00  0.00    +0.086 A 
ATOM      4  C   UNL     1       7.063   2.957   0.727  0.00  0.00    +0.091 A 
ATOM      5  N   UNL     1       7.698   3.981   0.170  0.00  0.00    -0.214 NA
ATOM      6  C   UNL     1       7.069   4.877  -0.585  0.00  0.00    +0.218 A 
ATOM      7  N   UNL     1       5.779   4.833  -0.845  0.00  0.00    -0.193 NA
ATOM      8  C   UNL     1       5.017   3.844  -0.341  0.00  0.00    +0.189 A 
ATOM      9  N   UNL     1       3.745   3.516  -0.409  0.00  0.00    -0.144 NA
ATOM     10  N   UNL     1       7.811   5.912  -1.126  0.00  0.00    -0.311 N 
ATOM     11  H   UNL     1       8.763   5.969  -0.951  0.00  0.00    +0.149 HD
ENDROOT
BRANCH   4  12
ATOM     12  C   UNL     1       7.791   1.977   1.563  0.00  0.00    +0.039 A 
ATOM     13  C   UNL     1       7.785   0.624   1.221  0.00  0.00    +0.013 A 
ATOM     14  C   UNL     1       8.465  -0.286   2.003  0.00  0.00    +0.004 A 
ATOM     15  C   UNL     1       9.154   0.138   3.127  0.00  0.00    +0.041 A 
ATOM     16  C   UNL     1       9.166   1.477   3.474  0.00  0.00    +0.159 A 
ATOM     17  C   UNL     1       8.492   2.402   2.694  0.00  0.00    +0.168 A 
ATOM     18  F   UNL     1       8.507   3.711   3.029  0.00  0.00    -0.202 F 
ATOM     19  F   UNL     1       9.839   1.884   4.572  0.00  0.00    -0.202 F 
ENDBRANCH   4  12
BRANCH   1  22
ATOM     20  C   UNL     1      -0.100   1.848   0.714  0.00  0.00    +0.005 A 
ATOM     21  C   UNL     1       1.121   2.475   0.562  0.00  0.00    +0.028 A 
ATOM     22  C   UNL     1       2.285   1.721   0.497  0.00  0.00    +0.070 A 
ATOM     23  C   UNL     1       2.219   0.337   0.584  0.00  0.00    +0.066 A 
ATOM     24  C   UNL     1       0.994  -0.286   0.737  0.00  0.00    +0.125 A 
ATOM     25  C   UNL     1      -0.165   0.470   0.801  0.00  0.00    +0.038 A 
ATOM     26  F   UNL     1       0.927  -1.633   0.822  0.00  0.00    -0.205 F 
ENDBRANCH   1  22
BRANCH   2  27
ATOM     27  N   UNL     1       4.851   0.823   1.691  0.00  0.00    -0.342 N 
ATOM     28  H   UNL     1       4.080   0.311   1.978  0.00  0.00    +0.144 HD
ATOM     29  H   UNL     1       5.742   0.554   1.965  0.00  0.00    +0.144 HD
ENDBRANCH   2  27
BRANCH  10  30
ATOM     30  C   UNL     1       7.158   6.921  -1.964  0.00  0.00    +0.136 C 
BRANCH  30  31
ATOM     31  C   UNL     1       8.194   7.944  -2.431  0.00  0.00    +0.135 C 
ATOM     32  C   UNL     1       7.496   9.077  -3.213  0.00  0.00    +0.035 C 
ATOM     33  C   UNL     1       8.504   9.355  -4.362  0.00  0.00    +0.031 C 
ATOM     34  C   UNL     1       9.061   7.931  -4.615  0.00  0.00    +0.160 C 
ATOM     35  O   UNL     1       9.131   7.319  -3.315  0.00  0.00    -0.375 OA
ENDBRANCH  30  31
ENDBRANCH  10  30
TORSDOF 5
