REMARK  Name = ZINC35968658
REMARK  10 active torsions:
REMARK  status: ('A' for Active; 'I' for Inactive)
REMARK    1  A    between atoms: C_1  and  C_2
REMARK    2  A    between atoms: C_2  and  C_3
REMARK    3  A    between atoms: C_2  and  C_4
REMARK    4  A    between atoms: C_4  and  N_5
REMARK    5  A    between atoms: C_6  and  C_8
REMARK    6  A    between atoms: C_8  and  C_10
REMARK    7  A    between atoms: C_8  and  N_16
REMARK    8  A    between atoms: C_22  and  C_31
REMARK    9  A    between atoms: N_27  and  C_28
REMARK   10  A    between atoms: C_28  and  C_29
REMARK                            x       y       z     vdW  Elec       q    Type
REMARK                         _______ _______ _______ _____ _____    ______ ____
ROOT
ATOM      1  N   UNL     1       0.340  -0.905   5.934  0.00  0.00    -0.277 N 
ATOM      2  C   UNL     1       0.920  -0.403   7.189  0.00  0.00    +0.160 C 
ATOM      3  C   UNL     1       1.459  -1.632   7.886  0.00  0.00    +0.043 C 
ATOM      4  C   UNL     1       1.189  -2.676   7.078  0.00  0.00    +0.058 C 
ATOM      5  C   UNL     1       0.518  -2.238   5.918  0.00  0.00    +0.247 C 
ATOM      6  O   UNL     1       0.149  -2.970   5.018  0.00  0.00    -0.270 OA
ATOM      7  C   UNL     1       1.626  -4.053   7.536  0.00  0.00    +0.142 C 
ATOM      8  N   UNL     1       2.314  -4.136   8.835  0.00  0.00    -0.288 N 
ATOM      9  C   UNL     1       2.512  -2.999   9.531  0.00  0.00    +0.307 C 
ATOM     10  O   UNL     1       3.079  -3.058  10.604  0.00  0.00    -0.252 OA
ATOM     11  N   UNL     1       2.104  -1.807   9.078  0.00  0.00    -0.253 N 
ATOM     12  H   UNL     1       2.617  -4.990   9.182  0.00  0.00    +0.151 HD
ENDROOT
BRANCH   7  13
ATOM     13  C   UNL     1       0.403  -4.931   7.601  0.00  0.00    -0.020 A 
ATOM     14  C   UNL     1      -0.448  -4.850   8.688  0.00  0.00    +0.006 A 
ATOM     15  C   UNL     1      -1.570  -5.654   8.750  0.00  0.00    +0.003 A 
ATOM     16  C   UNL     1      -1.843  -6.541   7.725  0.00  0.00    +0.038 A 
ATOM     17  C   UNL     1      -0.992  -6.622   6.636  0.00  0.00    +0.124 A 
ATOM     18  C   UNL     1       0.129  -5.812   6.573  0.00  0.00    +0.044 A 
ATOM     19  F   UNL     1      -1.257  -7.489   5.634  0.00  0.00    -0.205 F 
ENDBRANCH   7  13
BRANCH   1  20
ATOM     20  C   UNL     1      -0.315  -0.103   4.898  0.00  0.00    +0.193 C 
BRANCH  20  21
ATOM     21  C   UNL     1       0.627   0.975   4.426  0.00  0.00    -0.018 A 
ATOM     22  C   UNL     1       1.164   1.869   5.333  0.00  0.00    +0.006 A 
ATOM     23  C   UNL     1       2.028   2.858   4.901  0.00  0.00    +0.000 A 
ATOM     24  C   UNL     1       2.355   2.951   3.561  0.00  0.00    +0.000 A 
ATOM     25  C   UNL     1       1.819   2.057   2.654  0.00  0.00    +0.000 A 
ATOM     26  C   UNL     1       0.959   1.065   3.087  0.00  0.00    +0.006 A 
ENDBRANCH  20  21
BRANCH  20  28
ATOM     27  N   UNL     1      -2.329   1.318   4.687  0.00  0.00    -0.313 N 
ATOM     28  C   UNL     1      -1.560   0.531   5.465  0.00  0.00    +0.238 C 
ATOM     29  O   UNL     1      -1.869   0.332   6.620  0.00  0.00    -0.273 OA
ATOM     30  H   UNL     1      -2.082   1.477   3.763  0.00  0.00    +0.149 HD
BRANCH  27  31
ATOM     31  C   UNL     1      -3.539   1.934   5.238  0.00  0.00    +0.107 C 
BRANCH  31  33
ATOM     32  C   UNL     1      -4.711   1.854   3.033  0.00  0.00    +0.009 C 
ATOM     33  C   UNL     1      -4.223   2.772   4.156  0.00  0.00    -0.000 C 
ATOM     34  C   UNL     1      -5.415   3.514   4.763  0.00  0.00    +0.009 C 
ENDBRANCH  31  33
ENDBRANCH  27  31
ENDBRANCH  20  28
ENDBRANCH   1  20
BRANCH  11  35
ATOM     35  C   UNL     1       2.365  -0.626   9.904  0.00  0.00    +0.141 C 
BRANCH  35  36
ATOM     36  C   UNL     1       1.204  -0.400  10.838  0.00  0.00    -0.015 C 
ATOM     37  C   UNL     1       1.408  -0.318  12.130  0.00  0.00    +0.005 C 
ENDBRANCH  35  36
ENDBRANCH  11  35
TORSDOF 8
