REMARK  Name = ZINC21232078
REMARK  7 active torsions:
REMARK  status: ('A' for Active; 'I' for Inactive)
REMARK    1  A    between atoms: C_1  and  O_2
REMARK    2  A    between atoms: O_2  and  C_3
REMARK    3  A    between atoms: C_8  and  C_9
REMARK    4  A    between atoms: C_14  and  C_24
REMARK    5  A    between atoms: C_27  and  O_31
REMARK    6  A    between atoms: C_28  and  O_30
REMARK    7  A    between atoms: O_31  and  C_32
REMARK                            x       y       z     vdW  Elec       q    Type
REMARK                         _______ _______ _______ _____ _____    ______ ____
ROOT
ATOM      1  C   UNL     1      -0.323   5.333   0.629  0.00  0.00    +0.035 C 
ATOM      2  C   UNL     1      -0.996   5.715  -0.688  0.00  0.00    +0.060 C 
ATOM      3  C   UNL     1      -0.953   7.222  -0.876  0.00  0.00    +0.017 C 
ATOM      4  C   UNL     1      -0.999   8.043   0.187  0.00  0.00    +0.036 C 
ATOM      5  C   UNL     1      -0.966   9.552   0.144  0.00  0.00    +0.136 C 
ATOM      6  N   UNL     1      -1.141  10.119  -1.177  0.00  0.00    -0.331 N 
ATOM      7  C   UNL     1      -0.199   9.904  -2.181  0.00  0.00    +0.049 A 
ATOM      8  C   UNL     1       0.546  10.945  -2.711  0.00  0.00    +0.025 A 
ATOM      9  C   UNL     1       1.503  10.676  -3.674  0.00  0.00    +0.002 A 
ATOM     10  C   UNL     1       1.717   9.379  -4.104  0.00  0.00    +0.002 A 
ATOM     11  C   UNL     1       0.962   8.338  -3.590  0.00  0.00    +0.025 A 
ATOM     12  C   UNL     1      -0.009   8.610  -2.643  0.00  0.00    +0.052 A 
ATOM     13  N   UNL     1      -0.877   7.632  -2.167  0.00  0.00    -0.316 N 
ATOM     14  C   UNL     1      -1.079   7.510   1.496  0.00  0.00    +0.163 C 
ATOM     15  O   UNL     1      -1.146   8.276   2.437  0.00  0.00    -0.292 OA
ATOM     16  C   UNL     1      -1.081   6.035   1.762  0.00  0.00    +0.088 C 
ATOM     17  H   UNL     1      -2.028  10.730  -1.399  0.00  0.00    +0.147 HD
ATOM     18  H   UNL     1      -1.535   7.183  -2.926  0.00  0.00    +0.152 HD
ENDROOT
BRANCH   1  24
ATOM     19  C   UNL     1       0.786   3.108   0.955  0.00  0.00    +0.124 A 
ATOM     20  C   UNL     1       0.725   1.733   1.131  0.00  0.00    +0.046 A 
ATOM     21  C   UNL     1      -0.500   1.096   1.172  0.00  0.00    +0.004 A 
ATOM     22  C   UNL     1      -1.665   1.827   1.032  0.00  0.00    +0.001 A 
ATOM     23  C   UNL     1      -1.608   3.198   0.862  0.00  0.00    +0.007 A 
ATOM     24  C   UNL     1      -0.385   3.840   0.821  0.00  0.00    -0.002 A 
BRANCH  19  26
ATOM     25  C   UNL     1       3.153   2.920   1.059  0.00  0.00    +0.277 C 
ATOM     26  O   UNL     1       1.990   3.736   0.914  0.00  0.00    -0.495 OA
ENDBRANCH  19  26
ENDBRANCH   1  24
BRANCH   5  27
ATOM     27  C   UNL     1       0.360  10.016   0.690  0.00  0.00    -0.019 A 
ATOM     28  C   UNL     1       1.531   9.681   0.037  0.00  0.00    +0.009 A 
ATOM     29  C   UNL     1       2.749  10.108   0.532  0.00  0.00    +0.050 A 
ATOM     30  C   UNL     1       2.799  10.865   1.691  0.00  0.00    +0.161 A 
ATOM     31  C   UNL     1       1.620  11.198   2.352  0.00  0.00    +0.159 A 
ATOM     32  C   UNL     1       0.402  10.771   1.847  0.00  0.00    +0.055 A 
BRANCH  31  33
ATOM     33  O   UNL     1       1.663  11.941   3.490  0.00  0.00    -0.503 OA
ATOM     34  H   UNL     1       0.731  12.204   4.012  0.00  0.00    +0.292 HD
ENDBRANCH  31  33
BRANCH  30  35
ATOM     35  O   UNL     1       3.996  11.283   2.182  0.00  0.00    -0.491 OA
ATOM     36  C   UNL     1       5.164  10.903   1.452  0.00  0.00    +0.277 C 
ENDBRANCH  30  35
ENDBRANCH   5  27
TORSDOF 5
