REMARK  Name = ZINC36206992
REMARK  13 active torsions:
REMARK  status: ('A' for Active; 'I' for Inactive)
REMARK    1  A    between atoms: C_1  and  C_2
REMARK    2  A    between atoms: C_7  and  O_8
REMARK    3  A    between atoms: O_8  and  C_9
REMARK    4  A    between atoms: C_9  and  C_10
REMARK    5  A    between atoms: C_10  and  C_12
REMARK    6  A    between atoms: C_10  and  O_34
REMARK    7  A    between atoms: C_12  and  N_13
REMARK    8  A    between atoms: N_13  and  C_14
REMARK    9  A    between atoms: N_13  and  C_20
REMARK   10  A    between atoms: C_14  and  C_15
REMARK   11  A    between atoms: C_20  and  C_21
REMARK   12  A    between atoms: C_27  and  C_33
REMARK   13  A    between atoms: C_28  and  C_32
REMARK                            x       y       z     vdW  Elec       q    Type
REMARK                         _______ _______ _______ _____ _____    ______ ____
ROOT
ATOM      1  N   UNL     1      -0.045   0.192   6.840  0.00  0.00    +0.391 N 
ATOM      2  H   UNL     1       0.629   0.928   6.691  0.00  0.00    -0.080 HD
ENDROOT
BRANCH   1   3
ATOM      3  C   UNL     1       0.149  -0.861   5.835  0.00  0.00    -0.043 C 
BRANCH   3   4
ATOM      4  C   UNL     1       0.083  -0.248   4.435  0.00  0.00    +0.135 C 
BRANCH   4   5
ATOM      5  O   UNL     1       1.179   0.652   4.257  0.00  0.00    -0.390 OA
ATOM      6  H   UNL     1       2.048   0.236   4.346  0.00  0.00    +0.210 HD
ENDBRANCH   4   5
BRANCH   4   7
ATOM      7  C   UNL     1       0.161  -1.360   3.387  0.00  0.00    +0.258 C 
BRANCH   7   8
ATOM      8  O   UNL     1      -0.018  -0.800   2.084  0.00  0.00    -0.489 OA
BRANCH   8  15
ATOM      9  C   UNL     1      -0.368   0.286  -0.500  0.00  0.00    +0.047 C 
ATOM     10  C   UNL     1      -0.142  -1.184  -0.260  0.00  0.00    -0.009 A 
ATOM     11  C   UNL     1      -0.093  -2.059  -1.328  0.00  0.00    +0.007 A 
ATOM     12  C   UNL     1       0.115  -3.408  -1.109  0.00  0.00    +0.000 A 
ATOM     13  C   UNL     1       0.274  -3.886   0.179  0.00  0.00    +0.004 A 
ATOM     14  C   UNL     1       0.227  -3.015   1.250  0.00  0.00    +0.046 A 
ATOM     15  C   UNL     1       0.024  -1.660   1.032  0.00  0.00    +0.124 A 
ENDBRANCH   8  15
ENDBRANCH   7   8
ENDBRANCH   4   7
ENDBRANCH   3   4
ENDBRANCH   1   3
BRANCH   1  16
ATOM     16  C   UNL     1      -1.403   0.740   6.720  0.00  0.00    -0.002 C 
BRANCH  16  17
ATOM     17  C   UNL     1      -1.560   1.906   7.662  0.00  0.00    +0.089 A 
ATOM     18  C   UNL     1      -1.200   3.177   7.407  0.00  0.00    +0.042 A 
ATOM     19  C   UNL     1      -1.525   3.933   8.557  0.00  0.00    +0.041 A 
ATOM     20  C   UNL     1      -2.064   3.078   9.445  0.00  0.00    +0.195 A 
ATOM     21  O   UNL     1      -2.087   1.853   8.896  0.00  0.00    -0.470 OA
ENDBRANCH  16  17
ENDBRANCH   1  16
BRANCH   1  22
ATOM     22  C   UNL     1       0.137  -0.374   8.184  0.00  0.00    -0.003 C 
BRANCH  22  23
ATOM     23  C   UNL     1       1.577  -0.780   8.367  0.00  0.00    +0.094 A 
ATOM     24  N   UNL     1       1.944  -1.443   9.493  0.00  0.00    -0.312 N 
ATOM     25  H   UNL     1       1.275  -1.646  10.165  0.00  0.00    +0.170 HD
ATOM     26  C   UNL     1       3.219  -1.825   9.697  0.00  0.00    +0.260 A 
ATOM     27  O   UNL     1       3.533  -2.420  10.713  0.00  0.00    -0.267 OA
ATOM     28  C   UNL     1       4.202  -1.520   8.699  0.00  0.00    +0.075 A 
ATOM     29  C   UNL     1       5.621  -1.820   8.683  0.00  0.00    -0.026 A 
ATOM     30  C   UNL     1       6.361  -1.435   7.631  0.00  0.00    -0.008 A 
ATOM     31  S   UNL     1       5.178  -0.628   6.569  0.00  0.00    -0.073 S 
ATOM     32  C   UNL     1       3.727  -0.831   7.568  0.00  0.00    +0.116 A 
ATOM     33  N   UNL     1       2.447  -0.493   7.437  0.00  0.00    -0.229 NA
ATOM     34  C   UNL     1       7.837  -1.637   7.403  0.00  0.00    +0.052 C 
ATOM     35  C   UNL     1       6.258  -2.555   9.835  0.00  0.00    +0.045 C 
ENDBRANCH  22  23
ENDBRANCH   1  22
TORSDOF 10
