REMARK  Name = ZINC05257200
REMARK  6 active torsions:
REMARK  status: ('A' for Active; 'I' for Inactive)
REMARK    1  A    between atoms: C_4  and  N_8
REMARK    2  A    between atoms: C_9  and  C_11
REMARK    3  A    between atoms: C_11  and  S_12
REMARK    4  A    between atoms: S_12  and  C_13
REMARK    5  A    between atoms: C_16  and  C_19
REMARK    6  A    between atoms: N_17  and  N_18
REMARK                            x       y       z     vdW  Elec       q    Type
REMARK                         _______ _______ _______ _____ _____    ______ ____
ROOT
ATOM      1  S   UNL     1      -1.490   2.507  -2.949  0.00  0.00    -0.075 S 
ENDROOT
BRANCH   1   2
ATOM      2  C   UNL     1      -3.050   3.302  -2.750  0.00  0.00    +0.209 A 
ATOM      3  N   UNL     1      -3.543   3.786  -1.634  0.00  0.00    -0.121 NA
ATOM      4  N   UNL     1      -4.702   4.296  -1.853  0.00  0.00    -0.132 NA
ATOM      5  C   UNL     1      -5.016   4.168  -3.111  0.00  0.00    +0.154 A 
ATOM      6  N   UNL     1      -3.973   3.536  -3.729  0.00  0.00    -0.228 N 
BRANCH   5   7
ATOM      7  C   UNL     1      -6.290   4.636  -3.765  0.00  0.00    +0.059 C 
ATOM      8  C   UNL     1      -6.424   6.151  -3.597  0.00  0.00    +0.011 C 
ATOM      9  C   UNL     1      -7.717   6.626  -4.261  0.00  0.00    +0.001 C 
ATOM     10  C   UNL     1      -8.913   5.933  -3.604  0.00  0.00    +0.000 C 
ATOM     11  C   UNL     1      -8.779   4.418  -3.773  0.00  0.00    +0.001 C 
ATOM     12  C   UNL     1      -7.486   3.943  -3.108  0.00  0.00    +0.011 C 
ENDBRANCH   5   7
BRANCH   6  13
ATOM     13  N   UNL     1      -3.875   3.204  -5.050  0.00  0.00    -0.295 N 
ATOM     14  H   UNL     1      -4.251   2.283  -5.221  0.00  0.00    +0.163 HD
ATOM     15  H   UNL     1      -4.329   3.893  -5.631  0.00  0.00    +0.163 HD
ENDBRANCH   6  13
ENDBRANCH   1   2
BRANCH   1  16
ATOM     16  C   UNL     1      -0.877   2.588  -1.248  0.00  0.00    +0.173 C 
BRANCH  16  18
ATOM     17  N   UNL     1       1.143   1.898   0.001  0.00  0.00    -0.282 N 
ATOM     18  C   UNL     1       0.486   1.949  -1.174  0.00  0.00    +0.228 C 
ATOM     19  O   UNL     1       0.992   1.484  -2.173  0.00  0.00    -0.275 OA
ATOM     20  H   UNL     1       0.771   2.333   0.784  0.00  0.00    +0.155 HD
BRANCH  17  24
ATOM     21  C   UNL     1       4.777  -0.126   0.271  0.00  0.00    +0.003 A 
ATOM     22  C   UNL     1       4.760   1.223  -0.033  0.00  0.00    +0.022 A 
ATOM     23  C   UNL     1       3.557   1.897  -0.123  0.00  0.00    +0.064 A 
ATOM     24  C   UNL     1       2.364   1.218   0.092  0.00  0.00    +0.070 A 
ATOM     25  C   UNL     1       2.385  -0.136   0.402  0.00  0.00    +0.064 A 
ATOM     26  C   UNL     1       3.592  -0.805   0.486  0.00  0.00    +0.022 A 
ATOM     27 CL   UNL     1       0.898  -0.988   0.678  0.00  0.00    -0.082 Cl
ATOM     28 CL   UNL     1       3.537   3.591  -0.504  0.00  0.00    -0.082 Cl
ENDBRANCH  17  24
ENDBRANCH  16  18
ENDBRANCH   1  16
TORSDOF 6
