REMARK  Name = ZINC15988670
REMARK  9 active torsions:
REMARK  status: ('A' for Active; 'I' for Inactive)
REMARK    1  A    between atoms: C_1  and  N_2
REMARK    2  A    between atoms: N_2  and  C_3
REMARK    3  A    between atoms: N_2  and  S_9
REMARK    4  A    between atoms: S_9  and  C_12
REMARK    5  A    between atoms: C_16  and  C_18
REMARK    6  A    between atoms: N_20  and  C_21
REMARK    7  A    between atoms: C_21  and  C_22
REMARK    8  A    between atoms: C_22  and  C_24
REMARK    9  A    between atoms: C_22  and  N_29
REMARK                            x       y       z     vdW  Elec       q    Type
REMARK                         _______ _______ _______ _____ _____    ______ ____
ROOT
ATOM      1  C   UNL     1      -2.503   1.007   0.020  0.00  0.00    +0.244 C 
ATOM      2  O   UNL     1      -3.560   1.604  -0.040  0.00  0.00    -0.270 OA
ATOM      3  N   UNL     1      -2.490  -0.341   0.033  0.00  0.00    -0.312 N 
ATOM      4  H   UNL     1      -1.534  -0.881   0.087  0.00  0.00    +0.149 HD
ENDROOT
BRANCH   1   9
ATOM      5  C   UNL     1      -0.051   3.850   0.120  0.00  0.00    +0.106 A 
ATOM      6  C   UNL     1       1.151   3.167   0.182  0.00  0.00    +0.028 A 
ATOM      7  C   UNL     1       1.168   1.784   0.196  0.00  0.00    +0.003 A 
ATOM      8  C   UNL     1      -0.016   1.076   0.147  0.00  0.00    +0.013 A 
ATOM      9  C   UNL     1      -1.231   1.759   0.079  0.00  0.00    +0.039 A 
ATOM     10  C   UNL     1      -1.241   3.155   0.070  0.00  0.00    +0.041 A 
BRANCH   5  11
ATOM     11  S   UNL     1      -0.060   5.612   0.103  0.00  0.00    +0.061 S 
ATOM     12  O   UNL     1      -1.332   6.016   0.592  0.00  0.00    -0.153 OA
ATOM     13  O   UNL     1       1.156   6.031   0.707  0.00  0.00    -0.153 OA
BRANCH  11  15
ATOM     14  C   UNL     1      -1.226   6.289  -2.242  0.00  0.00    +0.132 C 
ATOM     15  N   UNL     1       0.010   6.087  -1.482  0.00  0.00    -0.177 NA
BRANCH  15  16
ATOM     16  C   UNL     1       1.309   6.304  -2.124  0.00  0.00    +0.080 C 
ATOM     17  C   UNL     1       1.404   7.754  -2.604  0.00  0.00    +0.020 C 
ATOM     18  C   UNL     1       2.760   7.981  -3.275  0.00  0.00    +0.002 C 
ATOM     19  C   UNL     1       2.902   7.037  -4.471  0.00  0.00    +0.000 C 
ATOM     20  C   UNL     1       2.808   5.588  -3.990  0.00  0.00    +0.002 C 
ATOM     21  C   UNL     1       1.451   5.361  -3.320  0.00  0.00    +0.020 C 
ENDBRANCH  15  16
ENDBRANCH  11  15
ENDBRANCH   5  11
ENDBRANCH   1   9
BRANCH   3  22
ATOM     22  C   UNL     1      -3.750  -1.086  -0.025  0.00  0.00    +0.097 C 
BRANCH  22  23
ATOM     23  C   UNL     1      -3.457  -2.587   0.004  0.00  0.00    +0.016 C 
BRANCH  23  24
ATOM     24  N   UNL     1      -2.526  -2.925  -1.081  0.00  0.00    +0.387 N 
ATOM     25  C   UNL     1      -3.064  -2.511  -2.383  0.00  0.00    -0.078 C 
ATOM     26  C   UNL     1      -2.011  -2.745  -3.469  0.00  0.00    -0.019 C 
ATOM     27  C   UNL     1      -1.636  -4.230  -3.498  0.00  0.00    -0.004 C 
ATOM     28  C   UNL     1      -1.125  -4.647  -2.117  0.00  0.00    -0.019 C 
ATOM     29  C   UNL     1      -2.204  -4.358  -1.070  0.00  0.00    -0.078 C 
ATOM     30  H   UNL     1      -1.592  -2.370  -0.912  0.00  0.00    -0.081 HD
ENDBRANCH  23  24
BRANCH  23  31
ATOM     31  C   UNL     1      -4.741  -3.353  -0.179  0.00  0.00    +0.093 A 
ATOM     32  C   UNL     1      -5.386  -4.047   0.776  0.00  0.00    +0.043 A 
ATOM     33  C   UNL     1      -6.537  -4.604   0.172  0.00  0.00    +0.041 A 
ATOM     34  C   UNL     1      -6.526  -4.217  -1.116  0.00  0.00    +0.195 A 
ATOM     35  O   UNL     1      -5.439  -3.455  -1.322  0.00  0.00    -0.469 OA
ENDBRANCH  23  31
ENDBRANCH  22  23
ENDBRANCH   3  22
TORSDOF 8
