REMARK  Name = ZINC06952465
REMARK  5 active torsions:
REMARK  status: ('A' for Active; 'I' for Inactive)
REMARK    1  A    between atoms: C_1  and  C_2
REMARK    2  A    between atoms: C_2  and  C_3
REMARK    3  A    between atoms: C_2  and  N_4
REMARK    4  A    between atoms: C_12  and  C_13
REMARK    5  A    between atoms: C_12  and  C_15
REMARK                            x       y       z     vdW  Elec       q    Type
REMARK                         _______ _______ _______ _____ _____    ______ ____
ROOT
ATOM      1  N   UNL     1       0.711  -0.489   1.189  0.00  0.00    -0.264 N 
ATOM      2  C   UNL     1       0.145  -1.310   2.159  0.00  0.00    +0.045 A 
ATOM      3  C   UNL     1      -1.127  -1.856   2.279  0.00  0.00    +0.024 A 
ATOM      4  C   UNL     1      -1.440  -2.653   3.362  0.00  0.00    +0.002 A 
ATOM      5  C   UNL     1      -0.495  -2.919   4.340  0.00  0.00    +0.001 A 
ATOM      6  C   UNL     1       0.774  -2.386   4.240  0.00  0.00    +0.010 A 
ATOM      7  C   UNL     1       1.100  -1.581   3.151  0.00  0.00    +0.010 A 
ATOM      8  C   UNL     1       2.332  -0.873   2.750  0.00  0.00    +0.067 C 
ATOM      9  C   UNL     1       3.546  -0.846   3.420  0.00  0.00    +0.107 C 
ATOM     10  C   UNL     1       1.992  -0.203   1.476  0.00  0.00    +0.253 C 
ATOM     11  O   UNL     1       2.739   0.486   0.808  0.00  0.00    -0.270 OA
ENDROOT
BRANCH   9  12
ATOM     12  C   UNL     1       4.675  -0.080   2.867  0.00  0.00    +0.150 A 
ATOM     13  N   UNL     1       5.919   0.015   3.437  0.00  0.00    -0.337 N 
ATOM     14  H   UNL     1       6.209  -0.404   4.262  0.00  0.00    +0.167 HD
ATOM     15  C   UNL     1       6.680   0.818   2.613  0.00  0.00    +0.066 A 
ATOM     16  C   UNL     1       7.991   1.273   2.654  0.00  0.00    +0.028 A 
ATOM     17  C   UNL     1       8.464   2.087   1.647  0.00  0.00    +0.002 A 
ATOM     18  C   UNL     1       7.639   2.455   0.593  0.00  0.00    +0.002 A 
ATOM     19  C   UNL     1       6.347   2.020   0.533  0.00  0.00    +0.030 A 
ATOM     20  C   UNL     1       5.842   1.191   1.544  0.00  0.00    +0.089 A 
ATOM     21  N   UNL     1       4.646   0.612   1.752  0.00  0.00    -0.227 NA
ENDBRANCH   9  12
BRANCH   1  23
ATOM     22  C   UNL     1      -0.019   1.526   0.010  0.00  0.00    +0.028 C 
ATOM     23  C   UNL     1       0.002  -0.004   0.002  0.00  0.00    +0.076 C 
ATOM     24  C   UNL     1       0.718  -0.497  -1.257  0.00  0.00    +0.028 C 
ENDBRANCH   1  23
BRANCH   9  25
ATOM     25  C   UNL     1       3.701  -1.564   4.649  0.00  0.00    +0.104 C 
ATOM     26  N   UNL     1       3.824  -2.134   5.625  0.00  0.00    -0.191 NA
ENDBRANCH   9  25
TORSDOF 3
