REMARK  Name = ZINC19940873
REMARK  7 active torsions:
REMARK  status: ('A' for Active; 'I' for Inactive)
REMARK    1  A    between atoms: C_1  and  C_2
REMARK    2  A    between atoms: C_5  and  C_40
REMARK    3  A    between atoms: C_9  and  C_14
REMARK    4  A    between atoms: C_14  and  C_16
REMARK    5  A    between atoms: C_14  and  N_27
REMARK    6  A    between atoms: N_20  and  C_21
REMARK    7  A    between atoms: N_30  and  C_33
REMARK                            x       y       z     vdW  Elec       q    Type
REMARK                         _______ _______ _______ _____ _____    ______ ____
ROOT
ATOM      1  C   UNL     1       2.507   3.775  -0.002  0.00  0.00    +0.162 C 
ENDROOT
BRANCH   1  10
ATOM      2  C   UNL     1      -2.361   5.606  -0.268  0.00  0.00    +0.044 C 
ATOM      3  C   UNL     1      -2.447   4.101  -0.284  0.00  0.00    -0.041 A 
ATOM      4  C   UNL     1      -3.663   3.484  -0.359  0.00  0.00    +0.004 A 
ATOM      5  C   UNL     1      -3.753   2.099  -0.375  0.00  0.00    +0.005 A 
ATOM      6  C   UNL     1      -2.618   1.320  -0.316  0.00  0.00    -0.026 A 
ATOM      7  C   UNL     1      -1.368   1.925  -0.244  0.00  0.00    +0.052 A 
ATOM      8  C   UNL     1      -1.281   3.331  -0.223  0.00  0.00    +0.002 A 
ATOM      9  C   UNL     1       0.039   3.959  -0.142  0.00  0.00    +0.021 A 
ATOM     10  C   UNL     1       1.133   3.160  -0.085  0.00  0.00    +0.042 A 
ATOM     11  C   UNL     1       0.991   1.756  -0.104  0.00  0.00    +0.254 A 
ATOM     12  O   UNL     1       1.989   1.058  -0.052  0.00  0.00    -0.268 OA
ATOM     13  N   UNL     1      -0.216   1.170  -0.178  0.00  0.00    -0.322 N 
ATOM     14  H   UNL     1      -0.278   0.072  -0.186  0.00  0.00    +0.169 HD
ATOM     15  C   UNL     1      -2.730  -0.183  -0.334  0.00  0.00    +0.046 C 
ENDBRANCH   1  10
BRANCH   1  16
ATOM     16  N   UNL     1       3.352   3.232  -1.074  0.00  0.00    -0.286 NA
ATOM     17  C   UNL     1       4.721   3.760  -0.983  0.00  0.00    +0.104 C 
ATOM     18  C   UNL     1       5.587   3.111  -2.066  0.00  0.00    +0.120 C 
ATOM     19  N   UNL     1       5.005   3.389  -3.386  0.00  0.00    -0.325 N 
ATOM     20  C   UNL     1       3.637   2.861  -3.477  0.00  0.00    +0.120 C 
ATOM     21  C   UNL     1       2.770   3.510  -2.394  0.00  0.00    +0.104 C 
BRANCH  19  22
ATOM     22  C   UNL     1       5.810   2.872  -4.407  0.00  0.00    +0.065 A 
ATOM     23  C   UNL     1       5.474   3.091  -5.736  0.00  0.00    +0.026 A 
ATOM     24  C   UNL     1       6.273   2.583  -6.742  0.00  0.00    +0.002 A 
ATOM     25  C   UNL     1       7.402   1.848  -6.427  0.00  0.00    +0.003 A 
ATOM     26  C   UNL     1       7.738   1.623  -5.105  0.00  0.00    +0.040 A 
ATOM     27  C   UNL     1       6.945   2.133  -4.093  0.00  0.00    +0.144 A 
ATOM     28  F   UNL     1       7.273   1.912  -2.801  0.00  0.00    -0.204 F 
ENDBRANCH  19  22
ENDBRANCH   1  16
BRANCH   1  29
ATOM     29  C   UNL     1       3.122   3.451   1.335  0.00  0.00    +0.173 A 
ATOM     30  N   UNL     1       3.620   2.297   1.709  0.00  0.00    -0.111 NA
ATOM     31  N   UNL     1       4.048   2.421   2.918  0.00  0.00    -0.023 NA
ATOM     32  N   UNL     1       3.836   3.624   3.325  0.00  0.00    -0.044 NA
ATOM     33  N   UNL     1       3.271   4.291   2.376  0.00  0.00    -0.224 N 
BRANCH  33  34
ATOM     34  C   UNL     1       2.865   5.698   2.424  0.00  0.00    +0.111 C 
ATOM     35  C   UNL     1       4.092   6.574   2.683  0.00  0.00    +0.027 C 
ATOM     36  C   UNL     1       3.668   8.044   2.732  0.00  0.00    +0.002 C 
ATOM     37  C   UNL     1       2.652   8.243   3.859  0.00  0.00    +0.000 C 
ATOM     38  C   UNL     1       1.425   7.367   3.600  0.00  0.00    +0.002 C 
ATOM     39  C   UNL     1       1.849   5.898   3.551  0.00  0.00    +0.027 C 
ENDBRANCH  33  34
ENDBRANCH   1  29
TORSDOF 5
