REMARK  Name = ZINC13496667
REMARK  11 active torsions:
REMARK  status: ('A' for Active; 'I' for Inactive)
REMARK    1  A    between atoms: C_1  and  C_2
REMARK    2  A    between atoms: C_2  and  O_3
REMARK    3  A    between atoms: O_3  and  C_4
REMARK    4  A    between atoms: C_9  and  C_10
REMARK    5  A    between atoms: C_10  and  C_12
REMARK    6  A    between atoms: C_10  and  N_20
REMARK    7  A    between atoms: N_14  and  C_15
REMARK    8  A    between atoms: N_20  and  C_21
REMARK    9  A    between atoms: C_21  and  C_22
REMARK   10  A    between atoms: C_27  and  C_29
REMARK   11  A    between atoms: C_29  and  C_30
REMARK                            x       y       z     vdW  Elec       q    Type
REMARK                         _______ _______ _______ _____ _____    ______ ____
ROOT
ATOM      1  N   UNL     1       3.514   3.108  -0.486  0.00  0.00    -0.278 N 
ATOM      2  C   UNL     1       3.670   1.895   0.081  0.00  0.00    +0.221 C 
ATOM      3  O   UNL     1       3.042   1.606   1.077  0.00  0.00    -0.275 OA
ENDROOT
BRANCH   1   4
ATOM      4  C   UNL     1       2.523   4.044   0.049  0.00  0.00    +0.196 C 
BRANCH   4  10
ATOM      5  C   UNL     1       0.045   4.359  -0.172  0.00  0.00    +0.126 A 
ATOM      6  C   UNL     1      -1.229   3.859  -0.400  0.00  0.00    +0.046 A 
ATOM      7  C   UNL     1      -1.406   2.513  -0.656  0.00  0.00    +0.004 A 
ATOM      8  C   UNL     1      -0.316   1.663  -0.675  0.00  0.00    +0.001 A 
ATOM      9  C   UNL     1       0.955   2.159  -0.449  0.00  0.00    +0.009 A 
ATOM     10  C   UNL     1       1.138   3.505  -0.198  0.00  0.00    +0.023 A 
BRANCH   5  11
ATOM     11  O   UNL     1       0.222   5.684   0.075  0.00  0.00    -0.492 OA
BRANCH  11  13
ATOM     12  C   UNL     1      -0.552   7.952   0.379  0.00  0.00    +0.048 C 
ATOM     13  C   UNL     1      -0.948   6.504   0.086  0.00  0.00    +0.225 C 
ENDBRANCH  11  13
ENDBRANCH   5  11
ENDBRANCH   4  10
BRANCH   4  14
ATOM     14  C   UNL     1       2.740   4.213   1.531  0.00  0.00    +0.238 C 
ATOM     15  O   UNL     1       3.634   3.610   2.085  0.00  0.00    -0.273 OA
ATOM     16  N   UNL     1       1.939   5.034   2.240  0.00  0.00    -0.311 N 
ATOM     17  H   UNL     1       1.224   5.516   1.796  0.00  0.00    +0.149 HD
BRANCH  16  18
ATOM     18  C   UNL     1       2.150   5.198   3.680  0.00  0.00    +0.073 C 
ATOM     19  C   UNL     1       1.365   4.119   4.455  0.00  0.00    +0.022 C 
ATOM     20  C   UNL     1       0.860   4.853   5.722  0.00  0.00    +0.002 C 
ATOM     21  C   UNL     1       0.499   6.259   5.181  0.00  0.00    +0.002 C 
ATOM     22  C   UNL     1       1.599   6.558   4.142  0.00  0.00    +0.022 C 
ENDBRANCH  16  18
ENDBRANCH   4  14
ENDBRANCH   1   4
BRANCH   1  23
ATOM     23  C   UNL     1       4.337   3.490  -1.637  0.00  0.00    +0.183 C 
BRANCH  23  24
ATOM     24  C   UNL     1       5.599   4.156  -1.153  0.00  0.00    +0.122 A 
ATOM     25  C   UNL     1       6.792   3.556  -0.989  0.00  0.00    +0.046 A 
ATOM     26  C   UNL     1       7.687   4.546  -0.522  0.00  0.00    +0.041 A 
ATOM     27  C   UNL     1       6.988   5.691  -0.430  0.00  0.00    +0.195 A 
ATOM     28  O   UNL     1       5.725   5.451  -0.819  0.00  0.00    -0.466 OA
ENDBRANCH  23  24
ENDBRANCH   1  23
BRANCH   2  29
ATOM     29  C   UNL     1       4.625   0.898  -0.524  0.00  0.00    +0.133 C 
BRANCH  29  30
ATOM     30  C   UNL     1       4.613  -0.368   0.293  0.00  0.00    -0.014 A 
ATOM     31  C   UNL     1       5.467  -0.692   1.277  0.00  0.00    +0.087 A 
ATOM     32  N   UNL     1       5.144  -1.918   1.791  0.00  0.00    -0.360 N 
ATOM     33  H   UNL     1       5.616  -2.362   2.513  0.00  0.00    +0.165 HD
ATOM     34  C   UNL     1       4.052  -2.431   1.127  0.00  0.00    +0.047 A 
ATOM     35  C   UNL     1       3.671  -1.482   0.160  0.00  0.00    +0.003 A 
ATOM     36  C   UNL     1       2.579  -1.735  -0.672  0.00  0.00    +0.010 A 
ATOM     37  C   UNL     1       1.884  -2.905  -0.542  0.00  0.00    +0.001 A 
ATOM     38  C   UNL     1       2.256  -3.844   0.410  0.00  0.00    +0.002 A 
ATOM     39  C   UNL     1       3.330  -3.614   1.241  0.00  0.00    +0.026 A 
ENDBRANCH  29  30
ENDBRANCH   2  29
TORSDOF 10
