REMARK  Name = ZINC03404624
REMARK  11 active torsions:
REMARK  status: ('A' for Active; 'I' for Inactive)
REMARK    1  A    between atoms: C_1  and  C_2
REMARK    2  A    between atoms: C_2  and  O_3
REMARK    3  A    between atoms: O_3  and  C_4
REMARK    4  A    between atoms: C_4  and  C_6
REMARK    5  A    between atoms: C_7  and  C_34
REMARK    6  A    between atoms: C_13  and  C_17
REMARK    7  A    between atoms: C_17  and  S_18
REMARK    8  A    between atoms: S_18  and  C_19
REMARK    9  A    between atoms: C_19  and  C_20
REMARK   10  A    between atoms: N_22  and  N_23
REMARK   11  A    between atoms: N_23  and  C_24
REMARK                            x       y       z     vdW  Elec       q    Type
REMARK                         _______ _______ _______ _____ _____    ______ ____
ROOT
ATOM      1  C   UNL     1       4.664   4.317  -0.359  0.00  0.00    +0.143 C 
ENDROOT
BRANCH   1   9
ATOM      2  C   UNL     1       0.074  -0.028  -0.121  0.00  0.00    +0.102 A 
ATOM      3  C   UNL     1       1.405  -0.298  -0.261  0.00  0.00    -0.015 A 
ATOM      4  C   UNL     1       2.326   0.750  -0.301  0.00  0.00    +0.076 A 
ATOM      5  C   UNL     1       3.799   0.696  -0.445  0.00  0.00    +0.260 A 
ATOM      6  O   UNL     1       4.378  -0.370  -0.550  0.00  0.00    -0.267 OA
ATOM      7  N   UNL     1       4.482   1.858  -0.457  0.00  0.00    -0.310 N 
ATOM      8  H   UNL     1       5.477   1.839  -0.553  0.00  0.00    +0.170 HD
ATOM      9  C   UNL     1       3.848   3.050  -0.340  0.00  0.00    +0.121 A 
ATOM     10  N   UNL     1       2.551   3.133  -0.212  0.00  0.00    -0.226 NA
ATOM     11  C   UNL     1       1.784   2.051  -0.189  0.00  0.00    +0.116 A 
ATOM     12  S   UNL     1       0.041   1.755  -0.036  0.00  0.00    -0.062 S 
ATOM     13  C   UNL     1       1.878  -1.725  -0.372  0.00  0.00    +0.046 C 
BRANCH   2  14
ATOM     14  C   UNL     1      -1.048  -0.967  -0.057  0.00  0.00    +0.346 C 
ATOM     15  O   UNL     1      -0.844  -2.164  -0.132  0.00  0.00    -0.244 OA
BRANCH  14  16
ATOM     16  O   UNL     1      -2.307  -0.505   0.085  0.00  0.00    -0.461 OA
BRANCH  16  18
ATOM     17  C   UNL     1      -4.716  -0.785   0.303  0.00  0.00    +0.048 C 
ATOM     18  C   UNL     1      -3.370  -1.493   0.141  0.00  0.00    +0.229 C 
ENDBRANCH  16  18
ENDBRANCH  14  16
ENDBRANCH   2  14
ENDBRANCH   1   9
BRANCH   1  19
ATOM     19  S   UNL     1       3.562   5.748  -0.187  0.00  0.00    -0.144 S 
BRANCH  19  20
ATOM     20  C   UNL     1       4.684   7.173  -0.228  0.00  0.00    +0.166 C 
BRANCH  20  21
ATOM     21  C   UNL     1       3.886   8.444  -0.092  0.00  0.00    +0.239 C 
ATOM     22  O   UNL     1       2.680   8.394   0.021  0.00  0.00    -0.273 OA
ATOM     23  N   UNL     1       4.514   9.637  -0.097  0.00  0.00    -0.236 N 
ATOM     24  H   UNL     1       5.479   9.678  -0.187  0.00  0.00    +0.173 HD
BRANCH  23  25
ATOM     25  N   UNL     1       3.772  10.819   0.029  0.00  0.00    -0.259 N 
ATOM     26  H   UNL     1       2.803  10.785   0.043  0.00  0.00    +0.170 HD
BRANCH  25  27
ATOM     27  C   UNL     1       4.430  12.050   0.136  0.00  0.00    +0.121 A 
ATOM     28  C   UNL     1       5.632  12.140   0.827  0.00  0.00    +0.184 A 
ATOM     29  C   UNL     1       6.284  13.358   0.927  0.00  0.00    +0.163 A 
ATOM     30  C   UNL     1       5.733  14.488   0.348  0.00  0.00    +0.082 A 
ATOM     31  C   UNL     1       4.532  14.403  -0.337  0.00  0.00    +0.163 A 
ATOM     32  C   UNL     1       3.880  13.187  -0.444  0.00  0.00    +0.184 A 
ATOM     33  F   UNL     1       2.709  13.105  -1.113  0.00  0.00    -0.200 F 
ATOM     34  F   UNL     1       3.997  15.509  -0.900  0.00  0.00    -0.202 F 
ATOM     35  F   UNL     1       7.456  13.444   1.594  0.00  0.00    -0.202 F 
ATOM     36  F   UNL     1       6.168  11.038   1.397  0.00  0.00    -0.200 F 
ENDBRANCH  25  27
ENDBRANCH  23  25
ENDBRANCH  20  21
ENDBRANCH  19  20
ENDBRANCH   1  19
TORSDOF 9
