REMARK  Name = ZINC09160999
REMARK  9 active torsions:
REMARK  status: ('A' for Active; 'I' for Inactive)
REMARK    1  A    between atoms: C_1  and  C_2
REMARK    2  A    between atoms: C_2  and  C_3
REMARK    3  A    between atoms: C_3  and  C_4
REMARK    4  A    between atoms: C_4  and  C_5
REMARK    5  A    between atoms: C_5  and  O_6
REMARK    6  A    between atoms: O_6  and  C_7
REMARK    7  A    between atoms: C_10  and  C_13
REMARK    8  A    between atoms: C_20  and  C_36
REMARK    9  A    between atoms: C_33  and  C_35
REMARK                            x       y       z     vdW  Elec       q    Type
REMARK                         _______ _______ _______ _____ _____    ______ ____
ROOT
ATOM      1  C   UNL     1       1.147   3.593   0.011  0.00  0.00    +0.151 C 
ATOM      2  C   UNL     1       1.422   4.108   1.399  0.00  0.00    +0.072 A 
ATOM      3  C   UNL     1       0.725   3.940   2.677  0.00  0.00    +0.199 A 
ATOM      4  O   UNL     1      -0.291   3.273   2.768  0.00  0.00    -0.287 OA
ATOM      5  C   UNL     1       1.315   4.617   3.848  0.00  0.00    +0.065 A 
ATOM      6  C   UNL     1       0.734   4.524   5.112  0.00  0.00    +0.018 A 
ATOM      7  C   UNL     1       1.314   5.167   6.171  0.00  0.00    -0.050 A 
ATOM      8  C   UNL     1       2.473   5.908   5.993  0.00  0.00    +0.007 A 
ATOM      9  C   UNL     1       3.061   6.011   4.751  0.00  0.00    +0.047 A 
ATOM     10  C   UNL     1       2.489   5.366   3.658  0.00  0.00    +0.139 A 
ATOM     11  O   UNL     1       3.050   5.456   2.439  0.00  0.00    -0.450 OA
ATOM     12  C   UNL     1       2.550   4.857   1.340  0.00  0.00    +0.199 A 
ATOM     13  C   UNL     1       3.039   4.855  -0.061  0.00  0.00    +0.288 C 
ATOM     14  O   UNL     1       4.033   5.435  -0.451  0.00  0.00    -0.266 OA
ATOM     15  N   UNL     1       2.223   4.120  -0.838  0.00  0.00    -0.238 N 
ATOM     16  C   UNL     1       2.372   3.897  -2.205  0.00  0.00    +0.129 A 
ATOM     17  C   UNL     1       1.393   3.193  -2.899  0.00  0.00    +0.044 A 
ATOM     18  C   UNL     1       1.551   2.983  -4.257  0.00  0.00    +0.005 A 
ATOM     19  C   UNL     1       2.692   3.478  -4.875  0.00  0.00    +0.023 A 
ATOM     20  C   UNL     1       3.625   4.163  -4.124  0.00  0.00    +0.040 A 
ATOM     21  N   UNL     1       3.446   4.352  -2.830  0.00  0.00    -0.237 NA
ATOM     22  C   UNL     1       4.866   4.702  -4.789  0.00  0.00    +0.065 C 
ATOM     23  C   UNL     1       0.690   5.069   7.540  0.00  0.00    +0.044 C 
ENDROOT
BRANCH   1  27
ATOM     24  C   UNL     1       1.213  -0.680  -0.013  0.00  0.00    +0.121 A 
ATOM     25  C   UNL     1       0.002  -0.004   0.002  0.00  0.00    +0.046 A 
ATOM     26  C   UNL     1      -0.017   1.377   0.010  0.00  0.00    +0.009 A 
ATOM     27  C   UNL     1       1.171   2.086   0.002  0.00  0.00    -0.022 A 
ATOM     28  C   UNL     1       2.379   1.415  -0.013  0.00  0.00    +0.009 A 
ATOM     29  C   UNL     1       2.403   0.033  -0.021  0.00  0.00    +0.046 A 
BRANCH  24  30
ATOM     30  O   UNL     1       1.234  -2.039  -0.020  0.00  0.00    -0.492 OA
BRANCH  30  31
ATOM     31  C   UNL     1       2.518  -2.668  -0.036  0.00  0.00    +0.229 C 
BRANCH  31  32
ATOM     32  C   UNL     1       2.341  -4.188  -0.042  0.00  0.00    +0.041 C 
BRANCH  32  33
ATOM     33  C   UNL     1       3.715  -4.861  -0.059  0.00  0.00    +0.003 C 
BRANCH  33  35
ATOM     34  C   UNL     1       4.911  -7.054  -0.082  0.00  0.00    +0.004 C 
ATOM     35  C   UNL     1       3.538  -6.380  -0.065  0.00  0.00    -0.003 C 
ENDBRANCH  33  35
ENDBRANCH  32  33
ENDBRANCH  31  32
ENDBRANCH  30  31
ENDBRANCH  24  30
ENDBRANCH   1  27
TORSDOF 6
