REMARK  Name = ZINC37439424
REMARK  12 active torsions:
REMARK  status: ('A' for Active; 'I' for Inactive)
REMARK    1  A    between atoms: C_1  and  C_2
REMARK    2  A    between atoms: C_7  and  N_8
REMARK    3  A    between atoms: C_11  and  C_14
REMARK    4  A    between atoms: N_16  and  C_17
REMARK    5  A    between atoms: N_16  and  C_24
REMARK    6  A    between atoms: C_17  and  C_18
REMARK    7  A    between atoms: C_24  and  C_25
REMARK    8  A    between atoms: N_27  and  C_28
REMARK    9  A    between atoms: C_28  and  C_29
REMARK   10  A    between atoms: C_29  and  N_30
REMARK   11  A    between atoms: N_30  and  C_31
REMARK   12  A    between atoms: N_30  and  C_32
REMARK                            x       y       z     vdW  Elec       q    Type
REMARK                         _______ _______ _______ _____ _____    ______ ____
ROOT
ATOM      1  C   UNL     1       0.695  -0.519   7.333  0.00  0.00    +0.266 C 
ATOM      2  O   UNL     1       0.691  -0.981   6.208  0.00  0.00    -0.268 OA
ATOM      3  N   UNL     1       0.588   0.812   7.515  0.00  0.00    -0.283 N 
ENDROOT
BRANCH   1   7
ATOM      4  N   UNL     1       1.249  -1.362  12.106  0.00  0.00    -0.293 N 
ATOM      5  C   UNL     1       1.083  -1.700  10.773  0.00  0.00    +0.163 A 
ATOM      6  N   UNL     1       0.973  -0.912   9.722  0.00  0.00    -0.220 NA
ATOM      7  C   UNL     1       0.816  -1.413   8.495  0.00  0.00    +0.135 A 
ATOM      8  C   UNL     1       0.768  -2.776   8.334  0.00  0.00    +0.081 A 
ATOM      9  S   UNL     1       0.968  -3.319  10.025  0.00  0.00    -0.060 S 
ATOM     10  H   UNL     1       1.395  -0.437  12.357  0.00  0.00    +0.154 HD
BRANCH   4  17
ATOM     11  C   UNL     1       2.747  -0.955  14.491  0.00  0.00    +0.045 C 
ATOM     12  C   UNL     1       1.923  -2.197  14.269  0.00  0.00    -0.029 A 
ATOM     13  C   UNL     1       1.874  -3.177  15.242  0.00  0.00    +0.006 A 
ATOM     14  C   UNL     1       1.119  -4.317  15.039  0.00  0.00    +0.020 A 
ATOM     15  C   UNL     1       0.408  -4.481  13.863  0.00  0.00    +0.043 A 
ATOM     16  C   UNL     1       0.453  -3.504  12.886  0.00  0.00    +0.043 A 
ATOM     17  C   UNL     1       1.207  -2.355  13.089  0.00  0.00    +0.037 A 
ATOM     18 CL   UNL     1      -0.538  -5.914  13.613  0.00  0.00    -0.083 Cl
ENDBRANCH   4  17
ENDBRANCH   1   7
BRANCH   3  19
ATOM     19  C   UNL     1       0.584   1.712   6.359  0.00  0.00    +0.143 C 
BRANCH  19  20
ATOM     20  C   UNL     1      -0.838   2.034   5.977  0.00  0.00    -0.030 A 
ATOM     21  C   UNL     1      -1.536   1.188   5.136  0.00  0.00    +0.005 A 
ATOM     22  C   UNL     1      -2.840   1.483   4.786  0.00  0.00    +0.000 A 
ATOM     23  C   UNL     1      -3.446   2.624   5.277  0.00  0.00    +0.000 A 
ATOM     24  C   UNL     1      -2.748   3.470   6.119  0.00  0.00    +0.000 A 
ATOM     25  C   UNL     1      -1.445   3.172   6.473  0.00  0.00    +0.005 A 
ENDBRANCH  19  20
ENDBRANCH   3  19
BRANCH   3  26
ATOM     26  C   UNL     1       0.474   1.359   8.870  0.00  0.00    +0.204 C 
BRANCH  26  27
ATOM     27  C   UNL     1       1.852   1.550   9.451  0.00  0.00    +0.230 C 
ATOM     28  O   UNL     1       2.831   1.258   8.798  0.00  0.00    -0.274 OA
ATOM     29  N   UNL     1       1.995   2.046  10.696  0.00  0.00    -0.316 N 
ATOM     30  H   UNL     1       1.212   2.279  11.218  0.00  0.00    +0.149 HD
BRANCH  29  31
ATOM     31  C   UNL     1       3.334   2.231  11.261  0.00  0.00    +0.085 C 
BRANCH  31  32
ATOM     32  C   UNL     1       3.216   2.802  12.675  0.00  0.00    -0.061 C 
BRANCH  32  33
ATOM     33  N   UNL     1       4.558   2.989  13.242  0.00  0.00    +0.377 N 
ATOM     34  C   UNL     1       5.279   4.009  12.469  0.00  0.00    -0.097 C 
ATOM     35  C   UNL     1       4.444   3.423  14.640  0.00  0.00    -0.097 C 
ATOM     36  H   UNL     1       5.064   2.116  13.201  0.00  0.00    -0.083 HD
ENDBRANCH  32  33
ENDBRANCH  31  32
ENDBRANCH  29  31
ENDBRANCH  26  27
ENDBRANCH   3  26
TORSDOF 9
