REMARK  Name = ZINC11878641
REMARK  8 active torsions:
REMARK  status: ('A' for Active; 'I' for Inactive)
REMARK    1  A    between atoms: C_1  and  C_2
REMARK    2  A    between atoms: C_2  and  C_28
REMARK    3  A    between atoms: N_8  and  C_9
REMARK    4  A    between atoms: C_16  and  N_53
REMARK    5  A    between atoms: C_19  and  C_20
REMARK    6  A    between atoms: C_19  and  N_53
REMARK    7  A    between atoms: N_25  and  C_26
REMARK    8  A    between atoms: N_25  and  C_27
REMARK                            x       y       z     vdW  Elec       q    Type
REMARK                         _______ _______ _______ _____ _____    ______ ____
ROOT
ATOM      1  C   UNL     1       1.600   3.462   0.315  0.00  0.00    +0.011 C 
ATOM      2  C   UNL     1       1.530   1.935   0.389  0.00  0.00    -0.031 C 
ATOM      3  C   UNL     1       0.066   1.486   0.302  0.00  0.00    +0.062 C 
ATOM      4  C   UNL     1       0.038  -0.012   0.127  0.00  0.00    +0.047 A 
ATOM      5  C   UNL     1       1.109  -0.754  -0.257  0.00  0.00    -0.020 A 
ATOM      6  C   UNL     1       0.711  -2.088  -0.309  0.00  0.00    +0.137 A 
ATOM      7  N   UNL     1      -0.554  -2.150   0.030  0.00  0.00    -0.174 NA
ATOM      8  N   UNL     1      -0.999  -0.849   0.309  0.00  0.00    -0.237 N 
ATOM      9  C   UNL     1       2.470  -0.180  -0.562  0.00  0.00    -0.037 C 
ATOM     10  C   UNL     1       2.321   1.331  -0.774  0.00  0.00    -0.005 C 
ATOM     11  C   UNL     1       2.131   1.462   1.714  0.00  0.00    +0.011 C 
ENDROOT
BRANCH   8  12
ATOM     12  C   UNL     1      -2.294  -0.486   0.707  0.00  0.00    +0.066 A 
ATOM     13  C   UNL     1      -2.979  -1.260   1.633  0.00  0.00    +0.030 A 
ATOM     14  C   UNL     1      -4.253  -0.899   2.028  0.00  0.00    +0.040 A 
ATOM     15  C   UNL     1      -4.850   0.230   1.492  0.00  0.00    +0.124 A 
ATOM     16  C   UNL     1      -4.170   1.001   0.564  0.00  0.00    +0.040 A 
ATOM     17  C   UNL     1      -2.895   0.645   0.172  0.00  0.00    +0.030 A 
ATOM     18  F   UNL     1      -6.098   0.579   1.875  0.00  0.00    -0.205 F 
ENDBRANCH   8  12
BRANCH   9  19
ATOM     19  N   UNL     1       3.005  -0.796  -1.791  0.00  0.00    +0.387 N 
ATOM     20  H   UNL     1       3.677  -0.154  -2.227  0.00  0.00    -0.085 HD
ATOM     21  H   UNL     1       2.232  -0.976  -2.444  0.00  0.00    -0.085 HD
BRANCH  19  22
ATOM     22  C   UNL     1       3.680  -2.068  -1.475  0.00  0.00    -0.037 C 
BRANCH  22  23
ATOM     23  C   UNL     1       4.216  -2.673  -2.747  0.00  0.00    -0.006 A 
ATOM     24  C   UNL     1       5.420  -2.504  -3.344  0.00  0.00    +0.122 A 
ATOM     25  N   UNL     1       5.661  -3.153  -4.468  0.00  0.00    -0.233 NA
ATOM     26  C   UNL     1       4.753  -3.942  -5.010  0.00  0.00    +0.160 A 
ATOM     27  S   UNL     1       3.434  -3.805  -3.888  0.00  0.00    -0.059 S 
ATOM     28  N   UNL     1       4.831  -4.688  -6.175  0.00  0.00    -0.316 N 
ATOM     29  C   UNL     1       6.052  -4.659  -6.983  0.00  0.00    +0.131 C 
ATOM     30  C   UNL     1       3.692  -5.506  -6.598  0.00  0.00    +0.131 C 
ENDBRANCH  22  23
ENDBRANCH  19  22
ENDBRANCH   9  19
TORSDOF 4
