REMARK  Name = ZINC20532129
REMARK  11 active torsions:
REMARK  status: ('A' for Active; 'I' for Inactive)
REMARK    1  A    between atoms: C_1  and  C_2
REMARK    2  A    between atoms: C_2  and  C_3
REMARK    3  A    between atoms: C_3  and  C_5
REMARK    4  A    between atoms: C_3  and  N_20
REMARK    5  A    between atoms: C_9  and  N_10
REMARK    6  A    between atoms: N_16  and  C_19
REMARK    7  A    between atoms: N_23  and  C_24
REMARK    8  A    between atoms: C_27  and  O_32
REMARK    9  A    between atoms: C_29  and  O_30
REMARK   10  A    between atoms: O_30  and  C_31
REMARK   11  A    between atoms: O_32  and  C_33
REMARK                            x       y       z     vdW  Elec       q    Type
REMARK                         _______ _______ _______ _____ _____    ______ ____
ROOT
ATOM      1  C   UNL     1       0.310  -2.551  10.738  0.00  0.00    +0.107 C 
ENDROOT
BRANCH   1   2
ATOM      2  C   UNL     1       1.193  -1.451  11.268  0.00  0.00    +0.007 A 
ATOM      3  C   UNL     1       2.578  -1.576  11.205  0.00  0.00    -0.034 A 
ATOM      4  C   UNL     1       3.310  -0.540  11.701  0.00  0.00    -0.021 A 
ATOM      5  S   UNL     1       2.087   0.611  12.265  0.00  0.00    -0.077 S 
ATOM      6  C   UNL     1       0.639  -0.334  11.813  0.00  0.00    +0.090 A 
ATOM      7  C   UNL     1       4.799  -0.435  11.748  0.00  0.00    -0.036 C 
ATOM      8  N   UNL     1       5.363  -1.773  11.486  0.00  0.00    +0.381 N 
ATOM      9  C   UNL     1       4.741  -2.374  10.298  0.00  0.00    -0.074 C 
ATOM     10  C   UNL     1       3.298  -2.781  10.604  0.00  0.00    +0.018 C 
ATOM     11  C   UNL     1       6.823  -1.710  11.341  0.00  0.00    -0.096 C 
ATOM     12  H   UNL     1       5.142  -2.418  12.349  0.00  0.00    -0.082 HD
BRANCH   6  13
ATOM     13  N   UNL     1      -0.712  -0.010  11.976  0.00  0.00    -0.317 N 
ATOM     14  C   UNL     1      -1.491   0.641  11.063  0.00  0.00    +0.092 A 
ATOM     15  C   UNL     1      -2.731   0.767  11.579  0.00  0.00    +0.019 A 
ATOM     16  C   UNL     1      -2.716   0.181  12.861  0.00  0.00    +0.019 A 
ATOM     17  C   UNL     1      -1.470  -0.286  13.078  0.00  0.00    +0.092 A 
ENDBRANCH   6  13
ENDBRANCH   1   2
BRANCH   1  18
ATOM     18  N   UNL     1       0.768  -3.840  11.262  0.00  0.00    -0.292 N 
ATOM     19  C   UNL     1       0.318  -4.282  12.454  0.00  0.00    +0.304 C 
ATOM     20  O   UNL     1      -0.468  -3.611  13.093  0.00  0.00    -0.252 OA
ATOM     21  N   UNL     1       0.740  -5.468  12.936  0.00  0.00    -0.266 N 
ATOM     22  H   UNL     1       1.480  -4.447  10.684  0.00  0.00    +0.151 HD
ATOM     23  H   UNL     1       1.502  -6.044  12.390  0.00  0.00    +0.156 HD
BRANCH  21  24
ATOM     24  C   UNL     1       0.208  -5.967  14.134  0.00  0.00    +0.078 A 
ATOM     25  C   UNL     1      -0.382  -5.104  15.045  0.00  0.00    +0.050 A 
ATOM     26  C   UNL     1      -0.911  -5.597  16.224  0.00  0.00    +0.084 A 
ATOM     27  C   UNL     1      -0.843  -6.955  16.502  0.00  0.00    +0.142 A 
ATOM     28  C   UNL     1      -0.254  -7.821  15.595  0.00  0.00    +0.094 A 
ATOM     29  C   UNL     1       0.272  -7.331  14.411  0.00  0.00    +0.145 A 
ATOM     30 CL   UNL     1      -1.655  -4.515  17.359  0.00  0.00    -0.080 Cl
BRANCH  29  31
ATOM     31  O   UNL     1       0.851  -8.179  13.519  0.00  0.00    -0.493 OA
ATOM     32  C   UNL     1       0.882  -9.565  13.868  0.00  0.00    +0.277 C 
ENDBRANCH  29  31
BRANCH  27  33
ATOM     33  O   UNL     1      -1.359  -7.437  17.665  0.00  0.00    -0.494 OA
ATOM     34  C   UNL     1      -1.260  -8.845  17.884  0.00  0.00    +0.277 C 
ENDBRANCH  27  33
ENDBRANCH  21  24
ENDBRANCH   1  18
BRANCH   1  36
ATOM     35  C   UNL     1      -0.613  -3.602   8.668  0.00  0.00    +0.006 C 
ATOM     36  C   UNL     1       0.377  -2.569   9.210  0.00  0.00    +0.024 C 
ENDBRANCH   1  36
TORSDOF 7
