REMARK  Name = ZINC40153046
REMARK  5 active torsions:
REMARK  status: ('A' for Active; 'I' for Inactive)
REMARK    1  A    between atoms: C_3  and  O_27
REMARK    2  A    between atoms: C_8  and  C_11
REMARK    3  A    between atoms: N_13  and  N_14
REMARK    4  A    between atoms: C_15  and  C_17
REMARK    5  A    between atoms: O_27  and  C_28
REMARK                            x       y       z     vdW  Elec       q    Type
REMARK                         _______ _______ _______ _____ _____    ______ ____
ROOT
ATOM      1  C   UNL     1      -1.109  -3.501  -0.007  0.00  0.00    +0.276 C 
ATOM      2  O   UNL     1      -2.325  -3.537   0.004  0.00  0.00    -0.267 OA
ATOM      3  N   UNL     1      -0.401  -4.647  -0.020  0.00  0.00    -0.229 N 
ATOM      4  H   UNL     1       0.569  -4.618  -0.028  0.00  0.00    +0.173 HD
ENDROOT
BRANCH   1  12
ATOM      5  C   UNL     1      -0.017   1.397   0.010  0.00  0.00    +0.013 A 
ATOM      6  C   UNL     1       1.155   2.093   0.002  0.00  0.00    +0.046 A 
ATOM      7  C   UNL     1       2.378   1.422  -0.013  0.00  0.00    +0.132 A 
ATOM      8  C   UNL     1       2.420   0.041  -0.021  0.00  0.00    +0.072 A 
ATOM      9  C   UNL     1       1.235  -0.687  -0.014  0.00  0.00    +0.051 A 
ATOM     10  C   UNL     1       0.002  -0.004   0.002  0.00  0.00    +0.001 A 
ATOM     11  C   UNL     1      -1.015  -0.988   0.006  0.00  0.00    +0.041 A 
ATOM     12  C   UNL     1      -0.413  -2.207  -0.006  0.00  0.00    +0.104 A 
ATOM     13  N   UNL     1       0.959  -2.034  -0.019  0.00  0.00    -0.350 N 
ATOM     14  H   UNL     1       1.618  -2.746  -0.030  0.00  0.00    +0.166 HD
BRANCH   7  15
ATOM     15  O   UNL     1       3.536   2.132  -0.020  0.00  0.00    -0.406 OA
BRANCH  15  16
ATOM     16  C   UNL     1       3.424   3.557  -0.011  0.00  0.00    +0.575 C 
ATOM     17  F   UNL     1       2.741   3.964   1.139  0.00  0.00    -0.133 F 
ATOM     18  F   UNL     1       4.702   4.125  -0.021  0.00  0.00    -0.133 F 
ATOM     19  F   UNL     1       2.719   3.976  -1.145  0.00  0.00    -0.133 F 
ENDBRANCH  15  16
ENDBRANCH   7  15
ENDBRANCH   1  12
BRANCH   3  20
ATOM     20  N   UNL     1      -1.064  -5.881  -0.020  0.00  0.00    -0.234 N 
ATOM     21  C   UNL     1      -0.355  -7.027  -0.033  0.00  0.00    +0.235 C 
ATOM     22  O   UNL     1       0.857  -6.990  -0.044  0.00  0.00    -0.274 OA
ATOM     23  H   UNL     1      -2.034  -5.910  -0.011  0.00  0.00    +0.173 HD
BRANCH  21  24
ATOM     24  C   UNL     1      -1.069  -8.354  -0.033  0.00  0.00    +0.049 C 
ATOM     25  C   UNL     1      -1.934  -8.468   1.224  0.00  0.00    +0.019 C 
ATOM     26  C   UNL     1      -2.659  -9.816   1.223  0.00  0.00    -0.009 C 
ATOM     27  C   UNL     1      -1.630 -10.948   1.208  0.00  0.00    +0.007 C 
ATOM     28  C   UNL     1      -0.765 -10.834  -0.049  0.00  0.00    -0.009 C 
ATOM     29  C   UNL     1      -0.041  -9.487  -0.049  0.00  0.00    +0.019 C 
ATOM     30  C   UNL     1      -1.654 -10.935  -1.291  0.00  0.00    +0.007 C 
ATOM     31  C   UNL     1      -2.682  -9.803  -1.275  0.00  0.00    -0.009 C 
ATOM     32  C   UNL     1      -3.547  -9.917  -0.018  0.00  0.00    +0.007 C 
ATOM     33  C   UNL     1      -1.958  -8.455  -1.275  0.00  0.00    +0.019 C 
ENDBRANCH  21  24
ENDBRANCH   3  20
TORSDOF 5
