REMARK  Name = ZINC26463282
REMARK  1 active torsions:
REMARK  status: ('A' for Active; 'I' for Inactive)
REMARK    1  A    between atoms: C_2  and  N_18
REMARK                            x       y       z     vdW  Elec       q    Type
REMARK                         _______ _______ _______ _____ _____    ______ ____
ROOT
ATOM      1  C   UNL     1       2.376   1.461  -0.013  0.00  0.00    +0.044 A 
ATOM      2  C   UNL     1       1.167   2.091   0.002  0.00  0.00    +0.128 A 
ATOM      3  C   UNL     1      -0.016   1.360   0.009  0.00  0.00    +0.055 A 
ATOM      4  C   UNL     1       0.002  -0.004   0.002  0.00  0.00    +0.069 A 
ATOM      5  C   UNL     1       1.227  -0.688  -0.013  0.00  0.00    +0.090 A 
ATOM      6  C   UNL     1       2.434   0.062  -0.021  0.00  0.00    +0.019 A 
ATOM      7  C   UNL     1       3.637  -0.647  -0.037  0.00  0.00    +0.038 A 
ATOM      8  C   UNL     1       3.639  -2.055  -0.045  0.00  0.00    +0.074 A 
ATOM      9  C   UNL     1       2.391  -2.706  -0.036  0.00  0.00    +0.126 A 
ATOM     10  N   UNL     1       1.273  -2.027  -0.021  0.00  0.00    -0.253 NA
ATOM     11  C   UNL     1       4.897  -2.791  -0.062  0.00  0.00    +0.282 A 
ATOM     12  O   UNL     1       4.773  -4.005  -0.067  0.00  0.00    -0.265 OA
ATOM     13  N   UNL     1       6.141  -2.370  -0.072  0.00  0.00    -0.187 NA
ATOM     14  C   UNL     1       6.559  -1.107  -0.069  0.00  0.00    +0.160 A 
ATOM     15  S   UNL     1       5.243   0.103  -0.049  0.00  0.00    -0.053 S 
ATOM     16  N   UNL     1       7.883  -0.763  -0.079  0.00  0.00    -0.337 N 
ATOM     17 CL   UNL     1      -1.489  -0.893   0.012  0.00  0.00    -0.081 Cl
ATOM     18  H   UNL     1       8.177   0.297  -0.076  0.00  0.00    +0.144 HD
ATOM     19  H   UNL     1       8.655  -1.547  -0.091  0.00  0.00    +0.144 HD
ENDROOT
BRANCH   2  20
ATOM     20  N   UNL     1       1.113   3.570   0.011  0.00  0.00    +0.056 N 
ATOM     21  O   UNL     1       0.037   4.140   0.024  0.00  0.00    -0.126 OA
ATOM     22  O   UNL     1       2.145   4.217   0.004  0.00  0.00    -0.126 OA
ENDBRANCH   2  20
TORSDOF 1
