REMARK  Name = ZINC24801697
REMARK  11 active torsions:
REMARK  status: ('A' for Active; 'I' for Inactive)
REMARK    1  A    between atoms: C_1  and  C_2
REMARK    2  A    between atoms: C_2  and  C_4
REMARK    3  A    between atoms: C_2  and  N_12
REMARK    4  A    between atoms: C_13  and  C_15
REMARK    5  A    between atoms: C_15  and  C_17
REMARK    6  A    between atoms: C_15  and  O_18
REMARK    7  A    between atoms: O_18  and  C_19
REMARK    8  A    between atoms: C_19  and  C_21
REMARK    9  A    between atoms: C_23  and  S_28
REMARK   10  A    between atoms: S_28  and  N_31
REMARK   11  A    between atoms: N_31  and  C_32
REMARK                            x       y       z     vdW  Elec       q    Type
REMARK                         _______ _______ _______ _____ _____    ______ ____
ROOT
ATOM      1  C   UNL     1      -3.919   0.309  -6.112  0.00  0.00    +0.259 C 
ATOM      2  C   UNL     1      -2.838  -0.400  -6.929  0.00  0.00    +0.062 C 
ENDROOT
BRANCH   1   4
ATOM      3  N   UNL     1      -5.681  -1.328  -6.690  0.00  0.00    -0.306 N 
ATOM      4  C   UNL     1      -4.991  -0.679  -5.731  0.00  0.00    +0.254 C 
ATOM      5  O   UNL     1      -5.233  -0.891  -4.562  0.00  0.00    -0.272 OA
ATOM      6  H   UNL     1      -5.462  -1.135  -7.751  0.00  0.00    +0.149 HD
BRANCH   3   8
ATOM      7  C   UNL     1      -6.086  -3.656  -6.059  0.00  0.00    +0.033 C 
ATOM      8  C   UNL     1      -6.723  -2.289  -6.320  0.00  0.00    +0.102 C 
BRANCH   8   9
ATOM      9  C   UNL     1      -7.720  -2.406  -7.444  0.00  0.00    -0.009 A 
ATOM     10  C   UNL     1      -7.342  -2.103  -8.738  0.00  0.00    +0.008 A 
ATOM     11  C   UNL     1      -8.255  -2.215  -9.770  0.00  0.00    +0.020 A 
ATOM     12  C   UNL     1      -9.551  -2.620  -9.506  0.00  0.00    +0.042 A 
ATOM     13  C   UNL     1      -9.932  -2.918  -8.210  0.00  0.00    +0.040 A 
ATOM     14  C   UNL     1      -9.016  -2.811  -7.178  0.00  0.00    +0.047 A 
ATOM     15 CL   UNL     1      -9.493  -3.184  -5.551  0.00  0.00    -0.083 Cl
ATOM     16 CL   UNL     1     -10.700  -2.755 -10.801  0.00  0.00    -0.083 Cl
ENDBRANCH   8   9
ENDBRANCH   3   8
ENDBRANCH   1   4
BRANCH   1  17
ATOM     17  O   UNL     1      -3.328   0.869  -4.909  0.00  0.00    -0.449 OA
BRANCH  17  18
ATOM     18  C   UNL     1      -2.852   2.127  -4.990  0.00  0.00    +0.341 C 
ATOM     19  O   UNL     1      -2.929   2.739  -6.036  0.00  0.00    -0.245 OA
BRANCH  18  20
ATOM     20  C   UNL     1      -2.237   2.761  -3.807  0.00  0.00    +0.079 A 
ATOM     21  C   UNL     1      -2.147   2.060  -2.603  0.00  0.00    +0.045 A 
ATOM     22  C   UNL     1      -1.571   2.658  -1.502  0.00  0.00    +0.106 A 
ATOM     23  C   UNL     1      -1.087   3.952  -1.586  0.00  0.00    +0.030 A 
ATOM     24  C   UNL     1      -1.168   4.651  -2.776  0.00  0.00    +0.023 A 
ATOM     25  C   UNL     1      -1.742   4.065  -3.887  0.00  0.00    +0.055 A 
ATOM     26 CL   UNL     1      -1.848   4.947  -5.379  0.00  0.00    -0.083 Cl
BRANCH  22  27
ATOM     27  S   UNL     1      -1.456   1.774   0.019  0.00  0.00    +0.058 S 
ATOM     28  O   UNL     1      -2.475   0.784  -0.009  0.00  0.00    -0.153 OA
ATOM     29  O   UNL     1      -1.369   2.749   1.049  0.00  0.00    -0.153 OA
BRANCH  27  30
ATOM     30  N   UNL     1      -0.011   0.966   0.007  0.00  0.00    -0.193 NA
ATOM     31  C   UNL     1       1.248   1.716  -0.001  0.00  0.00    +0.127 C 
ATOM     32  H   UNL     1      -0.005  -0.121  -0.159  0.00  0.00    +0.148 HD
ENDBRANCH  27  30
ENDBRANCH  22  27
ENDBRANCH  18  20
ENDBRANCH  17  18
ENDBRANCH   1  17
TORSDOF 8
