REMARK  Name = ZINC01233822
REMARK  4 active torsions:
REMARK  status: ('A' for Active; 'I' for Inactive)
REMARK    1  A    between atoms: C_5  and  C_7
REMARK    2  A    between atoms: N_9  and  N_10
REMARK    3  A    between atoms: C_11  and  C_12
REMARK    4  A    between atoms: C_17  and  N_18
REMARK                            x       y       z     vdW  Elec       q    Type
REMARK                         _______ _______ _______ _____ _____    ______ ____
ROOT
ATOM      1  N   UNL     1      -3.686   2.890  -0.147  0.00  0.00    -0.187 NA
ATOM      2  C   UNL     1      -2.636   3.643  -0.024  0.00  0.00    +0.140 C 
ENDROOT
BRANCH   2   3
ATOM      3  C   UNL     1      -1.293   3.037  -0.004  0.00  0.00    +0.028 A 
ATOM      4  C   UNL     1      -1.152   1.646   0.004  0.00  0.00    +0.061 A 
ATOM      5  C   UNL     1       0.109   1.082   0.023  0.00  0.00    +0.167 A 
ATOM      6  C   UNL     1       1.239   1.900   0.035  0.00  0.00    +0.168 A 
ATOM      7  C   UNL     1       1.099   3.280   0.027  0.00  0.00    +0.083 A 
ATOM      8  C   UNL     1      -0.157   3.850   0.013  0.00  0.00    +0.138 A 
ATOM      9  O   UNL     1       2.350   1.107   0.054  0.00  0.00    -0.453 OA
ATOM     10  C   UNL     1       1.900  -0.197  -0.360  0.00  0.00    +0.466 C 
ATOM     11  O   UNL     1       0.515  -0.222   0.034  0.00  0.00    -0.453 OA
BRANCH   8  12
ATOM     12  N   UNL     1      -0.301   5.323   0.011  0.00  0.00    +0.057 N 
ATOM     13  O   UNL     1       0.684   6.031  -0.096  0.00  0.00    -0.126 OA
ATOM     14  O   UNL     1      -1.405   5.827   0.116  0.00  0.00    -0.126 OA
ENDBRANCH   8  12
ENDBRANCH   2   3
BRANCH   1  17
ATOM     15  C   UNL     1      -6.054   2.686  -0.294  0.00  0.00    +0.264 C 
ATOM     16  O   UNL     1      -5.929   1.480  -0.393  0.00  0.00    -0.268 OA
ATOM     17  N   UNL     1      -4.963   3.467  -0.166  0.00  0.00    -0.203 N 
ATOM     18  H   UNL     1      -5.062   4.429  -0.088  0.00  0.00    +0.178 HD
BRANCH  15  23
ATOM     19  C   UNL     1      -8.806   5.239  -0.221  0.00  0.00    +0.001 A 
ATOM     20  C   UNL     1      -9.924   4.434  -0.352  0.00  0.00    +0.001 A 
ATOM     21  C   UNL     1      -9.787   3.062  -0.465  0.00  0.00    +0.015 A 
ATOM     22  C   UNL     1      -8.532   2.487  -0.447  0.00  0.00    +0.026 A 
ATOM     23  C   UNL     1      -7.400   3.294  -0.314  0.00  0.00    +0.051 A 
ATOM     24  C   UNL     1      -7.547   4.677  -0.196  0.00  0.00    +0.014 A 
ATOM     25  I   UNL     1      -8.327   0.409  -0.616  0.00  0.00    -0.043 I 
ENDBRANCH  15  23
ENDBRANCH   1  17
TORSDOF 4
