REMARK  Name = ZINC52550760
REMARK  10 active torsions:
REMARK  status: ('A' for Active; 'I' for Inactive)
REMARK    1  A    between atoms: C_1  and  C_2
REMARK    2  A    between atoms: C_4  and  N_31
REMARK    3  A    between atoms: C_9  and  C_11
REMARK    4  A    between atoms: C_13  and  N_19
REMARK    5  A    between atoms: N_19  and  C_20
REMARK    6  A    between atoms: C_20  and  C_21
REMARK    7  A    between atoms: C_21  and  C_23
REMARK    8  A    between atoms: C_21  and  O_30
REMARK    9  A    between atoms: C_34  and  N_37
REMARK   10  A    between atoms: N_37  and  C_38
REMARK                            x       y       z     vdW  Elec       q    Type
REMARK                         _______ _______ _______ _____ _____    ______ ____
ROOT
ATOM      1  C   UNL     1       0.018   1.503   0.010  0.00  0.00    +0.046 C 
ATOM      2  C   UNL     1       0.020  -0.004   0.002  0.00  0.00    -0.021 A 
ATOM      3  C   UNL     1       0.023  -0.680  -1.184  0.00  0.00    +0.028 A 
ATOM      4  C   UNL     1       0.025  -2.074  -1.206  0.00  0.00    +0.032 A 
ATOM      5  C   UNL     1       0.023  -2.791  -0.021  0.00  0.00    +0.051 A 
ATOM      6  C   UNL     1       0.020  -2.115   1.190  0.00  0.00    +0.068 A 
ATOM      7  C   UNL     1       0.024  -0.709   1.208  0.00  0.00    +0.092 A 
ATOM      8  N   UNL     1       0.026  -0.330   2.513  0.00  0.00    -0.231 NA
ATOM      9  C   UNL     1       0.029  -1.385   3.275  0.00  0.00    +0.126 A 
ATOM     10  N   UNL     1       0.018  -2.513   2.512  0.00  0.00    -0.341 N 
ATOM     11  H   UNL     1       0.017  -3.427   2.838  0.00  0.00    +0.167 HD
ENDROOT
BRANCH   9  12
ATOM     12  C   UNL     1       0.034  -1.361   4.782  0.00  0.00    +0.186 C 
ATOM     13  C   UNL     1       1.477  -1.391   5.248  0.00  0.00    +0.025 C 
ATOM     14  C   UNL     1       1.845  -2.421   6.064  0.00  0.00    +0.037 C 
ATOM     15  C   UNL     1       0.929  -3.394   6.443  0.00  0.00    +0.102 C 
ATOM     16  N   UNL     1      -0.329  -3.412   6.067  0.00  0.00    -0.188 NA
ATOM     17  C   UNL     1      -0.859  -2.484   5.271  0.00  0.00    +0.252 C 
ATOM     18  O   UNL     1      -2.028  -2.537   4.946  0.00  0.00    -0.273 OA
BRANCH  13  19
ATOM     19  N   UNL     1       2.365  -0.434   4.869  0.00  0.00    -0.343 N 
ATOM     20  H   UNL     1       2.081   0.289   4.288  0.00  0.00    +0.146 HD
BRANCH  19  21
ATOM     21  C   UNL     1       3.752  -0.494   5.338  0.00  0.00    +0.137 C 
BRANCH  21  22
ATOM     22  C   UNL     1       4.535   0.692   4.771  0.00  0.00    +0.161 C 
BRANCH  22  23
ATOM     23  C   UNL     1       5.987   0.564   5.152  0.00  0.00    -0.016 A 
ATOM     24  C   UNL     1       6.404   0.931   6.418  0.00  0.00    +0.006 A 
ATOM     25  C   UNL     1       7.736   0.814   6.768  0.00  0.00    +0.002 A 
ATOM     26  C   UNL     1       8.652   0.330   5.852  0.00  0.00    +0.020 A 
ATOM     27  C   UNL     1       8.235  -0.038   4.586  0.00  0.00    +0.041 A 
ATOM     28  C   UNL     1       6.900   0.073   4.238  0.00  0.00    +0.026 A 
ATOM     29 CL   UNL     1       9.384  -0.647   3.436  0.00  0.00    -0.084 Cl
ENDBRANCH  22  23
BRANCH  22  30
ATOM     30  O   UNL     1       4.008   1.909   5.303  0.00  0.00    -0.386 OA
ATOM     31  H   UNL     1       4.056   1.970   6.267  0.00  0.00    +0.210 HD
ENDBRANCH  22  30
ENDBRANCH  21  22
ENDBRANCH  19  21
ENDBRANCH  13  19
ENDBRANCH   9  12
BRANCH   4  32
ATOM     32  N   UNL     1       0.027  -2.751  -2.430  0.00  0.00    -0.330 N 
ATOM     33  C   UNL     1      -0.094  -2.012  -3.694  0.00  0.00    +0.103 C 
ATOM     34  C   UNL     1      -1.252  -2.605  -4.502  0.00  0.00    +0.003 C 
ATOM     35  C   UNL     1      -1.033  -4.110  -4.672  0.00  0.00    -0.069 C 
ATOM     36  C   UNL     1      -1.010  -4.782  -3.297  0.00  0.00    +0.003 C 
ATOM     37  C   UNL     1       0.157  -4.213  -2.475  0.00  0.00    +0.103 C 
BRANCH  35  38
ATOM     38  N   UNL     1      -2.125  -4.676  -5.475  0.00  0.00    +0.379 N 
ATOM     39  C   UNL     1      -1.854  -6.095  -5.739  0.00  0.00    -0.100 C 
ATOM     40  H   UNL     1      -2.994  -4.588  -4.970  0.00  0.00    -0.086 HD
ATOM     41  H   UNL     1      -2.192  -4.178  -6.350  0.00  0.00    -0.086 HD
ENDBRANCH  35  38
ENDBRANCH   4  32
TORSDOF 8
