REMARK  Name = ZINC39708062
REMARK  4 active torsions:
REMARK  status: ('A' for Active; 'I' for Inactive)
REMARK    1  A    between atoms: C_1  and  C_2
REMARK    2  A    between atoms: C_14  and  S_16
REMARK    3  A    between atoms: S_16  and  C_17
REMARK    4  A    between atoms: C_17  and  C_18
REMARK                            x       y       z     vdW  Elec       q    Type
REMARK                         _______ _______ _______ _____ _____    ______ ____
ROOT
ATOM      1  C   UNL     1      -0.018   1.503   0.010  0.00  0.00    +0.044 C 
ATOM      2  C   UNL     1       0.002  -0.004   0.002  0.00  0.00    -0.050 A 
ATOM      3  C   UNL     1       0.005  -0.672  -1.230  0.00  0.00    +0.005 A 
ATOM      4  C   UNL     1       0.017  -2.022  -1.308  0.00  0.00    +0.026 A 
ATOM      5  C   UNL     1       0.028  -2.812  -0.071  0.00  0.00    +0.046 A 
ATOM      6  N   UNL     1       0.072  -4.106   0.139  0.00  0.00    -0.358 N 
ATOM      7  C   UNL     1      -0.066  -4.355   1.565  0.00  0.00    +0.252 C 
ATOM      8  C   UNL     1       0.065  -2.998   2.235  0.00  0.00    +0.117 C 
ATOM      9  C   UNL     1       0.036  -2.075   1.218  0.00  0.00    +0.025 A 
ATOM     10  C   UNL     1       0.022  -0.662   1.184  0.00  0.00    +0.015 A 
ATOM     11  N   UNL     1       0.302  -2.882   3.544  0.00  0.00    -0.147 NA
ATOM     12  N   UNL     1       0.931  -3.879   4.089  0.00  0.00    -0.122 NA
ATOM     13  C   UNL     1       1.375  -4.934   3.363  0.00  0.00    +0.207 C 
ATOM     14  N   UNL     1       0.972  -5.206   2.143  0.00  0.00    -0.227 NA
ATOM     15  H   UNL     1       0.179  -4.786  -0.544  0.00  0.00    +0.162 HD
ENDROOT
BRANCH  13  16
ATOM     16  S   UNL     1       2.560  -6.009   4.102  0.00  0.00    -0.080 S 
BRANCH  16  17
ATOM     17  C   UNL     1       2.877  -7.257   2.824  0.00  0.00    +0.112 C 
BRANCH  17  18
ATOM     18  C   UNL     1       3.887  -8.252   3.334  0.00  0.00    -0.036 A 
ATOM     19  C   UNL     1       5.237  -8.031   3.133  0.00  0.00    +0.006 A 
ATOM     20  C   UNL     1       6.165  -8.943   3.600  0.00  0.00    +0.022 A 
ATOM     21  C   UNL     1       5.743 -10.078   4.269  0.00  0.00    +0.059 A 
ATOM     22  C   UNL     1       4.391 -10.299   4.470  0.00  0.00    +0.060 A 
ATOM     23  C   UNL     1       3.464  -9.383   4.007  0.00  0.00    +0.026 A 
ATOM     24 CL   UNL     1       3.860 -11.724   5.309  0.00  0.00    -0.082 Cl
ATOM     25 CL   UNL     1       6.908 -11.224   4.855  0.00  0.00    -0.082 Cl
ENDBRANCH  17  18
ENDBRANCH  16  17
ENDBRANCH  13  16
TORSDOF 3
