REMARK  Name = ZINC38667013
REMARK  13 active torsions:
REMARK  status: ('A' for Active; 'I' for Inactive)
REMARK    1  A    between atoms: C_1  and  C_2
REMARK    2  A    between atoms: C_2  and  C_3
REMARK    3  A    between atoms: C_2  and  C_4
REMARK    4  A    between atoms: N_6  and  C_7
REMARK    5  A    between atoms: C_10  and  S_13
REMARK    6  A    between atoms: S_13  and  N_16
REMARK    7  A    between atoms: N_16  and  C_17
REMARK    8  A    between atoms: C_17  and  C_18
REMARK    9  A    between atoms: C_18  and  C_20
REMARK   10  A    between atoms: C_18  and  N_29
REMARK   11  A    between atoms: C_23  and  N_26
REMARK   12  A    between atoms: N_26  and  C_27
REMARK   13  A    between atoms: N_26  and  C_28
REMARK                            x       y       z     vdW  Elec       q    Type
REMARK                         _______ _______ _______ _____ _____    ______ ____
ROOT
ATOM      1  C   UNL     1      -7.733  -5.154  -4.073  0.00  0.00    +0.103 C 
ENDROOT
BRANCH   1   2
ATOM      2  N   UNL     1      -7.873  -3.936  -4.881  0.00  0.00    -0.290 NA
ATOM      3  C   UNL     1      -8.739  -4.172  -6.047  0.00  0.00    +0.090 C 
ATOM      4  C   UNL     1      -9.144  -2.819  -6.633  0.00  0.00    +0.051 C 
ATOM      5  C   UNL     1      -7.922  -1.962  -6.841  0.00  0.00    -0.042 A 
ATOM      6  C   UNL     1      -8.021  -0.861  -7.679  0.00  0.00    +0.004 A 
ATOM      7  C   UNL     1      -6.926  -0.048  -7.894  0.00  0.00    +0.000 A 
ATOM      8  C   UNL     1      -5.725  -0.332  -7.270  0.00  0.00    +0.000 A 
ATOM      9  C   UNL     1      -5.625  -1.429  -6.438  0.00  0.00    +0.005 A 
ATOM     10  C   UNL     1      -6.724  -2.248  -6.223  0.00  0.00    -0.030 A 
ATOM     11  C   UNL     1      -6.563  -3.439  -5.315  0.00  0.00    +0.120 C 
ENDBRANCH   1   2
BRANCH   1  12
ATOM     12  C   UNL     1      -6.945  -6.181  -4.845  0.00  0.00    -0.029 A 
ATOM     13  C   UNL     1      -5.580  -6.292  -4.652  0.00  0.00    +0.007 A 
ATOM     14  C   UNL     1      -4.856  -7.232  -5.358  0.00  0.00    +0.023 A 
ATOM     15  C   UNL     1      -5.499  -8.067  -6.263  0.00  0.00    +0.029 A 
ATOM     16  C   UNL     1      -6.870  -7.953  -6.454  0.00  0.00    +0.023 A 
ATOM     17  C   UNL     1      -7.590  -7.015  -5.741  0.00  0.00    +0.007 A 
BRANCH  15  18
ATOM     18  N   UNL     1      -4.769  -9.019  -6.979  0.00  0.00    -0.336 N 
ATOM     19  C   UNL     1      -3.346  -9.218  -6.692  0.00  0.00    +0.129 C 
ATOM     20  C   UNL     1      -5.427  -9.818  -8.016  0.00  0.00    +0.129 C 
ENDBRANCH  15  18
ENDBRANCH   1  12
BRANCH   1  21
ATOM     21  C   UNL     1      -7.000  -4.822  -2.772  0.00  0.00    +0.129 C 
BRANCH  21  22
ATOM     22  N   UNL     1      -7.702  -3.739  -2.079  0.00  0.00    -0.188 NA
ATOM     23  H   UNL     1      -8.363  -3.209  -2.551  0.00  0.00    +0.148 HD
BRANCH  22  24
ATOM     24  S   UNL     1      -7.367  -3.420  -0.489  0.00  0.00    +0.058 S 
ATOM     25  O   UNL     1      -7.418  -4.665   0.195  0.00  0.00    -0.153 OA
ATOM     26  O   UNL     1      -8.178  -2.313  -0.117  0.00  0.00    -0.153 OA
BRANCH  24  30
ATOM     27  C   UNL     1      -3.071  -2.003  -0.283  0.00  0.00    +0.034 A 
ATOM     28  C   UNL     1      -4.098  -1.086  -0.465  0.00  0.00    +0.025 A 
ATOM     29  C   UNL     1      -5.407  -1.522  -0.527  0.00  0.00    +0.030 A 
ATOM     30  C   UNL     1      -5.696  -2.869  -0.409  0.00  0.00    +0.105 A 
ATOM     31  C   UNL     1      -4.675  -3.784  -0.227  0.00  0.00    +0.030 A 
ATOM     32  C   UNL     1      -3.364  -3.356  -0.170  0.00  0.00    +0.025 A 
BRANCH  27  35
ATOM     33  C   UNL     1      -0.758  -2.324  -0.740  0.00  0.00    +0.220 C 
ATOM     34  O   UNL     1      -1.011  -3.421  -1.191  0.00  0.00    -0.275 OA
ATOM     35  N   UNL     1      -1.743  -1.565  -0.219  0.00  0.00    -0.285 N 
ATOM     36  H   UNL     1      -1.532  -0.716   0.199  0.00  0.00    +0.155 HD
BRANCH  33  38
ATOM     37  C   UNL     1       1.572  -2.856  -1.399  0.00  0.00    +0.017 C 
ATOM     38  C   UNL     1       0.658  -1.808  -0.761  0.00  0.00    +0.069 C 
ATOM     39  C   UNL     1       0.718  -0.515  -1.575  0.00  0.00    +0.017 C 
ENDBRANCH  33  38
ENDBRANCH  27  35
ENDBRANCH  24  30
ENDBRANCH  22  24
ENDBRANCH  21  22
ENDBRANCH   1  21
TORSDOF 9
