REMARK  Name = ZINC36586986
REMARK  14 active torsions:
REMARK  status: ('A' for Active; 'I' for Inactive)
REMARK    1  A    between atoms: C_1  and  C_2
REMARK    2  A    between atoms: C_5  and  S_8
REMARK    3  A    between atoms: S_8  and  C_11
REMARK    4  A    between atoms: C_11  and  N_12
REMARK    5  A    between atoms: C_13  and  C_15
REMARK    6  A    between atoms: C_15  and  C_17
REMARK    7  A    between atoms: C_15  and  N_23
REMARK    8  A    between atoms: N_23  and  C_34
REMARK    9  A    between atoms: C_24  and  C_26
REMARK   10  A    between atoms: C_30  and  O_33
REMARK   11  A    between atoms: C_31  and  O_32
REMARK   12  A    between atoms: C_34  and  C_35
REMARK   13  A    between atoms: C_34  and  C_36
REMARK   14  A    between atoms: C_34  and  C_37
REMARK                            x       y       z     vdW  Elec       q    Type
REMARK                         _______ _______ _______ _____ _____    ______ ____
ROOT
ATOM      1  C   UNL     1       4.663  -9.953   4.733  0.00  0.00    +0.193 C 
ENDROOT
BRANCH   1   2
ATOM      2  C   UNL     1       4.721 -11.445   4.932  0.00  0.00    -0.018 A 
ATOM      3  C   UNL     1       3.619 -12.122   5.420  0.00  0.00    +0.006 A 
ATOM      4  C   UNL     1       3.673 -13.491   5.603  0.00  0.00    +0.000 A 
ATOM      5  C   UNL     1       4.829 -14.184   5.295  0.00  0.00    +0.000 A 
ATOM      6  C   UNL     1       5.931 -13.508   4.806  0.00  0.00    +0.000 A 
ATOM      7  C   UNL     1       5.876 -12.139   4.620  0.00  0.00    +0.006 A 
ENDBRANCH   1   2
BRANCH   1   9
ATOM      8  N   UNL     1       5.970  -9.907   2.634  0.00  0.00    -0.294 N 
ATOM      9  C   UNL     1       4.812  -9.635   3.268  0.00  0.00    +0.239 C 
ATOM     10  O   UNL     1       3.891  -9.133   2.659  0.00  0.00    -0.273 OA
ATOM     11  H   UNL     1       6.707 -10.308   3.121  0.00  0.00    +0.150 HD
BRANCH   8  12
ATOM     12  C   UNL     1       6.116  -9.598   1.209  0.00  0.00    +0.278 C 
BRANCH  12  13
ATOM     13  S   UNL     1       6.897  -7.971   1.020  0.00  0.00    +0.013 S 
ATOM     14  O   UNL     1       6.267  -7.024   1.872  0.00  0.00    -0.168 OA
ATOM     15  O   UNL     1       7.103  -7.684  -0.356  0.00  0.00    -0.168 OA
BRANCH  13  20
ATOM     16  C   UNL     1      12.444  -8.639   3.299  0.00  0.00    +0.044 C 
ATOM     17  C   UNL     1      11.059  -8.472   2.730  0.00  0.00    -0.050 A 
ATOM     18  C   UNL     1      10.828  -8.717   1.389  0.00  0.00    +0.005 A 
ATOM     19  C   UNL     1       9.557  -8.564   0.867  0.00  0.00    +0.027 A 
ATOM     20  C   UNL     1       8.517  -8.167   1.686  0.00  0.00    +0.090 A 
ATOM     21  C   UNL     1       8.747  -7.924   3.027  0.00  0.00    +0.027 A 
ATOM     22  C   UNL     1      10.017  -8.081   3.550  0.00  0.00    +0.005 A 
ENDBRANCH  13  20
ENDBRANCH  12  13
ENDBRANCH   8  12
ENDBRANCH   1   9
BRANCH   1  23
ATOM     23  N   UNL     1       3.374  -9.447   5.214  0.00  0.00    -0.277 N 
ATOM     24  C   UNL     1       2.228 -10.031   4.812  0.00  0.00    +0.252 C 
ATOM     25  O   UNL     1       2.211 -10.700   3.796  0.00  0.00    -0.270 OA
BRANCH  24  26
ATOM     26  C   UNL     1       0.996  -9.860   5.604  0.00  0.00    +0.082 A 
ATOM     27  C   UNL     1       0.511  -8.578   5.880  0.00  0.00    +0.017 A 
ATOM     28  C   UNL     1      -0.641  -8.421   6.620  0.00  0.00    +0.005 A 
ATOM     29  C   UNL     1      -1.324  -9.530   7.093  0.00  0.00    +0.049 A 
ATOM     30  C   UNL     1      -0.857 -10.805   6.829  0.00  0.00    +0.159 A 
ATOM     31  C   UNL     1       0.302 -10.979   6.078  0.00  0.00    +0.171 A 
BRANCH  31  32
ATOM     32  O   UNL     1       0.761 -12.229   5.811  0.00  0.00    -0.503 OA
ATOM     33  H   UNL     1       1.373 -12.573   6.476  0.00  0.00    +0.292 HD
ENDBRANCH  31  32
BRANCH  30  34
ATOM     34  O   UNL     1      -1.532 -11.888   7.298  0.00  0.00    -0.503 OA
ATOM     35  H   UNL     1      -2.207 -12.223   6.691  0.00  0.00    +0.292 HD
ENDBRANCH  30  34
ENDBRANCH  24  26
BRANCH  23  36
ATOM     36  C   UNL     1       3.332  -8.305   6.131  0.00  0.00    +0.030 C 
ATOM     37  C   UNL     1       4.701  -8.132   6.793  0.00  0.00    +0.031 C 
ATOM     38  C   UNL     1       2.979  -7.037   5.351  0.00  0.00    +0.031 C 
ATOM     39  C   UNL     1       2.273  -8.554   7.207  0.00  0.00    +0.031 C 
ENDBRANCH  23  36
ENDBRANCH   1  23
TORSDOF 10
