REMARK  Name = ZINC39544803
REMARK  10 active torsions:
REMARK  status: ('A' for Active; 'I' for Inactive)
REMARK    1  A    between atoms: C_1  and  C_2
REMARK    2  A    between atoms: C_2  and  C_3
REMARK    3  A    between atoms: C_2  and  C_4
REMARK    4  A    between atoms: C_4  and  N_5
REMARK    5  A    between atoms: N_5  and  C_6
REMARK    6  A    between atoms: C_11  and  O_12
REMARK    7  A    between atoms: C_13  and  C_15
REMARK    8  A    between atoms: C_18  and  S_29
REMARK    9  A    between atoms: S_29  and  O_32
REMARK   10  A    between atoms: O_32  and  C_33
REMARK                            x       y       z     vdW  Elec       q    Type
REMARK                         _______ _______ _______ _____ _____    ______ ____
ROOT
ATOM      1  C   UNL     1       1.399   1.681  -2.094  0.00  0.00    +0.150 C 
ATOM      2  C   UNL     1       0.510   2.456  -1.102  0.00  0.00    +0.092 C 
ATOM      3  C   UNL     1       0.750   3.908  -1.449  0.00  0.00    +0.142 C 
ATOM      4  C   UNL     1       1.595   3.983  -2.445  0.00  0.00    +0.100 C 
ATOM      5  N   UNL     1       2.090   5.168  -3.021  0.00  0.00    -0.302 N 
ATOM      6  C   UNL     1       3.434   5.111  -3.426  0.00  0.00    +0.037 A 
ATOM      7  C   UNL     1       4.060   6.254  -3.902  0.00  0.00    +0.023 A 
ATOM      8  C   UNL     1       5.379   6.196  -4.309  0.00  0.00    +0.002 A 
ATOM      9  C   UNL     1       6.068   4.999  -4.240  0.00  0.00    +0.000 A 
ATOM     10  C   UNL     1       5.446   3.862  -3.763  0.00  0.00    +0.007 A 
ATOM     11  C   UNL     1       4.125   3.911  -3.348  0.00  0.00    -0.010 A 
ATOM     12  C   UNL     1       3.482   2.660  -2.808  0.00  0.00    +0.124 C 
ATOM     13  N   UNL     1       2.021   2.731  -2.916  0.00  0.00    -0.368 NA
ATOM     14  H   UNL     1       1.544   5.962  -3.131  0.00  0.00    +0.153 HD
ATOM     15  H   UNL     1       1.745   2.617  -3.880  0.00  0.00    +0.129 HD
ENDROOT
BRANCH   1  17
ATOM     16  N   UNL     1       2.642  -0.409  -1.643  0.00  0.00    -0.267 N 
ATOM     17  C   UNL     1       2.451   0.894  -1.357  0.00  0.00    +0.239 C 
ATOM     18  O   UNL     1       3.126   1.433  -0.505  0.00  0.00    -0.273 OA
BRANCH  16  19
ATOM     19  C   UNL     1       1.814  -1.051  -2.574  0.00  0.00    +0.078 A 
ATOM     20  C   UNL     1       0.645  -1.669  -2.154  0.00  0.00    +0.027 A 
ATOM     21  C   UNL     1      -0.170  -2.302  -3.073  0.00  0.00    +0.002 A 
ATOM     22  C   UNL     1       0.176  -2.320  -4.412  0.00  0.00    +0.004 A 
ATOM     23  C   UNL     1       1.339  -1.706  -4.838  0.00  0.00    +0.047 A 
ATOM     24  C   UNL     1       2.159  -1.065  -3.923  0.00  0.00    +0.138 A 
BRANCH  24  25
ATOM     25  O   UNL     1       3.300  -0.455  -4.341  0.00  0.00    -0.505 OA
ATOM     26  H   UNL     1       4.077  -1.031  -4.340  0.00  0.00    +0.292 HD
ENDBRANCH  24  25
ENDBRANCH  16  19
BRANCH  16  27
ATOM     27  C   UNL     1       3.716  -1.155  -0.982  0.00  0.00    +0.116 C 
BRANCH  27  29
ATOM     28  C   UNL     1       5.481   0.448  -1.729  0.00  0.00    +0.009 C 
ATOM     29  C   UNL     1       5.010  -1.006  -1.786  0.00  0.00    +0.001 C 
ATOM     30  C   UNL     1       6.087  -1.915  -1.191  0.00  0.00    +0.009 C 
ENDBRANCH  27  29
ENDBRANCH  16  27
ENDBRANCH   1  17
BRANCH   3  31
ATOM     31  S   UNL     1       0.006   5.284  -0.638  0.00  0.00    +0.150 S 
ATOM     32  O   UNL     1       0.134   5.051   0.758  0.00  0.00    -0.132 OA
ATOM     33  O   UNL     1       0.519   6.451  -1.266  0.00  0.00    -0.132 OA
BRANCH  31  34
ATOM     34  O   UNL     1      -1.483   5.240  -0.952  0.00  0.00    -0.342 OA
BRANCH  34  35
ATOM     35  C   UNL     1      -1.792   5.629  -2.217  0.00  0.00    +0.157 A 
ATOM     36  C   UNL     1      -1.963   6.974  -2.509  0.00  0.00    +0.048 A 
ATOM     37  C   UNL     1      -2.278   7.367  -3.795  0.00  0.00    +0.004 A 
ATOM     38  C   UNL     1      -2.423   6.420  -4.792  0.00  0.00    +0.000 A 
ATOM     39  C   UNL     1      -2.254   5.078  -4.504  0.00  0.00    +0.004 A 
ATOM     40  C   UNL     1      -1.933   4.681  -3.220  0.00  0.00    +0.048 A 
ENDBRANCH  34  35
ENDBRANCH  31  34
ENDBRANCH   3  31
TORSDOF 8
