REMARK  Name = ZINC12149090
REMARK  8 active torsions:
REMARK  status: ('A' for Active; 'I' for Inactive)
REMARK    1  A    between atoms: C_1  and  N_69
REMARK    2  A    between atoms: C_10  and  N_71
REMARK    3  A    between atoms: C_15  and  C_25
REMARK    4  A    between atoms: C_16  and  O_23
REMARK    5  A    between atoms: O_23  and  C_24
REMARK    6  A    between atoms: N_27  and  C_28
REMARK    7  A    between atoms: N_27  and  C_29
REMARK    8  A    between atoms: C_29  and  C_30
REMARK                            x       y       z     vdW  Elec       q    Type
REMARK                         _______ _______ _______ _____ _____    ______ ____
ROOT
ATOM      1  C   UNL     1       2.363  -1.507   3.286  0.00  0.00    -0.072 C 
ATOM      2  C   UNL     1       2.708  -1.742   4.755  0.00  0.00    +0.036 C 
ATOM      3  C   UNL     1       4.194  -1.920   4.949  0.00  0.00    +0.036 A 
ATOM      4  C   UNL     1       4.592  -2.727   6.006  0.00  0.00    +0.098 A 
ATOM      5  C   UNL     1       6.018  -2.923   6.267  0.00  0.00    +0.139 A 
ATOM      6  C   UNL     1       6.918  -2.271   5.448  0.00  0.00    +0.116 A 
ATOM      7  C   UNL     1       6.433  -1.479   4.406  0.00  0.00    +0.255 A 
ATOM      8  O   UNL     1       7.229  -0.889   3.694  0.00  0.00    -0.268 OA
ATOM      9  N   UNL     1       5.109  -1.343   4.160  0.00  0.00    -0.313 N 
ATOM     10  C   UNL     1       4.745  -0.557   2.977  0.00  0.00    +0.106 C 
ATOM     11  C   UNL     1       3.699   0.504   3.319  0.00  0.00    -0.056 C 
ATOM     12  N   UNL     1       2.358  -0.049   3.051  0.00  0.00    +0.383 N 
ATOM     13  H   UNL     1       1.682   0.390   3.687  0.00  0.00    -0.081 HD
ENDROOT
BRANCH  12  21
ATOM     14  C   UNL     1      -0.993   2.270  -0.758  0.00  0.00    -0.095 C 
ATOM     15  C   UNL     1       1.243   2.193   0.213  0.00  0.00    -0.070 C 
ATOM     16  C   UNL     1       1.973   1.772  -1.054  0.00  0.00    -0.015 C 
ATOM     17  C   UNL     1       1.937   0.263  -1.268  0.00  0.00    -0.003 C 
ATOM     18  C   UNL     1       0.530  -0.297  -1.087  0.00  0.00    -0.015 C 
ATOM     19  C   UNL     1      -0.116   0.204   0.199  0.00  0.00    -0.070 C 
ATOM     20  C   UNL     1       0.578  -0.357   1.432  0.00  0.00    -0.031 C 
ATOM     21  C   UNL     1       1.962   0.238   1.655  0.00  0.00    -0.071 C 
ATOM     22  C   UNL     1       1.995   1.748   1.462  0.00  0.00    -0.031 C 
ATOM     23  N   UNL     1      -0.135   1.675   0.300  0.00  0.00    +0.381 N 
ATOM     24  H   UNL     1      -0.524   1.935   1.214  0.00  0.00    -0.081 HD
ENDBRANCH  12  21
BRANCH   4  25
ATOM     25  C   UNL     1       3.585  -3.383   6.858  0.00  0.00    +0.252 C 
ATOM     26  O   UNL     1       3.347  -2.943   7.967  0.00  0.00    -0.270 OA
ATOM     27  N   UNL     1       2.926  -4.470   6.409  0.00  0.00    -0.296 N 
ATOM     28  C   UNL     1       3.298  -5.074   5.127  0.00  0.00    +0.132 C 
BRANCH  27  29
ATOM     29  C   UNL     1       1.839  -5.048   7.203  0.00  0.00    +0.143 C 
BRANCH  29  30
ATOM     30  C   UNL     1       0.534  -4.406   6.809  0.00  0.00    -0.023 A 
ATOM     31  C   UNL     1       0.085  -3.272   7.459  0.00  0.00    +0.013 A 
ATOM     32  C   UNL     1      -1.091  -2.716   7.077  0.00  0.00    +0.045 A 
ATOM     33  S   UNL     1      -1.609  -3.814   5.768  0.00  0.00    -0.105 S 
ATOM     34  C   UNL     1      -0.221  -4.935   5.814  0.00  0.00    +0.050 A 
ENDBRANCH  29  30
ENDBRANCH  27  29
ENDBRANCH   4  25
BRANCH   5  35
ATOM     35  O   UNL     1       6.441  -3.716   7.279  0.00  0.00    -0.494 OA
ATOM     36  C   UNL     1       7.848  -3.757   7.526  0.00  0.00    +0.277 C 
ENDBRANCH   5  35
TORSDOF 5
