REMARK  Name = ZINC12558851
REMARK  12 active torsions:
REMARK  status: ('A' for Active; 'I' for Inactive)
REMARK    1  A    between atoms: C_1  and  C_2
REMARK    2  A    between atoms: C_2  and  N_3
REMARK    3  A    between atoms: N_3  and  C_4
REMARK    4  A    between atoms: N_3  and  S_6
REMARK    5  A    between atoms: C_4  and  C_5
REMARK    6  A    between atoms: S_6  and  C_9
REMARK    7  A    between atoms: C_13  and  C_15
REMARK    8  A    between atoms: N_17  and  C_18
REMARK    9  A    between atoms: C_18  and  C_20
REMARK   10  A    between atoms: C_18  and  C_31
REMARK   11  A    between atoms: C_20  and  C_21
REMARK   12  A    between atoms: N_33  and  N_34
REMARK                            x       y       z     vdW  Elec       q    Type
REMARK                         _______ _______ _______ _____ _____    ______ ____
ROOT
ATOM      1  C   UNL     1      -8.255   3.578   1.944  0.00  0.00    +0.165 C 
ENDROOT
BRANCH   1   4
ATOM      2  C   UNL     1      -6.251   2.197   1.834  0.00  0.00    +0.245 C 
ATOM      3  O   UNL     1      -6.854   1.430   1.110  0.00  0.00    -0.270 OA
ATOM      4  N   UNL     1      -6.863   3.302   2.305  0.00  0.00    -0.300 N 
ATOM      5  H   UNL     1      -6.381   3.914   2.882  0.00  0.00    +0.150 HD
BRANCH   2  10
ATOM      6  C   UNL     1      -2.898   0.520   2.058  0.00  0.00    +0.106 A 
ATOM      7  C   UNL     1      -2.213   1.396   2.882  0.00  0.00    +0.028 A 
ATOM      8  C   UNL     1      -2.838   2.531   3.366  0.00  0.00    +0.003 A 
ATOM      9  C   UNL     1      -4.149   2.797   3.030  0.00  0.00    +0.013 A 
ATOM     10  C   UNL     1      -4.845   1.918   2.198  0.00  0.00    +0.039 A 
ATOM     11  C   UNL     1      -4.207   0.777   1.709  0.00  0.00    +0.041 A 
BRANCH   6  12
ATOM     12  S   UNL     1      -2.092  -0.923   1.446  0.00  0.00    +0.061 S 
ATOM     13  O   UNL     1      -3.116  -1.857   1.133  0.00  0.00    -0.153 OA
ATOM     14  O   UNL     1      -1.043  -1.219   2.357  0.00  0.00    -0.153 OA
BRANCH  12  15
ATOM     15  N   UNL     1      -1.372  -0.511   0.012  0.00  0.00    -0.177 NA
BRANCH  15  17
ATOM     16  C   UNL     1      -0.019   1.526   0.010  0.00  0.00    +0.022 C 
ATOM     17  C   UNL     1       0.002  -0.004   0.002  0.00  0.00    +0.106 C 
ENDBRANCH  15  17
BRANCH  15  18
ATOM     18  C   UNL     1      -2.110  -0.654  -1.245  0.00  0.00    +0.106 C 
ATOM     19  C   UNL     1      -1.773  -2.003  -1.884  0.00  0.00    +0.022 C 
ENDBRANCH  15  18
ENDBRANCH  12  15
ENDBRANCH   6  12
ENDBRANCH   2  10
ENDBRANCH   1   4
BRANCH   1  20
ATOM     20  C   UNL     1      -8.515   5.059   2.041  0.00  0.00    +0.251 C 
ATOM     21  O   UNL     1      -7.625   5.811   2.380  0.00  0.00    -0.272 OA
ATOM     22  N   UNL     1      -9.738   5.550   1.753  0.00  0.00    -0.227 N 
ATOM     23  H   UNL     1     -10.450   4.949   1.483  0.00  0.00    +0.175 HD
BRANCH  22  24
ATOM     24  N   UNL     1      -9.980   6.926   1.844  0.00  0.00    -0.295 N 
ATOM     25  C   UNL     1     -11.153   7.397   1.567  0.00  0.00    +0.085 C 
ATOM     26  C   UNL     1     -12.347   6.571   1.141  0.00  0.00    +0.072 C 
ATOM     27  C   UNL     1     -13.557   7.508   1.351  0.00  0.00    +0.026 C 
ATOM     28  C   UNL     1     -12.914   8.906   1.232  0.00  0.00    +0.103 C 
ATOM     29  N   UNL     1     -11.510   8.729   1.621  0.00  0.00    -0.333 N 
ATOM     30  H   UNL     1     -10.914   9.450   1.878  0.00  0.00    +0.147 HD
ATOM     31  H   UNL     1      -9.268   7.527   2.114  0.00  0.00    +0.185 HD
ENDBRANCH  22  24
ENDBRANCH   1  20
BRANCH   1  32
ATOM     32  C   UNL     1      -9.188   2.832   2.900  0.00  0.00    +0.069 C 
BRANCH  32  33
ATOM     33  C   UNL     1      -9.015   1.347   2.715  0.00  0.00    -0.020 A 
ATOM     34  C   UNL     1      -9.755   0.549   1.929  0.00  0.00    +0.087 A 
ATOM     35  N   UNL     1      -9.304  -0.740   2.016  0.00  0.00    -0.360 N 
ATOM     36  H   UNL     1      -9.681  -1.496   1.539  0.00  0.00    +0.165 HD
ATOM     37  C   UNL     1      -8.235  -0.804   2.881  0.00  0.00    +0.047 A 
ATOM     38  C   UNL     1      -8.002   0.501   3.352  0.00  0.00    +0.003 A 
ATOM     39  C   UNL     1      -6.962   0.743   4.251  0.00  0.00    +0.010 A 
ATOM     40  C   UNL     1      -6.171  -0.291   4.667  0.00  0.00    +0.001 A 
ATOM     41  C   UNL     1      -6.394  -1.580   4.202  0.00  0.00    +0.002 A 
ATOM     42  C   UNL     1      -7.420  -1.843   3.322  0.00  0.00    +0.026 A 
ENDBRANCH  32  33
ENDBRANCH   1  32
TORSDOF 10
