REMARK  Name = ZINC09101898
REMARK  6 active torsions:
REMARK  status: ('A' for Active; 'I' for Inactive)
REMARK    1  A    between atoms: C_3  and  N_27
REMARK    2  A    between atoms: C_6  and  C_7
REMARK    3  A    between atoms: C_7  and  C_8
REMARK    4  A    between atoms: N_10  and  C_11
REMARK    5  A    between atoms: C_11  and  C_12
REMARK    6  A    between atoms: N_15  and  C_19
REMARK                            x       y       z     vdW  Elec       q    Type
REMARK                         _______ _______ _______ _____ _____    ______ ____
ROOT
ATOM      1  C   UNL     1       1.808   2.660  -1.259  0.00  0.00    +0.150 C 
ENDROOT
BRANCH   1   2
ATOM      2  C   UNL     1       1.474   1.854  -0.002  0.00  0.00    +0.213 C 
ATOM      3  C   UNL     1      -0.018   1.467   0.010  0.00  0.00    +0.163 C 
ATOM      4  N   UNL     1       0.002  -0.004   0.002  0.00  0.00    -0.234 N 
ATOM      5  C   UNL     1       1.276  -0.420  -0.012  0.00  0.00    +0.408 C 
ATOM      6  O   UNL     1       1.589  -1.594  -0.022  0.00  0.00    -0.226 OA
ATOM      7  O   UNL     1       2.170   0.574  -0.016  0.00  0.00    -0.444 OA
BRANCH   4   8
ATOM      8  C   UNL     1      -1.126  -0.834   0.008  0.00  0.00    +0.041 A 
ATOM      9  C   UNL     1      -2.398  -0.277   0.028  0.00  0.00    +0.025 A 
ATOM     10  C   UNL     1      -3.509  -1.097   0.028  0.00  0.00    +0.023 A 
ATOM     11  C   UNL     1      -3.356  -2.473   0.019  0.00  0.00    +0.059 A 
ATOM     12  C   UNL     1      -2.089  -3.030   0.005  0.00  0.00    +0.061 A 
ATOM     13  C   UNL     1      -0.974  -2.213  -0.001  0.00  0.00    +0.045 A 
ATOM     14 CL   UNL     1      -1.901  -4.756  -0.007  0.00  0.00    -0.082 Cl
ATOM     15 CL   UNL     1      -4.755  -3.500   0.027  0.00  0.00    -0.082 Cl
ENDBRANCH   4   8
ENDBRANCH   1   2
BRANCH   1  18
ATOM     16  C   UNL     1       3.753   3.732  -2.261  0.00  0.00    +0.217 C 
ATOM     17  O   UNL     1       3.048   4.081  -3.184  0.00  0.00    -0.275 OA
ATOM     18  N   UNL     1       3.229   3.016  -1.247  0.00  0.00    -0.311 N 
ATOM     19  H   UNL     1       3.793   2.736  -0.509  0.00  0.00    +0.149 HD
BRANCH  16  20
ATOM     20  C   UNL     1       5.215   4.097  -2.249  0.00  0.00    +0.130 C 
BRANCH  20  26
ATOM     21  C   UNL     1       5.960   4.242  -4.635  0.00  0.00    +0.006 A 
ATOM     22  C   UNL     1       6.257   4.970  -5.771  0.00  0.00    +0.033 A 
ATOM     23  C   UNL     1       6.150   6.348  -5.757  0.00  0.00    +0.126 A 
ATOM     24  C   UNL     1       5.740   6.998  -4.608  0.00  0.00    +0.033 A 
ATOM     25  C   UNL     1       5.437   6.269  -3.473  0.00  0.00    +0.006 A 
ATOM     26  C   UNL     1       5.545   4.891  -3.487  0.00  0.00    -0.038 A 
BRANCH  23  27
ATOM     27  N   UNL     1       6.474   7.128  -6.973  0.00  0.00    +0.056 N 
ATOM     28  O   UNL     1       6.380   8.342  -6.960  0.00  0.00    -0.126 OA
ATOM     29  O   UNL     1       6.836   6.556  -7.985  0.00  0.00    -0.126 OA
ENDBRANCH  23  27
ENDBRANCH  20  26
ENDBRANCH  16  20
ENDBRANCH   1  18
TORSDOF 6
