REMARK  Name = ZINC65198593
REMARK  8 active torsions:
REMARK  status: ('A' for Active; 'I' for Inactive)
REMARK    1  A    between atoms: C_1  and  C_2
REMARK    2  A    between atoms: C_2  and  O_3
REMARK    3  A    between atoms: O_3  and  C_4
REMARK    4  A    between atoms: C_8  and  C_10
REMARK    5  A    between atoms: C_12  and  C_15
REMARK    6  A    between atoms: C_15  and  N_16
REMARK    7  A    between atoms: N_19  and  C_24
REMARK    8  A    between atoms: C_29  and  C_30
REMARK                            x       y       z     vdW  Elec       q    Type
REMARK                         _______ _______ _______ _____ _____    ______ ____
ROOT
ATOM      1  C   UNL     1       3.477  -7.091   5.713  0.00  0.00    +0.223 C 
ENDROOT
BRANCH   1   2
ATOM      2  N   UNL     1       4.796  -7.493   5.218  0.00  0.00    -0.300 N 
ATOM      3  C   UNL     1       4.901  -8.252   4.072  0.00  0.00    +0.108 A 
ATOM      4  C   UNL     1       6.081  -8.635   3.594  0.00  0.00    +0.112 A 
ATOM      5  N   UNL     1       7.261  -8.291   4.221  0.00  0.00    -0.278 N 
ATOM      6  C   UNL     1       7.232  -7.548   5.348  0.00  0.00    +0.321 A 
ATOM      7  O   UNL     1       8.262  -7.236   5.914  0.00  0.00    -0.261 OA
ATOM      8  C   UNL     1       5.911  -7.116   5.879  0.00  0.00    +0.317 A 
ATOM      9  O   UNL     1       5.837  -6.441   6.888  0.00  0.00    -0.262 OA
BRANCH   5  10
ATOM     10  C   UNL     1       8.485  -8.711   3.690  0.00  0.00    +0.053 A 
ATOM     11  C   UNL     1       9.155  -7.915   2.770  0.00  0.00    +0.026 A 
ATOM     12  C   UNL     1      10.363  -8.333   2.248  0.00  0.00    +0.002 A 
ATOM     13  C   UNL     1      10.905  -9.543   2.640  0.00  0.00    +0.000 A 
ATOM     14  C   UNL     1      10.241 -10.339   3.555  0.00  0.00    +0.005 A 
ATOM     15  C   UNL     1       9.036  -9.924   4.086  0.00  0.00    -0.027 A 
ATOM     16  C   UNL     1       8.315 -10.788   5.088  0.00  0.00    +0.046 C 
ENDBRANCH   5  10
ENDBRANCH   1   2
BRANCH   1  19
ATOM     17  C   UNL     1       2.263  -4.302   3.732  0.00  0.00    +0.202 A 
ATOM     18  N   UNL     1       2.438  -5.612   3.982  0.00  0.00    -0.190 NA
ATOM     19  C   UNL     1       3.091  -5.770   5.098  0.00  0.00    +0.248 A 
ATOM     20  O   UNL     1       3.360  -4.561   5.607  0.00  0.00    -0.336 OA
ATOM     21  N   UNL     1       2.817  -3.614   4.700  0.00  0.00    -0.056 NA
BRANCH  17  26
ATOM     22  C   UNL     1       0.802  -1.824   1.306  0.00  0.00    +0.121 A 
ATOM     23  C   UNL     1       0.259  -2.672   0.350  0.00  0.00    +0.045 A 
ATOM     24  C   UNL     1       0.367  -4.042   0.494  0.00  0.00    +0.004 A 
ATOM     25  C   UNL     1       1.017  -4.575   1.590  0.00  0.00    +0.012 A 
ATOM     26  C   UNL     1       1.565  -3.732   2.554  0.00  0.00    +0.026 A 
ATOM     27  C   UNL     1       1.460  -2.351   2.405  0.00  0.00    +0.057 A 
BRANCH  22  28
ATOM     28  O   UNL     1       0.693  -0.477   1.160  0.00  0.00    -0.492 OA
BRANCH  28  30
ATOM     29  C   UNL     1      -0.019   1.526   0.010  0.00  0.00    +0.048 C 
ATOM     30  C   UNL     1       0.002  -0.004   0.002  0.00  0.00    +0.225 C 
ENDBRANCH  28  30
ENDBRANCH  22  28
ENDBRANCH  17  26
ENDBRANCH   1  19
TORSDOF 6
