REMARK  Name = ZINC20243250
REMARK  9 active torsions:
REMARK  status: ('A' for Active; 'I' for Inactive)
REMARK    1  A    between atoms: C_1  and  C_2
REMARK    2  A    between atoms: C_2  and  N_3
REMARK    3  A    between atoms: C_7  and  C_9
REMARK    4  A    between atoms: C_9  and  N_10
REMARK    5  A    between atoms: C_11  and  C_13
REMARK    6  A    between atoms: N_19  and  C_31
REMARK    7  A    between atoms: C_31  and  C_32
REMARK    8  A    between atoms: C_34  and  C_39
REMARK    9  A    between atoms: C_37  and  C_38
REMARK                            x       y       z     vdW  Elec       q    Type
REMARK                         _______ _______ _______ _____ _____    ______ ____
ROOT
ATOM      1  C   UNL     1      -3.555  -0.407  -4.320  0.00  0.00    +0.039 A 
ATOM      2  C   UNL     1      -4.019   0.469  -3.337  0.00  0.00    +0.015 A 
ATOM      3  C   UNL     1      -5.341   0.865  -3.346  0.00  0.00    +0.030 A 
ATOM      4  C   UNL     1      -6.204   0.396  -4.318  0.00  0.00    +0.115 A 
ATOM      5  C   UNL     1      -5.763  -0.484  -5.296  0.00  0.00    +0.063 A 
ATOM      6  C   UNL     1      -4.426  -0.876  -5.299  0.00  0.00    +0.038 A 
ATOM      7  N   UNL     1      -6.609  -0.996  -6.262  0.00  0.00    -0.261 N 
ATOM      8  C   UNL     1      -7.510  -0.421  -7.013  0.00  0.00    +0.253 C 
ATOM      9  O   UNL     1      -8.077  -1.157  -7.797  0.00  0.00    -0.270 OA
ATOM     10  C   UNL     1      -7.938   0.979  -7.050  0.00  0.00    +0.062 A 
ATOM     11  C   UNL     1      -8.138   1.610  -8.284  0.00  0.00    +0.015 A 
ATOM     12  C   UNL     1      -8.546   2.925  -8.330  0.00  0.00    +0.001 A 
ATOM     13  C   UNL     1      -8.762   3.632  -7.160  0.00  0.00    +0.002 A 
ATOM     14  C   UNL     1      -8.566   3.019  -5.935  0.00  0.00    +0.028 A 
ATOM     15  C   UNL     1      -8.154   1.706  -5.878  0.00  0.00    +0.106 A 
ATOM     16  S   UNL     1      -7.888   0.926  -4.318  0.00  0.00    +0.028 S 
ATOM     17  O   UNL     1      -7.998   1.941  -3.329  0.00  0.00    -0.164 OA
ATOM     18  O   UNL     1      -8.688  -0.248  -4.304  0.00  0.00    -0.164 OA
ENDROOT
BRANCH   1  20
ATOM     19  N   UNL     1      -1.297  -0.378  -3.374  0.00  0.00    -0.313 N 
ATOM     20  C   UNL     1      -2.139  -0.832  -4.323  0.00  0.00    +0.244 C 
ATOM     21  O   UNL     1      -1.734  -1.592  -5.181  0.00  0.00    -0.270 OA
ATOM     22  H   UNL     1      -1.620   0.228  -2.689  0.00  0.00    +0.149 HD
BRANCH  19  23
ATOM     23  C   UNL     1       0.106  -0.799  -3.377  0.00  0.00    +0.089 C 
BRANCH  23  28
ATOM     24  N   UNL     1       0.669   1.319  -2.261  0.00  0.00    +0.382 N 
ATOM     25  C   UNL     1       2.001   1.942  -2.412  0.00  0.00    -0.078 C 
ATOM     26  C   UNL     1       2.992   0.900  -1.835  0.00  0.00    -0.020 C 
ATOM     27  C   UNL     1       2.351  -0.434  -2.300  0.00  0.00    -0.016 C 
ATOM     28  C   UNL     1       0.838  -0.144  -2.204  0.00  0.00    -0.051 C 
ATOM     29  H   UNL     1       0.090   1.564  -3.050  0.00  0.00    -0.081 HD
BRANCH  24  31
ATOM     30  C   UNL     1      -0.247   3.292  -1.134  0.00  0.00    -0.017 C 
ATOM     31  C   UNL     1       0.040   1.793  -1.020  0.00  0.00    -0.082 C 
ENDBRANCH  24  31
ENDBRANCH  23  28
ENDBRANCH  19  23
ENDBRANCH   1  20
BRANCH   7  32
ATOM     32  C   UNL     1      -6.471  -2.437  -6.483  0.00  0.00    +0.149 C 
BRANCH  32  33
ATOM     33  C   UNL     1      -7.509  -3.171  -5.674  0.00  0.00    -0.027 A 
ATOM     34  C   UNL     1      -8.680  -3.597  -6.274  0.00  0.00    +0.008 A 
ATOM     35  C   UNL     1      -9.632  -4.270  -5.531  0.00  0.00    -0.050 A 
ATOM     36  C   UNL     1      -9.413  -4.518  -4.189  0.00  0.00    +0.003 A 
ATOM     37  C   UNL     1      -8.243  -4.093  -3.589  0.00  0.00    +0.004 A 
ATOM     38  C   UNL     1      -7.289  -3.423  -4.333  0.00  0.00    -0.046 A 
ATOM     39  C   UNL     1      -6.010  -2.965  -3.680  0.00  0.00    +0.044 C 
ATOM     40  C   UNL     1     -10.908  -4.733  -6.185  0.00  0.00    +0.044 C 
ENDBRANCH  32  33
ENDBRANCH   7  32
TORSDOF 6
