REMARK  Name = ZINC45632433
REMARK  9 active torsions:
REMARK  status: ('A' for Active; 'I' for Inactive)
REMARK    1  A    between atoms: C_1  and  C_2
REMARK    2  A    between atoms: C_2  and  O_3
REMARK    3  A    between atoms: O_3  and  C_4
REMARK    4  A    between atoms: C_4  and  C_6
REMARK    5  A    between atoms: C_7  and  C_20
REMARK    6  A    between atoms: C_12  and  C_14
REMARK    7  A    between atoms: C_20  and  N_21
REMARK    8  A    between atoms: N_24  and  C_27
REMARK    9  A    between atoms: C_27  and  C_28
REMARK                            x       y       z     vdW  Elec       q    Type
REMARK                         _______ _______ _______ _____ _____    ______ ____
ROOT
ATOM      1  C   UNL     1       1.349  -2.336  -2.519  0.00  0.00    +0.079 C 
ATOM      2  C   UNL     1       1.628  -3.654  -2.615  0.00  0.00    +0.038 C 
ATOM      3  N   UNL     1       2.333  -4.150  -3.674  0.00  0.00    -0.271 N 
ATOM      4  C   UNL     1       2.795  -3.394  -4.678  0.00  0.00    +0.304 C 
ATOM      5  O   UNL     1       3.413  -3.927  -5.579  0.00  0.00    -0.252 OA
ATOM      6  N   UNL     1       2.596  -2.062  -4.722  0.00  0.00    -0.288 N 
ATOM      7  C   UNL     1       1.840  -1.429  -3.628  0.00  0.00    +0.144 C 
ATOM      8  H   UNL     1       2.509  -5.104  -3.701  0.00  0.00    +0.156 HD
ATOM      9  H   UNL     1       2.940  -1.533  -5.459  0.00  0.00    +0.151 HD
ENDROOT
BRANCH   7  10
ATOM     10  C   UNL     1       0.643  -0.735  -4.225  0.00  0.00    -0.023 A 
ATOM     11  C   UNL     1      -0.157  -1.398  -5.136  0.00  0.00    +0.006 A 
ATOM     12  C   UNL     1      -1.256  -0.762  -5.684  0.00  0.00    +0.000 A 
ATOM     13  C   UNL     1      -1.553   0.538  -5.320  0.00  0.00    +0.000 A 
ATOM     14  C   UNL     1      -0.753   1.201  -4.409  0.00  0.00    +0.000 A 
ATOM     15  C   UNL     1       0.342   0.563  -3.858  0.00  0.00    +0.006 A 
ENDBRANCH   7  10
BRANCH   1  16
ATOM     16  C   UNL     1       0.618  -1.821  -1.423  0.00  0.00    +0.339 C 
ATOM     17  O   UNL     1      -0.569  -1.583  -1.541  0.00  0.00    -0.245 OA
BRANCH  16  18
ATOM     18  O   UNL     1       1.238  -1.595  -0.245  0.00  0.00    -0.462 OA
BRANCH  18  20
ATOM     19  C   UNL     1       1.308  -0.883   2.063  0.00  0.00    +0.048 C 
ATOM     20  C   UNL     1       0.439  -1.074   0.819  0.00  0.00    +0.229 C 
ENDBRANCH  18  20
ENDBRANCH  16  18
ENDBRANCH   1  16
BRANCH   2  21
ATOM     21  C   UNL     1       1.153  -4.593  -1.536  0.00  0.00    +0.135 C 
BRANCH  21  22
ATOM     22  N   UNL     1       0.182  -5.539  -2.102  0.00  0.00    -0.300 NA
ATOM     23  C   UNL     1      -1.045  -4.847  -2.521  0.00  0.00    +0.066 C 
ATOM     24  C   UNL     1      -2.004  -5.856  -3.157  0.00  0.00    -0.063 C 
ATOM     25  N   UNL     1      -2.323  -6.910  -2.185  0.00  0.00    +0.387 N 
ATOM     26  C   UNL     1      -1.091  -7.607  -1.795  0.00  0.00    -0.063 C 
ATOM     27  C   UNL     1      -0.124  -6.614  -1.147  0.00  0.00    +0.066 C 
ATOM     28  H   UNL     1      -2.748  -6.496  -1.369  0.00  0.00    -0.081 HD
BRANCH  25  29
ATOM     29  C   UNL     1      -3.257  -7.867  -2.791  0.00  0.00    +0.019 C 
BRANCH  29  30
ATOM     30  C   UNL     1      -3.680  -8.879  -1.757  0.00  0.00    +0.199 C 
ATOM     31  O   UNL     1      -3.246  -8.809  -0.627  0.00  0.00    -0.278 OA
ATOM     32  N   UNL     1      -4.541  -9.862  -2.088  0.00  0.00    -0.303 N 
ATOM     33  C   UNL     1      -5.036  -9.921  -3.445  0.00  0.00    +0.107 C 
ATOM     34  C   UNL     1      -6.324  -9.071  -3.566  0.00  0.00    +0.019 C 
ATOM     35  C   UNL     1      -7.439  -9.730  -2.869  0.00  0.00    +0.002 C 
ATOM     36  C   UNL     1      -7.233  -9.892  -1.366  0.00  0.00    +0.002 C 
ATOM     37  C   UNL     1      -6.445 -11.151  -1.101  0.00  0.00    +0.019 C 
ATOM     38  C   UNL     1      -4.935 -10.836  -1.052  0.00  0.00    +0.107 C 
ENDBRANCH  29  30
ENDBRANCH  25  29
ENDBRANCH  21  22
ENDBRANCH   2  21
TORSDOF 8
