REMARK  Name = ZINC67378338
REMARK  5 active torsions:
REMARK  status: ('A' for Active; 'I' for Inactive)
REMARK    1  A    between atoms: C_3  and  N_10
REMARK    2  A    between atoms: C_5  and  N_7
REMARK    3  A    between atoms: C_13  and  N_17
REMARK    4  A    between atoms: N_20  and  C_23
REMARK    5  A    between atoms: C_23  and  C_24
REMARK                            x       y       z     vdW  Elec       q    Type
REMARK                         _______ _______ _______ _____ _____    ______ ____
ROOT
ATOM      1  N   UNL     1       3.486   1.899   0.186  0.00  0.00    -0.270 N 
ATOM      2  C   UNL     1       3.465   3.365   0.253  0.00  0.00    +0.116 C 
ATOM      3  C   UNL     1       4.879   3.776   0.720  0.00  0.00    +0.048 C 
ATOM      4  C   UNL     1       5.730   2.575   0.246  0.00  0.00    +0.145 C 
ATOM      5  C   UNL     1       4.746   1.428   0.181  0.00  0.00    +0.237 C 
ATOM      6  O   UNL     1       5.049   0.255   0.129  0.00  0.00    -0.274 OA
ENDROOT
BRANCH   4   7
ATOM      7  N   UNL     1       6.794   2.284   1.216  0.00  0.00    -0.295 NA
ATOM      8  C   UNL     1       7.633   3.468   1.448  0.00  0.00    +0.066 C 
ATOM      9  C   UNL     1       8.690   3.141   2.506  0.00  0.00    -0.063 C 
ATOM     10  N   UNL     1       9.515   2.018   2.043  0.00  0.00    +0.382 N 
ATOM     11  C   UNL     1       8.666   0.836   1.840  0.00  0.00    -0.063 C 
ATOM     12  C   UNL     1       7.610   1.144   0.776  0.00  0.00    +0.066 C 
ATOM     13  H   UNL     1       9.962   2.265   1.173  0.00  0.00    -0.082 HD
BRANCH  10  14
ATOM     14  C   UNL     1      10.540   1.716   3.051  0.00  0.00    -0.075 C 
BRANCH  14  15
ATOM     15  C   UNL     1      11.516   2.890   3.153  0.00  0.00    -0.028 C 
ATOM     16  C   UNL     1      12.248   3.062   1.821  0.00  0.00    +0.002 C 
ATOM     17  C   UNL     1      13.224   4.236   1.923  0.00  0.00    +0.000 C 
ATOM     18  C   UNL     1      14.241   3.959   3.031  0.00  0.00    +0.000 C 
ATOM     19  C   UNL     1      13.509   3.787   4.364  0.00  0.00    +0.000 C 
ATOM     20  C   UNL     1      12.534   2.612   4.261  0.00  0.00    +0.002 C 
ENDBRANCH  14  15
ENDBRANCH  10  14
ENDBRANCH   4   7
BRANCH   1  23
ATOM     21  C   UNL     1       1.334  -1.072  -0.069  0.00  0.00    +0.004 A 
ATOM     22  C   UNL     1       2.465  -0.280  -0.024  0.00  0.00    +0.023 A 
ATOM     23  C   UNL     1       2.343   1.094   0.140  0.00  0.00    +0.038 A 
ATOM     24  C   UNL     1       1.083   1.667   0.259  0.00  0.00    +0.056 A 
ATOM     25  C   UNL     1      -0.043   0.870   0.213  0.00  0.00    +0.128 A 
ATOM     26  C   UNL     1       0.082  -0.498   0.050  0.00  0.00    +0.033 A 
BRANCH  25  27
ATOM     27  N   UNL     1      -1.386   1.479   0.340  0.00  0.00    +0.056 N 
ATOM     28  O   UNL     1      -1.496   2.675   0.483  0.00  0.00    -0.126 OA
ATOM     29  O   UNL     1      -2.373   0.782   0.300  0.00  0.00    -0.126 OA
ENDBRANCH  25  27
ENDBRANCH   1  23
TORSDOF 5
