REMARK  Name = ZINC09081055
REMARK  12 active torsions:
REMARK  status: ('A' for Active; 'I' for Inactive)
REMARK    1  A    between atoms: C_1  and  N_2
REMARK    2  A    between atoms: N_2  and  C_3
REMARK    3  A    between atoms: N_2  and  C_4
REMARK    4  A    between atoms: C_7  and  C_10
REMARK    5  A    between atoms: C_10  and  C_12
REMARK    6  A    between atoms: C_10  and  S_23
REMARK    7  A    between atoms: C_12  and  N_13
REMARK    8  A    between atoms: N_13  and  S_14
REMARK    9  A    between atoms: S_14  and  C_17
REMARK   10  A    between atoms: S_23  and  C_26
REMARK   11  A    between atoms: C_29  and  O_32
REMARK   12  A    between atoms: O_32  and  C_33
REMARK                            x       y       z     vdW  Elec       q    Type
REMARK                         _______ _______ _______ _____ _____    ______ ____
ROOT
ATOM      1  C   UNL     1       5.335   0.242  -3.748  0.00  0.00    +0.181 C 
ENDROOT
BRANCH   1   5
ATOM      2  C   UNL     1       5.540   3.708  -6.240  0.00  0.00    +0.029 A 
ATOM      3  C   UNL     1       6.707   3.109  -5.784  0.00  0.00    +0.023 A 
ATOM      4  C   UNL     1       6.637   1.989  -4.978  0.00  0.00    +0.007 A 
ATOM      5  C   UNL     1       5.407   1.464  -4.626  0.00  0.00    -0.022 A 
ATOM      6  C   UNL     1       4.243   2.055  -5.083  0.00  0.00    +0.007 A 
ATOM      7  C   UNL     1       4.306   3.178  -5.884  0.00  0.00    +0.023 A 
BRANCH   2   9
ATOM      8  C   UNL     1       6.901   5.471  -7.327  0.00  0.00    +0.129 C 
ATOM      9  N   UNL     1       5.607   4.840  -7.054  0.00  0.00    -0.336 N 
ATOM     10  C   UNL     1       4.384   5.397  -7.637  0.00  0.00    +0.129 C 
ENDBRANCH   2   9
ENDBRANCH   1   5
BRANCH   1  11
ATOM     11  S   UNL     1       4.477  -1.089  -4.633  0.00  0.00    +0.005 S 
ATOM     12  O   UNL     1       4.556  -2.300  -3.892  0.00  0.00    -0.169 OA
ATOM     13  O   UNL     1       3.229  -0.623  -5.128  0.00  0.00    -0.169 OA
BRANCH  11  14
ATOM     14  C   UNL     1       5.452  -1.378  -6.072  0.00  0.00    +0.089 A 
ATOM     15  C   UNL     1       5.186  -0.682  -7.236  0.00  0.00    +0.030 A 
ATOM     16  C   UNL     1       5.953  -0.902  -8.364  0.00  0.00    +0.047 A 
ATOM     17  C   UNL     1       6.983  -1.831  -8.331  0.00  0.00    +0.120 A 
ATOM     18  C   UNL     1       7.243  -2.533  -7.163  0.00  0.00    +0.047 A 
ATOM     19  C   UNL     1       6.478  -2.304  -6.036  0.00  0.00    +0.030 A 
BRANCH  17  20
ATOM     20  O   UNL     1       7.735  -2.053  -9.441  0.00  0.00    -0.495 OA
ATOM     21  C   UNL     1       7.410  -1.295 -10.608  0.00  0.00    +0.277 C 
ENDBRANCH  17  20
ENDBRANCH  11  14
ENDBRANCH   1  11
BRANCH   1  22
ATOM     22  C   UNL     1       4.569   0.579  -2.467  0.00  0.00    +0.137 C 
BRANCH  22  23
ATOM     23  N   UNL     1       4.498  -0.609  -1.613  0.00  0.00    -0.187 NA
ATOM     24  H   UNL     1       4.706  -1.483  -1.979  0.00  0.00    +0.148 HD
BRANCH  23  25
ATOM     25  S   UNL     1       4.064  -0.460  -0.022  0.00  0.00    +0.065 S 
ATOM     26  O   UNL     1       4.857   0.588   0.519  0.00  0.00    -0.153 OA
ATOM     27  O   UNL     1       4.062  -1.773   0.523  0.00  0.00    -0.153 OA
BRANCH  25  28
ATOM     28  C   UNL     1       2.395   0.102   0.013  0.00  0.00    +0.144 A 
ATOM     29  C   UNL     1       1.250  -0.624   0.031  0.00  0.00    +0.038 A 
ATOM     30  C   UNL     1       0.037   0.037   0.058  0.00  0.00    +0.030 A 
ATOM     31  C   UNL     1       0.028   1.394   0.065  0.00  0.00    +0.080 A 
ATOM     32  S   UNL     1       1.772   1.774   0.033  0.00  0.00    -0.057 S 
ATOM     33 CL   UNL     1      -1.327   2.478   0.090  0.00  0.00    -0.076 Cl
ENDBRANCH  25  28
ENDBRANCH  23  25
ENDBRANCH  22  23
ENDBRANCH   1  22
TORSDOF 9
