REMARK  Name = ZINC13500202
REMARK  9 active torsions:
REMARK  status: ('A' for Active; 'I' for Inactive)
REMARK    1  A    between atoms: C_1  and  C_2
REMARK    2  A    between atoms: C_2  and  C_3
REMARK    3  A    between atoms: C_3  and  C_4
REMARK    4  A    between atoms: C_4  and  C_6
REMARK    5  A    between atoms: C_4  and  N_72
REMARK    6  A    between atoms: N_10  and  C_11
REMARK    7  A    between atoms: C_16  and  C_17
REMARK    8  A    between atoms: C_16  and  N_72
REMARK    9  A    between atoms: C_32  and  N_72
REMARK                            x       y       z     vdW  Elec       q    Type
REMARK                         _______ _______ _______ _____ _____    ______ ____
ROOT
ATOM      1  N   UNL     1       0.734  -2.023   1.440  0.00  0.00    +0.391 N 
ATOM      2  H   UNL     1       1.069  -2.341   0.523  0.00  0.00    -0.080 HD
ENDROOT
BRANCH   1   3
ATOM      3  C   UNL     1       0.793  -0.547   1.489  0.00  0.00    -0.067 C 
ATOM      4  C   UNL     1      -0.019   0.019   0.323  0.00  0.00    -0.015 C 
ATOM      5  C   UNL     1       0.053   1.548   0.346  0.00  0.00    -0.002 C 
ATOM      6  C   UNL     1       1.511   1.992   0.215  0.00  0.00    -0.000 C 
ATOM      7  C   UNL     1       2.324   1.425   1.381  0.00  0.00    -0.002 C 
ATOM      8  C   UNL     1       2.252  -0.103   1.357  0.00  0.00    -0.015 C 
ENDBRANCH   1   3
BRANCH   1   9
ATOM      9  C   UNL     1       1.598  -2.599   2.493  0.00  0.00    +0.003 C 
BRANCH   9  10
ATOM     10  C   UNL     1       1.609  -1.709   3.709  0.00  0.00    +0.138 A 
ATOM     11  N   UNL     1       1.691  -0.401   3.721  0.00  0.00    -0.115 NA
ATOM     12  N   UNL     1       1.667  -0.012   4.949  0.00  0.00    -0.023 NA
ATOM     13  N   UNL     1       1.580  -1.038   5.721  0.00  0.00    -0.044 NA
ATOM     14  N   UNL     1       1.541  -2.103   4.994  0.00  0.00    -0.228 N 
BRANCH  14  15
ATOM     15  C   UNL     1       1.443  -3.483   5.476  0.00  0.00    +0.111 C 
ATOM     16  C   UNL     1       0.173  -3.653   6.335  0.00  0.00    +0.027 C 
ATOM     17  C   UNL     1       0.606  -4.622   7.465  0.00  0.00    +0.002 C 
ATOM     18  C   UNL     1       2.054  -4.165   7.771  0.00  0.00    +0.002 C 
ATOM     19  C   UNL     1       2.639  -3.809   6.389  0.00  0.00    +0.027 C 
ENDBRANCH  14  15
ENDBRANCH   9  10
BRANCH   9  20
ATOM     20  C   UNL     1       3.019  -2.725   1.941  0.00  0.00    -0.008 C 
BRANCH  20  22
ATOM     21  C   UNL     1       4.472  -3.956   0.324  0.00  0.00    +0.004 C 
ATOM     22  C   UNL     1       3.033  -3.737   0.793  0.00  0.00    -0.005 C 
ENDBRANCH  20  22
ENDBRANCH   9  20
ENDBRANCH   1   9
BRANCH   1  23
ATOM     23  C   UNL     1      -0.660  -2.479   1.627  0.00  0.00    -0.036 C 
BRANCH  23  24
ATOM     24  C   UNL     1      -0.711  -3.975   1.456  0.00  0.00    +0.001 A 
ATOM     25  C   UNL     1      -0.724  -4.781   2.548  0.00  0.00    +0.017 A 
ATOM     26  C   UNL     1      -0.779  -6.228   2.349  0.00  0.00    +0.002 A 
ATOM     27  C   UNL     1      -0.799  -7.107   3.440  0.00  0.00    +0.059 A 
ATOM     28  C   UNL     1      -0.848  -8.466   3.221  0.00  0.00    +0.167 A 
ATOM     29  C   UNL     1      -0.878  -8.970   1.914  0.00  0.00    +0.168 A 
ATOM     30  C   UNL     1      -0.858  -8.109   0.832  0.00  0.00    +0.075 A 
ATOM     31  C   UNL     1      -0.808  -6.736   1.036  0.00  0.00    +0.053 A 
ATOM     32  N   UNL     1      -0.786  -5.863  -0.033  0.00  0.00    -0.322 N 
ATOM     33  H   UNL     1      -0.805  -6.213  -0.937  0.00  0.00    +0.169 HD
ATOM     34  C   UNL     1      -0.740  -4.533   0.162  0.00  0.00    +0.251 A 
ATOM     35  O   UNL     1      -0.721  -3.792  -0.806  0.00  0.00    -0.268 OA
ATOM     36  O   UNL     1      -0.926 -10.332   1.977  0.00  0.00    -0.453 OA
ATOM     37  C   UNL     1      -1.339 -10.642   3.321  0.00  0.00    +0.466 C 
ATOM     38  O   UNL     1      -0.877  -9.518   4.092  0.00  0.00    -0.453 OA
ENDBRANCH  23  24
ENDBRANCH   1  23
TORSDOF 8
