REMARK  Name = ZINC08677019
REMARK  13 active torsions:
REMARK  status: ('A' for Active; 'I' for Inactive)
REMARK    1  A    between atoms: C_1  and  C_2
REMARK    2  A    between atoms: C_6  and  N_9
REMARK    3  A    between atoms: C_7  and  C_8
REMARK    4  A    between atoms: C_14  and  C_16
REMARK    5  A    between atoms: C_14  and  C_25
REMARK    6  A    between atoms: C_14  and  N_70
REMARK    7  A    between atoms: C_19  and  N_22
REMARK    8  A    between atoms: N_22  and  C_23
REMARK    9  A    between atoms: N_22  and  C_24
REMARK   10  A    between atoms: N_29  and  C_30
REMARK   11  A    between atoms: C_30  and  C_31
REMARK   12  A    between atoms: C_30  and  C_32
REMARK   13  A    between atoms: C_30  and  C_33
REMARK                            x       y       z     vdW  Elec       q    Type
REMARK                         _______ _______ _______ _____ _____    ______ ____
ROOT
ATOM      1  C   UNL     1       3.459   0.618   0.395  0.00  0.00    +0.033 C 
ENDROOT
BRANCH   1   7
ATOM      2  N   UNL     1       5.257  -1.208  -2.964  0.00  0.00    -0.333 N 
ATOM      3  C   UNL     1       3.810  -0.955  -3.010  0.00  0.00    +0.086 C 
ATOM      4  C   UNL     1       3.448   0.112  -1.973  0.00  0.00    -0.058 C 
ATOM      5  C   UNL     1       5.305  -0.600  -0.593  0.00  0.00    -0.058 C 
ATOM      6  C   UNL     1       5.666  -1.667  -1.629  0.00  0.00    +0.086 C 
ATOM      7  N   UNL     1       3.845  -0.371  -0.634  0.00  0.00    +0.391 N 
ATOM      8  H   UNL     1       3.363  -1.258  -0.443  0.00  0.00    -0.080 HD
BRANCH   2  14
ATOM      9  C   UNL     1       7.819  -2.232  -7.030  0.00  0.00    +0.044 C 
ATOM     10  C   UNL     1       6.877  -2.649  -5.931  0.00  0.00    -0.046 A 
ATOM     11  C   UNL     1       6.386  -3.942  -5.894  0.00  0.00    +0.004 A 
ATOM     12  C   UNL     1       5.522  -4.328  -4.887  0.00  0.00    +0.002 A 
ATOM     13  C   UNL     1       5.145  -3.424  -3.913  0.00  0.00    +0.023 A 
ATOM     14  C   UNL     1       5.636  -2.125  -3.947  0.00  0.00    +0.033 A 
ATOM     15  C   UNL     1       6.500  -1.738  -4.964  0.00  0.00    -0.027 A 
ATOM     16  C   UNL     1       7.030  -0.328  -5.008  0.00  0.00    +0.046 C 
ENDBRANCH   2  14
ENDBRANCH   1   7
BRANCH   1  17
ATOM     17  C   UNL     1       3.853   0.092   1.752  0.00  0.00    -0.054 A 
ATOM     18  C   UNL     1       3.541  -1.208   2.104  0.00  0.00    +0.004 A 
ATOM     19  C   UNL     1       3.906  -1.695   3.345  0.00  0.00    +0.023 A 
ATOM     20  C   UNL     1       4.576  -0.873   4.242  0.00  0.00    +0.029 A 
ATOM     21  C   UNL     1       4.882   0.434   3.886  0.00  0.00    +0.023 A 
ATOM     22  C   UNL     1       4.520   0.913   2.643  0.00  0.00    +0.004 A 
BRANCH  20  23
ATOM     23  N   UNL     1       4.941  -1.361   5.499  0.00  0.00    -0.336 N 
ATOM     24  C   UNL     1       5.647  -0.492   6.444  0.00  0.00    +0.129 C 
ATOM     25  C   UNL     1       4.617  -2.740   5.872  0.00  0.00    +0.129 C 
ENDBRANCH  20  23
ENDBRANCH   1  17
BRANCH   1  26
ATOM     26  C   UNL     1       1.966   0.816   0.348  0.00  0.00    +0.143 A 
ATOM     27  N   UNL     1       1.049  -0.117   0.426  0.00  0.00    -0.115 NA
ATOM     28  N   UNL     1      -0.105   0.451   0.347  0.00  0.00    -0.023 NA
ATOM     29  N   UNL     1       0.052   1.722   0.219  0.00  0.00    -0.043 NA
ATOM     30  N   UNL     1       1.315   1.987   0.215  0.00  0.00    -0.225 N 
BRANCH  30  31
ATOM     31  C   UNL     1       1.925   3.313   0.090  0.00  0.00    +0.059 C 
ATOM     32  C   UNL     1       0.827   4.373  -0.007  0.00  0.00    +0.036 C 
ATOM     33  C   UNL     1       2.796   3.591   1.317  0.00  0.00    +0.036 C 
ATOM     34  C   UNL     1       2.791   3.359  -1.170  0.00  0.00    +0.036 C 
ENDBRANCH  30  31
ENDBRANCH   1  26
TORSDOF 6
