REMARK  Name = ZINC19354093
REMARK  3 active torsions:
REMARK  status: ('A' for Active; 'I' for Inactive)
REMARK    1  A    between atoms: C_4  and  N_7
REMARK    2  A    between atoms: C_9  and  C_18
REMARK    3  A    between atoms: C_10  and  C_12
REMARK                            x       y       z     vdW  Elec       q    Type
REMARK                         _______ _______ _______ _____ _____    ______ ____
ROOT
ATOM      1  C   UNL     1       5.240  -3.797  -0.216  0.00  0.00    +0.212 C 
ATOM      2  N   UNL     1       4.103  -4.559  -0.764  0.00  0.00    -0.293 N 
ATOM      3  C   UNL     1       3.080  -4.946   0.060  0.00  0.00    +0.183 C 
ATOM      4  N   UNL     1       3.285  -5.197   1.341  0.00  0.00    -0.183 NA
ATOM      5  C   UNL     1       4.527  -5.001   1.845  0.00  0.00    +0.236 A 
ATOM      6  N   UNL     1       5.503  -4.337   1.122  0.00  0.00    -0.285 N 
ATOM      7  C   UNL     1       6.647  -4.307   1.885  0.00  0.00    +0.076 A 
ATOM      8  C   UNL     1       7.927  -3.804   1.694  0.00  0.00    +0.077 A 
ATOM      9  C   UNL     1       8.876  -3.940   2.689  0.00  0.00    +0.164 A 
ATOM     10  C   UNL     1       8.559  -4.579   3.884  0.00  0.00    +0.164 A 
ATOM     11  C   UNL     1       7.292  -5.085   4.091  0.00  0.00    +0.079 A 
ATOM     12  C   UNL     1       6.322  -4.954   3.092  0.00  0.00    +0.095 A 
ATOM     13  N   UNL     1       5.014  -5.345   3.009  0.00  0.00    -0.210 NA
ATOM     14  O   UNL     1       9.511  -4.702   4.856  0.00  0.00    -0.488 OA
ATOM     15  C   UNL     1      10.601  -5.575   4.556  0.00  0.00    +0.232 C 
ATOM     16  C   UNL     1      11.672  -4.847   3.759  0.00  0.00    +0.082 C 
ATOM     17  C   UNL     1      11.178  -4.415   2.387  0.00  0.00    +0.232 C 
ATOM     18  O   UNL     1      10.136  -3.445   2.505  0.00  0.00    -0.488 OA
ATOM     19  N   UNL     1       1.819  -5.076  -0.454  0.00  0.00    -0.331 N 
ATOM     20  H   UNL     1       4.079  -4.785  -1.707  0.00  0.00    +0.151 HD
ATOM     21  H   UNL     1       1.656  -4.894  -1.393  0.00  0.00    +0.145 HD
ATOM     22  H   UNL     1       1.087  -5.350   0.121  0.00  0.00    +0.145 HD
ENDROOT
BRANCH   1  25
ATOM     23  N   UNL     1       4.299  -0.378   0.663  0.00  0.00    -0.239 N 
ATOM     24  C   UNL     1       4.542  -1.671   1.001  0.00  0.00    +0.122 A 
ATOM     25  C   UNL     1       4.886  -2.336  -0.123  0.00  0.00    +0.039 A 
ATOM     26  C   UNL     1       4.854  -1.420  -1.194  0.00  0.00    +0.100 A 
ATOM     27  N   UNL     1       4.496  -0.246  -0.718  0.00  0.00    -0.166 NA
BRANCH  23  31
ATOM     28  C   UNL     1       3.153   2.662   3.274  0.00  0.00    +0.000 A 
ATOM     29  C   UNL     1       3.312   2.933   1.928  0.00  0.00    +0.002 A 
ATOM     30  C   UNL     1       3.692   1.928   1.060  0.00  0.00    +0.028 A 
ATOM     31  C   UNL     1       3.914   0.644   1.541  0.00  0.00    +0.065 A 
ATOM     32  C   UNL     1       3.754   0.376   2.894  0.00  0.00    +0.028 A 
ATOM     33  C   UNL     1       3.374   1.385   3.757  0.00  0.00    +0.002 A 
ENDBRANCH  23  31
BRANCH  26  34
ATOM     34  C   UNL     1       5.164  -1.727  -2.612  0.00  0.00    +0.005 A 
ATOM     35  C   UNL     1       6.250  -2.541  -2.950  0.00  0.00    +0.030 A 
ATOM     36  C   UNL     1       6.503  -2.801  -4.280  0.00  0.00    +0.111 A 
ATOM     37  N   UNL     1       5.737  -2.292  -5.227  0.00  0.00    -0.263 NA
ATOM     38  C   UNL     1       4.704  -1.519  -4.952  0.00  0.00    +0.111 A 
ATOM     39  C   UNL     1       4.376  -1.214  -3.647  0.00  0.00    +0.030 A 
ENDBRANCH  26  34
ENDBRANCH   1  25
TORSDOF 3
