REMARK  Name = ZINC40058599
REMARK  7 active torsions:
REMARK  status: ('A' for Active; 'I' for Inactive)
REMARK    1  A    between atoms: C_1  and  C_2
REMARK    2  A    between atoms: C_4  and  C_34
REMARK    3  A    between atoms: C_13  and  C_24
REMARK    4  A    between atoms: C_20  and  C_23
REMARK    5  A    between atoms: C_26  and  O_32
REMARK    6  A    between atoms: C_27  and  O_31
REMARK    7  A    between atoms: O_32  and  C_33
REMARK                            x       y       z     vdW  Elec       q    Type
REMARK                         _______ _______ _______ _____ _____    ______ ____
ROOT
ATOM      1  C   UNL     1      -0.523   1.450   0.038  0.00  0.00    +0.044 C 
ATOM      2  C   UNL     1      -0.237  -0.029   0.015  0.00  0.00    -0.047 A 
ATOM      3  C   UNL     1      -0.233  -0.708  -1.195  0.00  0.00    +0.007 A 
ATOM      4  C   UNL     1       0.027  -2.050  -1.231  0.00  0.00    -0.036 A 
ATOM      5  C   UNL     1       0.288  -2.735  -0.045  0.00  0.00    +0.067 A 
ATOM      6  C   UNL     1       0.282  -2.060   1.186  0.00  0.00    +0.140 A 
ATOM      7  C   UNL     1       0.022  -0.690   1.195  0.00  0.00    +0.050 A 
ATOM      8  O   UNL     1       0.518  -2.692   2.358  0.00  0.00    -0.450 OA
ATOM      9  C   UNL     1       1.000  -3.951   2.351  0.00  0.00    +0.199 A 
ATOM     10  C   UNL     1       1.049  -4.715   1.220  0.00  0.00    +0.072 A 
ATOM     11  C   UNL     1       0.580  -4.191  -0.067  0.00  0.00    +0.199 A 
ATOM     12  O   UNL     1       0.443  -4.884  -1.060  0.00  0.00    -0.287 OA
ATOM     13  C   UNL     1       1.629  -6.040   1.590  0.00  0.00    +0.151 C 
ATOM     14  N   UNL     1       1.914  -5.964   3.033  0.00  0.00    -0.235 N 
ATOM     15  C   UNL     1       1.544  -4.742   3.468  0.00  0.00    +0.289 C 
ATOM     16  O   UNL     1       1.646  -4.351   4.614  0.00  0.00    -0.266 OA
ATOM     17  C   UNL     1       2.468  -6.978   3.812  0.00  0.00    +0.172 A 
ATOM     18  C   UNL     1       2.952  -8.219   3.341  0.00  0.00    +0.091 A 
ATOM     19  C   UNL     1       3.406  -8.918   4.397  0.00  0.00    +0.136 A 
ATOM     20  O   UNL     1       3.228  -8.173   5.500  0.00  0.00    -0.358 OA
ATOM     21  N   UNL     1       2.638  -6.946   5.110  0.00  0.00    -0.063 NA
ATOM     22  C   UNL     1       4.009 -10.298   4.350  0.00  0.00    +0.089 C 
ATOM     23  C   UNL     1       0.030  -2.784  -2.547  0.00  0.00    +0.044 C 
ENDROOT
BRANCH  13  24
ATOM     24  C   UNL     1       2.901  -6.285   0.820  0.00  0.00    -0.017 A 
ATOM     25  C   UNL     1       2.882  -7.090  -0.304  0.00  0.00    +0.055 A 
ATOM     26  C   UNL     1       4.050  -7.316  -1.014  0.00  0.00    +0.163 A 
ATOM     27  C   UNL     1       5.241  -6.732  -0.593  0.00  0.00    +0.173 A 
ATOM     28  C   UNL     1       5.253  -5.926   0.534  0.00  0.00    +0.063 A 
ATOM     29  C   UNL     1       4.082  -5.700   1.235  0.00  0.00    +0.025 A 
ATOM     30 BR   UNL     1       6.869  -5.130   1.110  0.00  0.00    -0.046 Br
BRANCH  27  31
ATOM     31  O   UNL     1       6.390  -6.952  -1.287  0.00  0.00    -0.503 OA
ATOM     32  H   UNL     1       6.554  -6.309  -1.990  0.00  0.00    +0.292 HD
ENDBRANCH  27  31
BRANCH  26  33
ATOM     33  O   UNL     1       4.033  -8.108  -2.119  0.00  0.00    -0.491 OA
ATOM     34  C   UNL     1       2.775  -8.675  -2.492  0.00  0.00    +0.277 C 
ENDBRANCH  26  33
ENDBRANCH  13  24
TORSDOF 3
