REMARK  Name = ZINC39697534
REMARK  5 active torsions:
REMARK  status: ('A' for Active; 'I' for Inactive)
REMARK    1  A    between atoms: C_1  and  C_2
REMARK    2  A    between atoms: C_10  and  C_12
REMARK    3  A    between atoms: C_12  and  C_26
REMARK    4  A    between atoms: C_13  and  C_14
REMARK    5  A    between atoms: C_19  and  C_20
REMARK                            x       y       z     vdW  Elec       q    Type
REMARK                         _______ _______ _______ _____ _____    ______ ____
ROOT
ATOM      1  C   UNL     1       0.087  -5.575   2.239  0.00  0.00    +0.091 C 
ATOM      2  C   UNL     1       0.099  -6.712   1.521  0.00  0.00    +0.011 C 
ENDROOT
BRANCH   1  12
ATOM      3  C   UNL     1      -0.018   1.503   0.010  0.00  0.00    +0.044 C 
ATOM      4  C   UNL     1       0.002  -0.004   0.002  0.00  0.00    -0.048 A 
ATOM      5  C   UNL     1       0.006  -0.686  -1.206  0.00  0.00    +0.005 A 
ATOM      6  C   UNL     1       0.024  -2.052  -1.236  0.00  0.00    +0.030 A 
ATOM      7  C   UNL     1       0.040  -2.775  -0.038  0.00  0.00    +0.089 A 
ATOM      8  C   UNL     1       0.036  -2.083   1.186  0.00  0.00    +0.067 A 
ATOM      9  C   UNL     1       0.023  -0.695   1.195  0.00  0.00    +0.031 A 
ATOM     10  N   UNL     1       0.053  -3.048   2.174  0.00  0.00    -0.337 N 
ATOM     11  H   UNL     1       0.055  -2.892   3.132  0.00  0.00    +0.167 HD
ATOM     12  C   UNL     1       0.067  -4.266   1.550  0.00  0.00    +0.149 A 
ATOM     13  N   UNL     1       0.059  -4.099   0.250  0.00  0.00    -0.227 NA
ENDBRANCH   1  12
BRANCH   2  14
ATOM     14  C   UNL     1       0.119  -8.046   2.223  0.00  0.00    +0.107 C 
ATOM     15  C   UNL     1      -1.053  -8.900   1.782  0.00  0.00    +0.121 C 
ATOM     16  N   UNL     1      -0.542  -9.952   1.230  0.00  0.00    -0.161 NA
ATOM     17  N   UNL     1       0.849  -9.934   1.233  0.00  0.00    -0.153 NA
ATOM     18  C   UNL     1       1.328  -8.855   1.797  0.00  0.00    +0.083 C 
BRANCH  18  19
ATOM     19  C   UNL     1       2.744  -8.498   1.980  0.00  0.00    -0.001 A 
ATOM     20  C   UNL     1       3.091  -7.300   2.611  0.00  0.00    +0.010 A 
ATOM     21  C   UNL     1       4.421  -6.973   2.778  0.00  0.00    +0.001 A 
ATOM     22  C   UNL     1       5.410  -7.827   2.322  0.00  0.00    +0.000 A 
ATOM     23  C   UNL     1       5.074  -9.015   1.696  0.00  0.00    +0.001 A 
ATOM     24  C   UNL     1       3.750  -9.359   1.528  0.00  0.00    +0.010 A 
ENDBRANCH  18  19
ENDBRANCH   2  14
BRANCH   1  25
ATOM     25  C   UNL     1       0.093  -5.631   3.670  0.00  0.00    +0.103 C 
ATOM     26  N   UNL     1       0.099  -5.675   4.805  0.00  0.00    -0.191 NA
ENDBRANCH   1  25
TORSDOF 4
