REMARK  Name = ZINC14533724
REMARK  12 active torsions:
REMARK  status: ('A' for Active; 'I' for Inactive)
REMARK    1  A    between atoms: C_1  and  C_2
REMARK    2  A    between atoms: C_2  and  C_3
REMARK    3  A    between atoms: C_2  and  C_4
REMARK    4  A    between atoms: C_2  and  O_36
REMARK    5  A    between atoms: C_5  and  C_6
REMARK    6  A    between atoms: C_9  and  C_12
REMARK    7  A    between atoms: C_12  and  N_74
REMARK    8  A    between atoms: C_14  and  O_28
REMARK    9  A    between atoms: N_17  and  C_21
REMARK   10  A    between atoms: C_21  and  C_22
REMARK   11  A    between atoms: O_28  and  C_29
REMARK   12  A    between atoms: C_29  and  C_30
REMARK                            x       y       z     vdW  Elec       q    Type
REMARK                         _______ _______ _______ _____ _____    ______ ____
ROOT
ATOM      1  C   UNL     1       4.435   1.758  -0.626  0.00  0.00    -0.044 C 
ATOM      2  C   UNL     1       3.176   1.425  -1.403  0.00  0.00    +0.120 C 
ATOM      3  C   UNL     1       2.072   2.445  -1.112  0.00  0.00    +0.137 C 
ATOM      4  N   UNL     1       1.357   2.022   0.103  0.00  0.00    -0.300 N 
ATOM      5  C   UNL     1       1.963   2.096   1.292  0.00  0.00    +0.199 C 
ATOM      6  O   UNL     1       1.376   1.743   2.292  0.00  0.00    -0.278 OA
ATOM      7  C   UNL     1       3.382   2.614   1.392  0.00  0.00    +0.019 C 
ATOM      8  N   UNL     1       4.286   1.581   0.832  0.00  0.00    +0.390 N 
ATOM      9  H   UNL     1       3.881   0.655   1.012  0.00  0.00    -0.081 HD
ENDROOT
BRANCH   8  10
ATOM     10  C   UNL     1       5.604   1.657   1.481  0.00  0.00    -0.042 C 
BRANCH  10  14
ATOM     11  C   UNL     1       5.051   1.935   5.712  0.00  0.00    +0.025 A 
ATOM     12  C   UNL     1       5.139   0.685   5.097  0.00  0.00    +0.017 A 
ATOM     13  C   UNL     1       5.317   0.602   3.732  0.00  0.00    +0.003 A 
ATOM     14  C   UNL     1       5.409   1.755   2.972  0.00  0.00    -0.064 A 
ATOM     15  C   UNL     1       5.329   2.997   3.576  0.00  0.00    +0.003 A 
ATOM     16  C   UNL     1       5.145   3.094   4.940  0.00  0.00    +0.017 A 
BRANCH  11  18
ATOM     17  C   UNL     1       4.713   2.104   8.290  0.00  0.00    -0.063 C 
ATOM     18  C   UNL     1       4.865   2.028   7.129  0.00  0.00    -0.063 C 
BRANCH  17  20
ATOM     19  C   UNL     1       4.460   3.673  10.157  0.00  0.00    +0.055 C 
ATOM     20  C   UNL     1       4.522   2.200   9.747  0.00  0.00    +0.121 C 
ATOM     21  C   UNL     1       3.216   1.506  10.137  0.00  0.00    +0.055 C 
BRANCH  20  22
ATOM     22  O   UNL     1       5.616   1.566  10.413  0.00  0.00    -0.377 OA
ATOM     23  H   UNL     1       5.556   1.591  11.378  0.00  0.00    +0.211 HD
ENDBRANCH  20  22
ENDBRANCH  17  20
ENDBRANCH  11  18
ENDBRANCH  10  14
ENDBRANCH   8  10
BRANCH   4  24
ATOM     24  C   UNL     1      -0.019   1.526   0.010  0.00  0.00    +0.111 C 
BRANCH  24  25
ATOM     25  C   UNL     1      -0.988   2.709   0.010  0.00  0.00    +0.011 C 
ATOM     26  C   UNL     1      -0.926   3.423   1.364  0.00  0.00    +0.033 C 
ATOM     27  C   UNL     1      -1.957   4.555   1.383  0.00  0.00    +0.160 C 
ATOM     28  O   UNL     1      -3.257   4.020   1.128  0.00  0.00    -0.380 OA
ATOM     29  C   UNL     1      -3.387   3.383  -0.145  0.00  0.00    +0.160 C 
ATOM     30  C   UNL     1      -2.415   2.203  -0.225  0.00  0.00    +0.033 C 
ENDBRANCH  24  25
ENDBRANCH   4  24
BRANCH   2  31
ATOM     31  O   UNL     1       3.470   1.436  -2.802  0.00  0.00    -0.372 OA
BRANCH  31  32
ATOM     32  C   UNL     1       2.686   0.520  -3.568  0.00  0.00    +0.195 C 
BRANCH  32  33
ATOM     33  C   UNL     1       3.078   0.616  -5.021  0.00  0.00    -0.022 A 
ATOM     34  C   UNL     1       2.426   1.505  -5.855  0.00  0.00    +0.006 A 
ATOM     35  C   UNL     1       2.788   1.596  -7.186  0.00  0.00    +0.000 A 
ATOM     36  C   UNL     1       3.796   0.792  -7.684  0.00  0.00    +0.000 A 
ATOM     37  C   UNL     1       4.445  -0.099  -6.851  0.00  0.00    +0.000 A 
ATOM     38  C   UNL     1       4.086  -0.188  -5.519  0.00  0.00    +0.006 A 
ENDBRANCH  32  33
ENDBRANCH  31  32
ENDBRANCH   2  31
TORSDOF 10
