REMARK  Name = ZINC10461260
REMARK  10 active torsions:
REMARK  status: ('A' for Active; 'I' for Inactive)
REMARK    1  A    between atoms: C_1  and  N_53
REMARK    2  A    between atoms: C_2  and  N_53
REMARK    3  A    between atoms: C_3  and  C_4
REMARK    4  A    between atoms: C_3  and  N_53
REMARK    5  A    between atoms: C_4  and  N_5
REMARK    6  A    between atoms: C_16  and  C_18
REMARK    7  A    between atoms: C_21  and  S_24
REMARK    8  A    between atoms: S_24  and  N_27
REMARK    9  A    between atoms: N_27  and  C_28
REMARK   10  A    between atoms: N_27  and  C_29
REMARK                            x       y       z     vdW  Elec       q    Type
REMARK                         _______ _______ _______ _____ _____    ______ ____
ROOT
ATOM      1  N   UNL     1      -0.143   0.190  -0.538  0.00  0.00    -0.248 N 
ATOM      2  C   UNL     1      -1.188  -0.656  -0.205  0.00  0.00    +0.168 A 
ATOM      3  N   UNL     1      -2.264  -0.397   0.502  0.00  0.00    -0.224 NA
ATOM      4  C   UNL     1      -3.211  -1.327   0.750  0.00  0.00    +0.080 A 
ATOM      5  C   UNL     1      -4.406  -1.180   1.492  0.00  0.00    +0.030 A 
ATOM      6  C   UNL     1      -5.266  -2.234   1.650  0.00  0.00    +0.022 A 
ATOM      7  C   UNL     1      -5.000  -3.478   1.093  0.00  0.00    +0.042 A 
ATOM      8  C   UNL     1      -3.838  -3.658   0.362  0.00  0.00    +0.037 A 
ATOM      9  C   UNL     1      -2.971  -2.607   0.199  0.00  0.00    +0.042 A 
ATOM     10  S   UNL     1      -1.420  -2.375  -0.635  0.00  0.00    -0.052 S 
ATOM     11 CL   UNL     1      -6.111  -4.794   1.312  0.00  0.00    -0.084 Cl
ATOM     12  C   UNL     1      -0.153   1.470  -0.119  0.00  0.00    +0.252 C 
ATOM     13  O   UNL     1      -1.106   1.900   0.502  0.00  0.00    -0.270 OA
ENDROOT
BRANCH  12  14
ATOM     14  C   UNL     1       0.992   2.355  -0.419  0.00  0.00    +0.037 A 
ATOM     15  C   UNL     1       2.269   1.817  -0.584  0.00  0.00    +0.015 A 
ATOM     16  C   UNL     1       3.333   2.647  -0.869  0.00  0.00    +0.029 A 
ATOM     17  C   UNL     1       3.138   4.012  -0.982  0.00  0.00    +0.105 A 
ATOM     18  C   UNL     1       1.876   4.553  -0.814  0.00  0.00    +0.029 A 
ATOM     19  C   UNL     1       0.802   3.733  -0.534  0.00  0.00    +0.015 A 
BRANCH  17  20
ATOM     20  S   UNL     1       4.503   5.067  -1.340  0.00  0.00    +0.060 S 
ATOM     21  O   UNL     1       5.478   4.263  -1.990  0.00  0.00    -0.153 OA
ATOM     22  O   UNL     1       3.965   6.241  -1.933  0.00  0.00    -0.153 OA
BRANCH  20  23
ATOM     23  N   UNL     1       5.160   5.527   0.109  0.00  0.00    -0.183 NA
ATOM     24  C   UNL     1       6.221   4.724   0.720  0.00  0.00    +0.131 C 
ATOM     25  C   UNL     1       4.680   6.739   0.778  0.00  0.00    +0.131 C 
ENDBRANCH  20  23
ENDBRANCH  17  20
ENDBRANCH  12  14
BRANCH   1  26
ATOM     26  C   UNL     1       0.973  -0.308  -1.346  0.00  0.00    +0.097 C 
BRANCH  26  27
ATOM     27  C   UNL     1       1.848  -1.230  -0.494  0.00  0.00    -0.060 C 
BRANCH  27  30
ATOM     28  C   UNL     1       3.955  -2.422  -0.466  0.00  0.00    -0.097 C 
ATOM     29  C   UNL     1       2.487  -2.603  -2.383  0.00  0.00    -0.097 C 
ATOM     30  N   UNL     1       2.980  -1.707  -1.316  0.00  0.00    +0.377 N 
ATOM     31  H   UNL     1       3.443  -0.898  -1.747  0.00  0.00    -0.083 HD
ENDBRANCH  27  30
ENDBRANCH  26  27
ENDBRANCH   1  26
TORSDOF 6
