REMARK  Name = ZINC09008937
REMARK  9 active torsions:
REMARK  status: ('A' for Active; 'I' for Inactive)
REMARK    1  A    between atoms: C_1  and  C_2
REMARK    2  A    between atoms: C_5  and  N_8
REMARK    3  A    between atoms: C_9  and  C_29
REMARK    4  A    between atoms: C_12  and  S_13
REMARK    5  A    between atoms: S_13  and  C_14
REMARK    6  A    between atoms: C_14  and  C_15
REMARK    7  A    between atoms: N_17  and  N_18
REMARK    8  A    between atoms: C_19  and  C_20
REMARK    9  A    between atoms: C_19  and  C_21
REMARK                            x       y       z     vdW  Elec       q    Type
REMARK                         _______ _______ _______ _____ _____    ______ ____
ROOT
ATOM      1  N   UNL     1      -5.268   1.183  -4.508  0.00  0.00    -0.270 N 
ATOM      2  C   UNL     1      -5.954  -0.003  -4.660  0.00  0.00    +0.169 A 
ATOM      3  N   UNL     1      -5.274  -0.926  -4.021  0.00  0.00    -0.128 NA
ATOM      4  N   UNL     1      -4.223  -0.410  -3.491  0.00  0.00    -0.122 NA
ATOM      5  C   UNL     1      -4.166   0.875  -3.758  0.00  0.00    +0.197 A 
ENDROOT
BRANCH   1  10
ATOM      6  C   UNL     1      -6.712   6.271  -6.566  0.00  0.00    +0.044 C 
ATOM      7  C   UNL     1      -6.328   4.920  -6.019  0.00  0.00    -0.050 A 
ATOM      8  C   UNL     1      -5.179   4.295  -6.467  0.00  0.00    +0.005 A 
ATOM      9  C   UNL     1      -4.825   3.057  -5.968  0.00  0.00    +0.026 A 
ATOM     10  C   UNL     1      -5.625   2.439  -5.016  0.00  0.00    +0.051 A 
ATOM     11  C   UNL     1      -6.781   3.067  -4.571  0.00  0.00    +0.026 A 
ATOM     12  C   UNL     1      -7.127   4.308  -5.070  0.00  0.00    +0.005 A 
ENDBRANCH   1  10
BRANCH   2  13
ATOM     13  C   UNL     1      -7.220  -0.197  -5.399  0.00  0.00    +0.020 A 
ATOM     14  C   UNL     1      -7.675   0.785  -6.280  0.00  0.00    +0.011 A 
ATOM     15  C   UNL     1      -8.854   0.596  -6.970  0.00  0.00    +0.001 A 
ATOM     16  C   UNL     1      -9.591  -0.560  -6.783  0.00  0.00    +0.000 A 
ATOM     17  C   UNL     1      -9.148  -1.536  -5.907  0.00  0.00    +0.001 A 
ATOM     18  C   UNL     1      -7.968  -1.361  -5.214  0.00  0.00    +0.011 A 
ENDBRANCH   2  13
BRANCH   5  19
ATOM     19  S   UNL     1      -2.909   1.996  -3.240  0.00  0.00    -0.076 S 
BRANCH  19  20
ATOM     20  C   UNL     1      -1.842   0.865  -2.313  0.00  0.00    +0.174 C 
BRANCH  20  21
ATOM     21  C   UNL     1      -0.664   1.625  -1.760  0.00  0.00    +0.242 C 
ATOM     22  O   UNL     1      -0.556   2.814  -1.972  0.00  0.00    -0.273 OA
ATOM     23  N   UNL     1       0.269   0.983  -1.030  0.00  0.00    -0.206 N 
ATOM     24  H   UNL     1       0.183   0.032  -0.860  0.00  0.00    +0.177 HD
BRANCH  23  25
ATOM     25  N   UNL     1       1.367   1.688  -0.520  0.00  0.00    -0.185 NA
ATOM     26  C   UNL     1       2.324   1.052   0.084  0.00  0.00    +0.063 C 
ATOM     27  C   UNL     1       3.409   1.821   0.793  0.00  0.00    +0.068 C 
BRANCH  26  28
ATOM     28  C   UNL     1       2.349  -0.422   0.075  0.00  0.00    -0.001 A 
ATOM     29  C   UNL     1       1.936  -1.124  -1.060  0.00  0.00    +0.011 A 
ATOM     30  C   UNL     1       1.962  -2.503  -1.062  0.00  0.00    +0.022 A 
ATOM     31  C   UNL     1       2.396  -3.192   0.059  0.00  0.00    +0.059 A 
ATOM     32  C   UNL     1       2.806  -2.502   1.188  0.00  0.00    +0.060 A 
ATOM     33  C   UNL     1       2.790  -1.122   1.201  0.00  0.00    +0.031 A 
ATOM     34 CL   UNL     1       3.349  -3.375   2.587  0.00  0.00    -0.082 Cl
ATOM     35 CL   UNL     1       2.425  -4.928   0.048  0.00  0.00    -0.082 Cl
ENDBRANCH  26  28
ENDBRANCH  23  25
ENDBRANCH  20  21
ENDBRANCH  19  20
ENDBRANCH   5  19
TORSDOF 7
