REMARK  Name = ZINC25424646
REMARK  9 active torsions:
REMARK  status: ('A' for Active; 'I' for Inactive)
REMARK    1  A    between atoms: C_1  and  C_2
REMARK    2  A    between atoms: C_15  and  C_17
REMARK    3  A    between atoms: C_17  and  O_18
REMARK    4  A    between atoms: O_18  and  C_19
REMARK    5  A    between atoms: C_19  and  C_21
REMARK    6  A    between atoms: C_26  and  N_27
REMARK    7  A    between atoms: N_27  and  C_28
REMARK    8  A    between atoms: C_29  and  C_30
REMARK    9  A    between atoms: C_30  and  C_32
REMARK                            x       y       z     vdW  Elec       q    Type
REMARK                         _______ _______ _______ _____ _____    ______ ____
ROOT
ATOM      1  O   UNL     1      -0.737   1.496   1.202  0.00  0.00    -0.453 OA
ENDROOT
BRANCH   1   2
ATOM      2  C   UNL     1      -0.187   1.164   2.387  0.00  0.00    +0.341 C 
ATOM      3  O   UNL     1       0.823   0.490   2.420  0.00  0.00    -0.245 OA
BRANCH   2   4
ATOM      4  C   UNL     1      -0.812   1.617   3.642  0.00  0.00    +0.080 A 
ATOM      5  C   UNL     1      -1.901   2.493   3.610  0.00  0.00    +0.017 A 
ATOM      6  C   UNL     1      -2.480   2.913   4.787  0.00  0.00    +0.001 A 
ATOM      7  C   UNL     1      -1.990   2.471   6.006  0.00  0.00    +0.002 A 
ATOM      8  C   UNL     1      -0.915   1.607   6.055  0.00  0.00    +0.024 A 
ATOM      9  C   UNL     1      -0.321   1.168   4.878  0.00  0.00    +0.045 A 
BRANCH   9  10
ATOM     10  N   UNL     1       0.759   0.292   4.925  0.00  0.00    -0.320 N 
ATOM     11  H   UNL     1       1.288   0.022   3.999  0.00  0.00    +0.152 HD
BRANCH  10  12
ATOM     12  C   UNL     1       1.161  -0.232   6.119  0.00  0.00    +0.076 C 
ATOM     13  C   UNL     1       2.213  -1.085   6.164  0.00  0.00    +0.070 C 
BRANCH  13  14
ATOM     14  C   UNL     1       2.626  -1.624   7.391  0.00  0.00    +0.260 C 
ATOM     15  O   UNL     1       2.041  -1.326   8.414  0.00  0.00    -0.283 OA
BRANCH  14  16
ATOM     16  C   UNL     1       3.796  -2.573   7.442  0.00  0.00    +0.455 C 
ATOM     17  F   UNL     1       4.016  -2.973   8.764  0.00  0.00    -0.163 F 
ATOM     18  F   UNL     1       3.519  -3.697   6.655  0.00  0.00    -0.163 F 
ATOM     19  F   UNL     1       4.939  -1.931   6.952  0.00  0.00    -0.163 F 
ENDBRANCH  14  16
ENDBRANCH  13  14
ENDBRANCH  10  12
ENDBRANCH   9  10
ENDBRANCH   2   4
ENDBRANCH   1   2
BRANCH   1  20
ATOM     20  C   UNL     1      -0.068   1.015   0.007  0.00  0.00    +0.306 C 
BRANCH  20  34
ATOM     21  C   UNL     1      -5.701   4.657  -7.400  0.00  0.00    +0.008 C 
ATOM     22  C   UNL     1      -4.582   4.288  -6.423  0.00  0.00    -0.009 C 
ATOM     23  C   UNL     1      -4.031   2.903  -6.774  0.00  0.00    +0.008 C 
ATOM     24  C   UNL     1      -2.757   2.633  -5.972  0.00  0.00    +0.037 C 
ATOM     25  C   UNL     1      -3.047   2.872  -4.493  0.00  0.00    -0.023 A 
ATOM     26  C   UNL     1      -4.118   3.597  -4.108  0.00  0.00    -0.004 A 
ATOM     27  S   UNL     1      -4.054   3.607  -2.336  0.00  0.00    -0.073 S 
ATOM     28  C   UNL     1      -2.586   2.634  -2.118  0.00  0.00    +0.116 A 
ATOM     29  C   UNL     1      -2.194   2.334  -3.433  0.00  0.00    +0.075 A 
ATOM     30  C   UNL     1      -1.008   1.540  -3.562  0.00  0.00    +0.260 A 
ATOM     31  O   UNL     1      -0.588   1.228  -4.662  0.00  0.00    -0.267 OA
ATOM     32  N   UNL     1      -0.364   1.147  -2.446  0.00  0.00    -0.308 N 
ATOM     33  H   UNL     1       0.552   0.543  -2.524  0.00  0.00    +0.170 HD
ATOM     34  C   UNL     1      -0.821   1.482  -1.212  0.00  0.00    +0.149 A 
ATOM     35  N   UNL     1      -1.898   2.205  -1.063  0.00  0.00    -0.223 NA
ATOM     36  C   UNL     1      -5.136   4.250  -4.992  0.00  0.00    +0.046 C 
ENDBRANCH  20  34
ENDBRANCH   1  20
TORSDOF 8
