REMARK  Name = ZINC63383494
REMARK  9 active torsions:
REMARK  status: ('A' for Active; 'I' for Inactive)
REMARK    1  A    between atoms: C_1  and  C_2
REMARK    2  A    between atoms: C_2  and  C_3
REMARK    3  A    between atoms: C_3  and  C_4
REMARK    4  A    between atoms: C_4  and  C_5
REMARK    5  A    between atoms: C_5  and  C_6
REMARK    6  A    between atoms: C_6  and  N_7
REMARK    7  A    between atoms: C_8  and  O_33
REMARK    8  A    between atoms: C_10  and  C_17
REMARK    9  A    between atoms: N_31  and  C_32
REMARK                            x       y       z     vdW  Elec       q    Type
REMARK                         _______ _______ _______ _____ _____    ______ ____
ROOT
ATOM      1  N   UNL     1       2.362  -4.550   3.528  0.00  0.00    -0.259 N 
ATOM      2  C   UNL     1       3.817  -4.666   3.412  0.00  0.00    +0.219 C 
ATOM      3  C   UNL     1       4.466  -4.310   4.752  0.00  0.00    +0.142 C 
ATOM      4  C   UNL     1       3.737  -5.027   5.861  0.00  0.00    +0.229 C 
ATOM      5  O   UNL     1       4.347  -5.417   6.834  0.00  0.00    -0.275 OA
ATOM      6  N   UNL     1       2.411  -5.232   5.771  0.00  0.00    -0.240 N 
ATOM      7  C   UNL     1       1.732  -4.882   4.667  0.00  0.00    +0.310 C 
ATOM      8  O   UNL     1       0.516  -4.869   4.697  0.00  0.00    -0.252 OA
ATOM      9  H   UNL     1       1.938  -5.635   6.516  0.00  0.00    +0.159 HD
ENDROOT
BRANCH   3  10
ATOM     10  C   UNL     1       4.382  -2.799   4.976  0.00  0.00    +0.099 C 
ATOM     11  C   UNL     1       2.917  -2.381   5.125  0.00  0.00    +0.124 C 
ATOM     12  C   UNL     1       2.912  -0.857   5.171  0.00  0.00    -0.036 C 
ATOM     13  C   UNL     1       2.262  -0.517   6.276  0.00  0.00    -0.001 A 
ATOM     14  C   UNL     1       1.863   0.792   6.817  0.00  0.00    +0.010 A 
ATOM     15  C   UNL     1       1.207   0.774   8.007  0.00  0.00    +0.001 A 
ATOM     16  C   UNL     1       0.911  -0.401   8.705  0.00  0.00    +0.002 A 
ATOM     17  C   UNL     1       1.236  -1.648   8.280  0.00  0.00    +0.026 A 
ATOM     18  C   UNL     1       1.923  -1.759   7.037  0.00  0.00    +0.043 A 
ATOM     19  N   UNL     1       2.328  -2.832   6.385  0.00  0.00    -0.376 N 
ATOM     20  C   UNL     1       3.639  -0.031   4.138  0.00  0.00    +0.049 C 
ATOM     21  C   UNL     1       5.046  -0.644   4.011  0.00  0.00    +0.089 C 
ATOM     22  N   UNL     1       4.949  -2.093   3.816  0.00  0.00    -0.299 NA
ATOM     23  C   UNL     1       6.250  -2.662   3.439  0.00  0.00    +0.105 C 
ATOM     24  H   UNL     1       2.257  -3.753   6.680  0.00  0.00    +0.160 HD
ENDBRANCH   3  10
BRANCH   2  25
ATOM     25  O   UNL     1       4.287  -3.770   2.403  0.00  0.00    -0.373 OA
ATOM     26  H   UNL     1       3.917  -3.937   1.526  0.00  0.00    +0.212 HD
ENDBRANCH   2  25
BRANCH   1  27
ATOM     27  C   UNL     1       1.583  -4.061   2.388  0.00  0.00    +0.112 C 
BRANCH  27  28
ATOM     28  C   UNL     1       1.572  -2.531   2.397  0.00  0.00    +0.019 C 
BRANCH  28  29
ATOM     29  C   UNL     1       0.877  -2.018   1.134  0.00  0.00    +0.002 C 
BRANCH  29  30
ATOM     30  C   UNL     1       0.866  -0.488   1.143  0.00  0.00    -0.000 C 
BRANCH  30  32
ATOM     31  C   UNL     1       0.160   1.554  -0.111  0.00  0.00    +0.004 C 
ATOM     32  C   UNL     1       0.172   0.024  -0.120  0.00  0.00    -0.003 C 
ENDBRANCH  30  32
ENDBRANCH  29  30
ENDBRANCH  28  29
ENDBRANCH  27  28
ENDBRANCH   1  27
TORSDOF 7
