REMARK  Name = ZINC04684158
REMARK  8 active torsions:
REMARK  status: ('A' for Active; 'I' for Inactive)
REMARK    1  A    between atoms: C_1  and  C_2
REMARK    2  A    between atoms: N_13  and  C_16
REMARK    3  A    between atoms: C_19  and  N_25
REMARK    4  A    between atoms: C_20  and  N_22
REMARK    5  A    between atoms: N_25  and  C_26
REMARK    6  A    between atoms: N_25  and  C_27
REMARK    7  A    between atoms: C_27  and  C_28
REMARK    8  A    between atoms: C_28  and  C_29
REMARK                            x       y       z     vdW  Elec       q    Type
REMARK                         _______ _______ _______ _____ _____    ______ ____
ROOT
ATOM      1  C   UNL     1       5.548  -0.560   2.322  0.00  0.00    +0.046 A 
ATOM      2  C   UNL     1       5.562  -0.501   3.709  0.00  0.00    +0.026 A 
ATOM      3  C   UNL     1       6.760  -0.573   4.391  0.00  0.00    +0.027 A 
ATOM      4  C   UNL     1       7.952  -0.705   3.689  0.00  0.00    +0.060 A 
ATOM      5  C   UNL     1       7.937  -0.763   2.301  0.00  0.00    +0.149 A 
ATOM      6  C   UNL     1       6.738  -0.696   1.620  0.00  0.00    +0.058 A 
ENDROOT
BRANCH   1  16
ATOM      7  C   UNL     1      -0.019   1.526   0.010  0.00  0.00    +0.007 C 
ATOM      8  C   UNL     1       0.002  -0.004   0.002  0.00  0.00    -0.013 C 
ATOM      9  C   UNL     1       0.692  -0.484  -1.270  0.00  0.00    +0.004 C 
ATOM     10  C   UNL     1       2.193  -0.138  -1.281  0.00  0.00    +0.014 C 
ATOM     11  C   UNL     1       2.788  -0.746  -0.034  0.00  0.00    +0.088 C 
ATOM     12  C   UNL     1       2.146   0.001   1.173  0.00  0.00    +0.088 C 
ATOM     13  C   UNL     1       0.724  -0.503   1.270  0.00  0.00    +0.016 C 
ATOM     14  C   UNL     1       3.125  -0.352   2.248  0.00  0.00    +0.230 C 
ATOM     15  O   UNL     1       2.893  -0.490   3.429  0.00  0.00    -0.275 OA
ATOM     16  N   UNL     1       4.330  -0.486   1.629  0.00  0.00    -0.210 N 
ATOM     17  C   UNL     1       4.239  -0.548   0.268  0.00  0.00    +0.230 C 
ATOM     18  O   UNL     1       5.146  -0.458  -0.532  0.00  0.00    -0.275 OA
ENDBRANCH   1  16
BRANCH   5  19
ATOM     19  N   UNL     1       9.207  -0.902   1.553  0.00  0.00    +0.058 N 
ATOM     20  O   UNL     1       9.194  -0.953   0.345  0.00  0.00    -0.126 OA
ATOM     21  O   UNL     1      10.256  -0.965   2.150  0.00  0.00    -0.126 OA
ENDBRANCH   5  19
BRANCH   4  22
ATOM     22  N   UNL     1       9.165  -0.777   4.379  0.00  0.00    -0.331 N 
ATOM     23  C   UNL     1       9.695  -2.078   4.796  0.00  0.00    +0.129 C 
BRANCH  22  24
ATOM     24  C   UNL     1       9.908   0.448   4.686  0.00  0.00    +0.109 C 
BRANCH  24  25
ATOM     25  C   UNL     1       9.461   0.989   6.046  0.00  0.00    +0.054 C 
BRANCH  25  26
ATOM     26  C   UNL     1      10.224   2.249   6.361  0.00  0.00    -0.046 A 
ATOM     27  C   UNL     1      11.427   2.177   7.039  0.00  0.00    +0.004 A 
ATOM     28  C   UNL     1      12.128   3.333   7.328  0.00  0.00    +0.000 A 
ATOM     29  C   UNL     1      11.626   4.561   6.940  0.00  0.00    +0.000 A 
ATOM     30  C   UNL     1      10.424   4.633   6.261  0.00  0.00    +0.000 A 
ATOM     31  C   UNL     1       9.725   3.477   5.968  0.00  0.00    +0.004 A 
ENDBRANCH  25  26
ENDBRANCH  24  25
ENDBRANCH  22  24
ENDBRANCH   4  22
TORSDOF 6
