REMARK  Name = ZINC22530219
REMARK  9 active torsions:
REMARK  status: ('A' for Active; 'I' for Inactive)
REMARK    1  A    between atoms: C_4  and  C_7
REMARK    2  A    between atoms: C_7  and  C_8
REMARK    3  A    between atoms: C_8  and  C_9
REMARK    4  A    between atoms: C_9  and  S_10
REMARK    5  A    between atoms: S_10  and  N_13
REMARK    6  A    between atoms: C_17  and  C_20
REMARK    7  A    between atoms: N_22  and  C_23
REMARK    8  A    between atoms: C_28  and  C_29
REMARK    9  A    between atoms: N_31  and  C_32
REMARK                            x       y       z     vdW  Elec       q    Type
REMARK                         _______ _______ _______ _____ _____    ______ ____
ROOT
ATOM      1  C   UNL     1      -1.046  -2.639   2.479  0.00  0.00    +0.222 C 
ATOM      2  O   UNL     1      -0.159  -2.465   3.287  0.00  0.00    -0.275 OA
ATOM      3  N   UNL     1      -1.962  -3.607   2.682  0.00  0.00    -0.285 N 
ATOM      4  H   UNL     1      -2.818  -3.706   1.999  0.00  0.00    +0.155 HD
ENDROOT
BRANCH   1   9
ATOM      5  N   UNL     1       0.012  -0.015  -0.005  0.00  0.00    -0.180 NA
ATOM      6  C   UNL     1       0.018  -0.765  -1.269  0.00  0.00    +0.109 C 
ATOM      7  C   UNL     1      -1.126  -1.777  -1.252  0.00  0.00    +0.018 C 
ATOM      8  C   UNL     1      -1.014  -2.651  -0.001  0.00  0.00    +0.015 C 
ATOM      9  C   UNL     1      -1.125  -1.774   1.248  0.00  0.00    +0.091 C 
ATOM     10  C   UNL     1       0.026  -0.762   1.260  0.00  0.00    +0.121 C 
BRANCH   5  11
ATOM     11  S   UNL     1      -0.018   1.641  -0.008  0.00  0.00    +0.032 S 
ATOM     12  O   UNL     1      -0.627   1.991  -1.242  0.00  0.00    -0.158 OA
ATOM     13  O   UNL     1      -0.626   1.994   1.227  0.00  0.00    -0.158 OA
BRANCH  11  14
ATOM     14  C   UNL     1       1.727   2.138  -0.009  0.00  0.00    +0.185 C 
BRANCH  14  15
ATOM     15  C   UNL     1       1.822   3.665  -0.011  0.00  0.00    +0.029 C 
BRANCH  15  16
ATOM     16  C   UNL     1       3.293   4.084  -0.012  0.00  0.00    +0.037 C 
BRANCH  16  20
ATOM     17  C   UNL     1       3.560   8.348  -0.018  0.00  0.00    +0.000 A 
ATOM     18  C   UNL     1       3.517   7.659   1.180  0.00  0.00    +0.000 A 
ATOM     19  C   UNL     1       3.430   6.280   1.182  0.00  0.00    +0.003 A 
ATOM     20  C   UNL     1       3.387   5.588  -0.015  0.00  0.00    -0.047 A 
ATOM     21  C   UNL     1       3.435   6.276  -1.213  0.00  0.00    +0.003 A 
ATOM     22  C   UNL     1       3.516   7.656  -1.214  0.00  0.00    +0.000 A 
ENDBRANCH  16  20
ENDBRANCH  15  16
ENDBRANCH  14  15
ENDBRANCH  11  14
ENDBRANCH   5  11
ENDBRANCH   1   9
BRANCH   3  23
ATOM     23  C   UNL     1      -1.825  -4.481   3.758  0.00  0.00    +0.046 A 
ATOM     24  C   UNL     1      -0.570  -4.731   4.298  0.00  0.00    +0.024 A 
ATOM     25  C   UNL     1      -0.437  -5.598   5.364  0.00  0.00    +0.002 A 
ATOM     26  C   UNL     1      -1.549  -6.224   5.903  0.00  0.00    +0.001 A 
ATOM     27  C   UNL     1      -2.802  -5.987   5.380  0.00  0.00    +0.015 A 
ATOM     28  C   UNL     1      -2.954  -5.109   4.305  0.00  0.00    +0.058 A 
BRANCH  28  29
ATOM     29  C   UNL     1      -4.293  -4.847   3.744  0.00  0.00    +0.246 C 
ATOM     30  O   UNL     1      -4.411  -4.157   2.749  0.00  0.00    -0.270 OA
ATOM     31  N   UNL     1      -5.385  -5.372   4.333  0.00  0.00    -0.308 N 
ATOM     32  H   UNL     1      -5.278  -5.996   5.233  0.00  0.00    +0.149 HD
BRANCH  31  33
ATOM     33  C   UNL     1      -6.715  -5.113   3.776  0.00  0.00    +0.073 C 
ATOM     34  C   UNL     1      -7.243  -3.783   4.316  0.00  0.00    +0.022 C 
ATOM     35  C   UNL     1      -8.632  -3.511   3.734  0.00  0.00    +0.002 C 
ATOM     36  C   UNL     1      -9.583  -4.640   4.137  0.00  0.00    +0.000 C 
ATOM     37  C   UNL     1      -9.055  -5.970   3.597  0.00  0.00    +0.002 C 
ATOM     38  C   UNL     1      -7.666  -6.241   4.179  0.00  0.00    +0.022 C 
ENDBRANCH  31  33
ENDBRANCH  28  29
ENDBRANCH   3  23
TORSDOF 9
