REMARK  Name = ZINC12715056
REMARK  7 active torsions:
REMARK  status: ('A' for Active; 'I' for Inactive)
REMARK    1  A    between atoms: C_1  and  C_2
REMARK    2  A    between atoms: C_3  and  C_17
REMARK    3  A    between atoms: C_5  and  C_7
REMARK    4  A    between atoms: C_17  and  N_55
REMARK    5  A    between atoms: C_22  and  C_24
REMARK    6  A    between atoms: C_24  and  C_25
REMARK    7  A    between atoms: C_25  and  N_26
REMARK                            x       y       z     vdW  Elec       q    Type
REMARK                         _______ _______ _______ _____ _____    ______ ____
ROOT
ATOM      1  C   UNL     1       3.500   7.039   2.886  0.00  0.00    +0.088 C 
ATOM      2  C   UNL     1       2.096   6.654   3.275  0.00  0.00    +0.124 A 
ATOM      3  C   UNL     1       1.282   5.822   2.602  0.00  0.00    +0.066 A 
ATOM      4  N   UNL     1       0.126   5.740   3.279  0.00  0.00    -0.216 NA
ATOM      5  C   UNL     1       0.209   6.502   4.345  0.00  0.00    +0.229 A 
ATOM      6  O   UNL     1       1.422   7.082   4.362  0.00  0.00    -0.440 OA
ENDROOT
BRANCH   5   7
ATOM      7  C   UNL     1      -0.852   6.691   5.355  0.00  0.00    +0.059 A 
ATOM      8  C   UNL     1      -0.634   7.529   6.451  0.00  0.00    +0.064 A 
ATOM      9  C   UNL     1      -1.630   7.707   7.391  0.00  0.00    +0.167 A 
ATOM     10  C   UNL     1      -2.849   7.042   7.251  0.00  0.00    +0.168 A 
ATOM     11  C   UNL     1      -3.063   6.206   6.166  0.00  0.00    +0.070 A 
ATOM     12  C   UNL     1      -2.074   6.028   5.220  0.00  0.00    +0.057 A 
ATOM     13 CL   UNL     1      -2.348   4.980   3.863  0.00  0.00    -0.083 Cl
ATOM     14  O   UNL     1      -3.651   7.379   8.302  0.00  0.00    -0.453 OA
ATOM     15  C   UNL     1      -3.069   8.569   8.866  0.00  0.00    +0.466 C 
ATOM     16  O   UNL     1      -1.673   8.460   8.530  0.00  0.00    -0.453 OA
ENDBRANCH   5   7
BRANCH   3  17
ATOM     17  C   UNL     1       1.611   5.104   1.318  0.00  0.00    -0.018 C 
BRANCH  17  23
ATOM     18  C   UNL     1       1.769   7.295   0.299  0.00  0.00    -0.078 C 
ATOM     19  C   UNL     1       1.222   8.174  -0.828  0.00  0.00    -0.019 C 
ATOM     20  C   UNL     1       1.611   7.566  -2.178  0.00  0.00    -0.003 C 
ATOM     21  C   UNL     1       1.066   6.138  -2.261  0.00  0.00    -0.015 C 
ATOM     22  C   UNL     1       1.617   5.317  -1.093  0.00  0.00    -0.066 C 
ATOM     23  N   UNL     1       1.188   5.941   0.176  0.00  0.00    +0.385 N 
ATOM     24  H   UNL     1       0.164   6.017   0.180  0.00  0.00    -0.081 HD
BRANCH  22  25
ATOM     25  C   UNL     1       1.059   3.894  -1.162  0.00  0.00    +0.008 C 
BRANCH  25  26
ATOM     26  C   UNL     1       1.565   3.208  -2.432  0.00  0.00    +0.142 C 
BRANCH  26  27
ATOM     27  N   UNL     1       1.132   1.808  -2.436  0.00  0.00    -0.272 N 
ATOM     28  C   UNL     1       0.433   1.197  -3.415  0.00  0.00    +0.108 A 
ATOM     29  C   UNL     1       0.234  -0.088  -3.039  0.00  0.00    +0.041 A 
ATOM     30  C   UNL     1       0.833  -0.267  -1.788  0.00  0.00    +0.134 A 
ATOM     31  N   UNL     1       1.371   0.869  -1.425  0.00  0.00    -0.180 NA
ENDBRANCH  26  27
ENDBRANCH  25  26
ENDBRANCH  22  25
ENDBRANCH  17  23
ENDBRANCH   3  17
TORSDOF 6
