REMARK  Name = ZINC25576168
REMARK  6 active torsions:
REMARK  status: ('A' for Active; 'I' for Inactive)
REMARK    1  A    between atoms: C_1  and  C_2
REMARK    2  A    between atoms: N_5  and  C_7
REMARK    3  A    between atoms: C_15  and  N_30
REMARK    4  A    between atoms: C_16  and  C_28
REMARK    5  A    between atoms: C_17  and  C_19
REMARK    6  A    between atoms: C_24  and  N_25
REMARK                            x       y       z     vdW  Elec       q    Type
REMARK                         _______ _______ _______ _____ _____    ______ ____
ROOT
ATOM      1  C   UNL     1      -4.373   6.268   1.488  0.00  0.00    +0.068 C 
ATOM      2  C   UNL     1      -3.790   5.054   0.811  0.00  0.00    +0.068 A 
ATOM      3  C   UNL     1      -4.435   4.255  -0.123  0.00  0.00    +0.050 A 
ATOM      4  C   UNL     1      -3.574   3.260  -0.496  0.00  0.00    +0.230 A 
ATOM      5  N   UNL     1      -2.425   3.438   0.191  0.00  0.00    -0.200 N 
ATOM      6  N   UNL     1      -2.587   4.567   1.009  0.00  0.00    -0.168 NA
ATOM      7  O   UNL     1      -3.904   2.308  -1.404  0.00  0.00    -0.423 OA
ATOM      8  C   UNL     1      -5.011   2.511  -2.147  0.00  0.00    +0.200 C 
ATOM      9  C   UNL     1      -5.940   3.453  -1.872  0.00  0.00    +0.098 C 
ATOM     10  C   UNL     1      -5.827   4.378  -0.686  0.00  0.00    +0.104 C 
ENDROOT
BRANCH   5  11
ATOM     11  C   UNL     1      -1.279   2.636   0.107  0.00  0.00    +0.069 A 
ATOM     12  C   UNL     1      -1.400   1.268  -0.096  0.00  0.00    +0.029 A 
ATOM     13  C   UNL     1      -0.269   0.479  -0.174  0.00  0.00    +0.017 A 
ATOM     14  C   UNL     1       0.985   1.052  -0.060  0.00  0.00    +0.018 A 
ATOM     15  C   UNL     1       1.109   2.416   0.137  0.00  0.00    +0.017 A 
ATOM     16  C   UNL     1      -0.019   3.209   0.221  0.00  0.00    +0.029 A 
ATOM     17 BR   UNL     1       2.531  -0.030  -0.174  0.00  0.00    -0.050 Br
ENDBRANCH   5  11
BRANCH  10  18
ATOM     18  C   UNL     1      -6.836   3.987   0.362  0.00  0.00    -0.004 A 
ATOM     19  C   UNL     1      -6.715   2.776   1.020  0.00  0.00    +0.007 A 
ATOM     20  C   UNL     1      -7.640   2.417   1.982  0.00  0.00    +0.000 A 
ATOM     21  C   UNL     1      -8.686   3.268   2.287  0.00  0.00    +0.002 A 
ATOM     22  C   UNL     1      -8.807   4.478   1.630  0.00  0.00    +0.033 A 
ATOM     23  C   UNL     1      -7.879   4.840   0.671  0.00  0.00    +0.130 A 
BRANCH  23  24
ATOM     24  N   UNL     1      -8.005   6.138  -0.029  0.00  0.00    +0.057 N 
ATOM     25  O   UNL     1      -8.343   7.132   0.589  0.00  0.00    -0.126 OA
ATOM     26  O   UNL     1      -7.770   6.212  -1.222  0.00  0.00    -0.126 OA
ENDBRANCH  23  24
ENDBRANCH  10  18
BRANCH   8  27
ATOM     27  N   UNL     1      -5.205   1.714  -3.248  0.00  0.00    -0.328 N 
ATOM     28  H   UNL     1      -6.098   1.852  -3.876  0.00  0.00    +0.145 HD
ATOM     29  H   UNL     1      -4.469   0.936  -3.501  0.00  0.00    +0.145 HD
ENDBRANCH   8  27
BRANCH   9  30
ATOM     30  C   UNL     1      -7.073   3.578  -2.738  0.00  0.00    +0.101 C 
ATOM     31  N   UNL     1      -7.972   3.676  -3.425  0.00  0.00    -0.191 NA
ENDBRANCH   9  30
TORSDOF 5
