REMARK  Name = ZINC03365178
REMARK  8 active torsions:
REMARK  status: ('A' for Active; 'I' for Inactive)
REMARK    1  A    between atoms: C_1  and  C_2
REMARK    2  A    between atoms: N_5  and  N_29
REMARK    3  A    between atoms: C_6  and  S_9
REMARK    4  A    between atoms: S_9  and  C_10
REMARK    5  A    between atoms: C_10  and  C_11
REMARK    6  A    between atoms: C_11  and  C_13
REMARK    7  A    between atoms: N_20  and  C_28
REMARK    8  A    between atoms: C_21  and  C_22
REMARK                            x       y       z     vdW  Elec       q    Type
REMARK                         _______ _______ _______ _____ _____    ______ ____
ROOT
ATOM      1  C   UNL     1      -2.337   2.235   2.590  0.00  0.00    +0.051 A 
ATOM      2  C   UNL     1      -1.060   2.253   3.326  0.00  0.00    +0.011 A 
ATOM      3  C   UNL     1      -0.706   2.590   4.631  0.00  0.00    +0.011 A 
ATOM      4  C   UNL     1       0.611   2.499   5.026  0.00  0.00    +0.001 A 
ATOM      5  C   UNL     1       1.582   2.074   4.131  0.00  0.00    +0.002 A 
ATOM      6  C   UNL     1       1.246   1.738   2.837  0.00  0.00    +0.026 A 
ATOM      7  C   UNL     1      -0.079   1.823   2.419  0.00  0.00    +0.050 A 
ATOM      8  N   UNL     1      -0.698   1.558   1.213  0.00  0.00    -0.342 N 
ATOM      9  C   UNL     1      -2.035   1.804   1.300  0.00  0.00    +0.060 A 
ATOM     10  C   UNL     1      -0.013   1.086   0.008  0.00  0.00    +0.149 C 
ENDROOT
BRANCH   9  11
ATOM     11  C   UNL     1      -3.009   1.635   0.204  0.00  0.00    -0.001 A 
ATOM     12  C   UNL     1      -4.230   1.000   0.441  0.00  0.00    +0.010 A 
ATOM     13  C   UNL     1      -5.138   0.852  -0.587  0.00  0.00    +0.001 A 
ATOM     14  C   UNL     1      -4.835   1.319  -1.854  0.00  0.00    +0.000 A 
ATOM     15  C   UNL     1      -3.625   1.944  -2.098  0.00  0.00    +0.001 A 
ATOM     16  C   UNL     1      -2.711   2.105  -1.078  0.00  0.00    +0.010 A 
ENDBRANCH   9  11
BRANCH   1  17
ATOM     17  C   UNL     1      -3.610   2.589   3.090  0.00  0.00    +0.176 C 
ATOM     18  O   UNL     1      -4.585   2.527   2.368  0.00  0.00    -0.291 OA
BRANCH  17  19
ATOM     19  C   UNL     1      -3.759   3.043   4.519  0.00  0.00    +0.157 C 
BRANCH  19  20
ATOM     20  S   UNL     1      -5.497   3.422   4.854  0.00  0.00    -0.076 S 
BRANCH  20  26
ATOM     21  C   UNL     1      -4.921   5.042  10.538  0.00  0.00    +0.073 C 
ATOM     22  C   UNL     1      -5.106   4.637   9.099  0.00  0.00    +0.126 A 
ATOM     23  C   UNL     1      -6.389   4.665   8.511  0.00  0.00    +0.293 A 
ATOM     24  O   UNL     1      -7.365   5.014   9.153  0.00  0.00    -0.264 OA
ATOM     25  N   UNL     1      -6.506   4.294   7.215  0.00  0.00    -0.206 N 
ATOM     26  C   UNL     1      -5.383   3.912   6.543  0.00  0.00    +0.210 A 
ATOM     27  N   UNL     1      -4.209   3.902   7.152  0.00  0.00    -0.122 NA
ATOM     28  N   UNL     1      -4.075   4.256   8.380  0.00  0.00    -0.146 NA
BRANCH  25  29
ATOM     29  N   UNL     1      -7.722   4.301   6.594  0.00  0.00    -0.293 N 
ATOM     30  H   UNL     1      -8.448   4.606   7.224  0.00  0.00    +0.163 HD
ATOM     31  H   UNL     1      -7.700   4.872   5.762  0.00  0.00    +0.163 HD
ENDBRANCH  25  29
ENDBRANCH  20  26
ENDBRANCH  19  20
ENDBRANCH  17  19
ENDBRANCH   1  17
TORSDOF 6
