REMARK  Name = ZINC59224435
REMARK  6 active torsions:
REMARK  status: ('A' for Active; 'I' for Inactive)
REMARK    1  A    between atoms: C_1  and  C_2
REMARK    2  A    between atoms: C_7  and  N_8
REMARK    3  A    between atoms: C_14  and  C_15
REMARK    4  A    between atoms: C_18  and  S_24
REMARK    5  A    between atoms: C_19  and  N_21
REMARK    6  A    between atoms: S_24  and  C_25
REMARK                            x       y       z     vdW  Elec       q    Type
REMARK                         _______ _______ _______ _____ _____    ______ ____
ROOT
ATOM      1  N   UNL     1      -0.574  -0.101   2.339  0.00  0.00    -0.225 NA
ATOM      2  C   UNL     1      -0.509  -0.761   3.484  0.00  0.00    +0.166 C 
ATOM      3  N   UNL     1      -0.438  -2.117   3.658  0.00  0.00    -0.260 N 
ATOM      4  C   UNL     1      -0.379  -2.579   4.902  0.00  0.00    +0.256 C 
ATOM      5  O   UNL     1      -0.313  -3.764   5.165  0.00  0.00    -0.269 OA
ATOM      6  C   UNL     1      -0.400  -1.522   5.940  0.00  0.00    +0.078 C 
ATOM      7  C   UNL     1      -0.352  -1.663   7.336  0.00  0.00    +0.028 C 
ATOM      8  S   UNL     1      -0.489  -0.114   5.030  0.00  0.00    -0.049 S 
ATOM      9  H   UNL     1      -0.431  -2.720   2.899  0.00  0.00    +0.157 HD
ENDROOT
BRANCH   1  16
ATOM     10  C   UNL     1       1.240   0.645   0.275  0.00  0.00    +0.046 C 
ATOM     11  C   UNL     1       0.222  -0.456   0.116  0.00  0.00    -0.025 A 
ATOM     12  C   UNL     1       0.143  -1.151  -1.057  0.00  0.00    +0.007 A 
ATOM     13  C   UNL     1      -0.793  -2.165  -1.207  0.00  0.00    +0.020 A 
ATOM     14  C   UNL     1      -1.659  -2.485  -0.169  0.00  0.00    +0.043 A 
ATOM     15  C   UNL     1      -1.598  -1.804   1.014  0.00  0.00    +0.048 A 
ATOM     16  C   UNL     1      -0.647  -0.775   1.179  0.00  0.00    +0.071 A 
ATOM     17 CL   UNL     1      -2.824  -3.756  -0.375  0.00  0.00    -0.083 Cl
ENDBRANCH   1  16
BRANCH   7  18
ATOM     18  C   UNL     1      -0.542  -0.545   8.161  0.00  0.00    -0.022 A 
ATOM     19  C   UNL     1      -1.208   0.602   7.662  0.00  0.00    +0.009 A 
ATOM     20  C   UNL     1      -1.388   1.681   8.466  0.00  0.00    +0.018 A 
ATOM     21  C   UNL     1      -0.915   1.663   9.788  0.00  0.00    +0.045 A 
ATOM     22  C   UNL     1      -0.254   0.530  10.288  0.00  0.00    +0.140 A 
ATOM     23  C   UNL     1      -0.073  -0.559   9.497  0.00  0.00    +0.041 A 
BRANCH  22  24
ATOM     24  N   UNL     1       0.242   0.520  11.682  0.00  0.00    +0.058 N 
ATOM     25  O   UNL     1       0.862  -0.543  12.153  0.00  0.00    -0.126 OA
ATOM     26  O   UNL     1       0.062   1.573  12.453  0.00  0.00    -0.126 OA
ENDBRANCH  22  24
BRANCH  21  27
ATOM     27  S   UNL     1      -1.151   3.069  10.823  0.00  0.00    -0.061 S 
BRANCH  27  28
ATOM     28  C   UNL     1       0.429   3.846  10.854  0.00  0.00    +0.130 C 
ATOM     29  N   UNL     1       1.488   3.508  10.175  0.00  0.00    -0.269 NA
ATOM     30  C   UNL     1       2.739   4.230  10.320  0.00  0.00    +0.154 C 
ATOM     31  C   UNL     1       2.508   5.625  10.963  0.00  0.00    +0.099 C 
ATOM     32  S   UNL     1       0.916   5.268  11.819  0.00  0.00    -0.097 S 
ENDBRANCH  27  28
ENDBRANCH  21  27
ENDBRANCH   7  18
TORSDOF 5
