REMARK  Name = ZINC06410079
REMARK  7 active torsions:
REMARK  status: ('A' for Active; 'I' for Inactive)
REMARK    1  A    between atoms: C_1  and  C_2
REMARK    2  A    between atoms: C_7  and  C_14
REMARK    3  A    between atoms: C_14  and  C_16
REMARK    4  A    between atoms: C_14  and  N_67
REMARK    5  A    between atoms: N_20  and  C_21
REMARK    6  A    between atoms: C_21  and  C_22
REMARK    7  A    between atoms: N_30  and  C_33
REMARK                            x       y       z     vdW  Elec       q    Type
REMARK                         _______ _______ _______ _____ _____    ______ ____
ROOT
ATOM      1  C   UNL     1       1.258  -2.141  -0.022  0.00  0.00    +0.039 C 
ENDROOT
BRANCH   1   8
ATOM      2  C   UNL     1      -0.013   5.733   0.032  0.00  0.00    +0.044 C 
ATOM      3  C   UNL     1      -0.006   4.226   0.025  0.00  0.00    -0.048 A 
ATOM      4  C   UNL     1      -1.209   3.533   0.033  0.00  0.00    +0.004 A 
ATOM      5  C   UNL     1      -1.224   2.167   0.031  0.00  0.00    +0.010 A 
ATOM      6  C   UNL     1      -0.018   1.460   0.010  0.00  0.00    -0.001 A 
ATOM      7  C   UNL     1       0.002  -0.004   0.002  0.00  0.00    +0.017 A 
ATOM      8  C   UNL     1       1.202  -0.635  -0.013  0.00  0.00    +0.011 A 
ATOM      9  C   UNL     1       2.399   0.113  -0.020  0.00  0.00    +0.251 A 
ATOM     10  O   UNL     1       3.467  -0.475  -0.034  0.00  0.00    -0.268 OA
ATOM     11  N   UNL     1       2.391   1.457  -0.013  0.00  0.00    -0.322 N 
ATOM     12  H   UNL     1       3.232   1.940  -0.018  0.00  0.00    +0.169 HD
ATOM     13  C   UNL     1       1.204   2.159   0.002  0.00  0.00    +0.049 A 
ATOM     14  C   UNL     1       1.195   3.550   0.010  0.00  0.00    +0.029 A 
ENDBRANCH   1   8
BRANCH   1  20
ATOM     15  C   UNL     1       1.524  -2.063  -2.428  0.00  0.00    -0.058 C 
ATOM     16  C   UNL     1       2.430  -2.491  -3.584  0.00  0.00    +0.086 C 
ATOM     17  N   UNL     1       2.507  -3.958  -3.625  0.00  0.00    -0.331 N 
ATOM     18  C   UNL     1       3.042  -4.490  -2.364  0.00  0.00    +0.086 C 
ATOM     19  C   UNL     1       2.136  -4.062  -1.208  0.00  0.00    -0.058 C 
ATOM     20  N   UNL     1       2.085  -2.585  -1.164  0.00  0.00    +0.391 N 
ATOM     21  H   UNL     1       3.038  -2.222  -1.046  0.00  0.00    -0.080 HD
BRANCH  17  22
ATOM     22  C   UNL     1       3.270  -4.390  -4.715  0.00  0.00    +0.065 A 
ATOM     23  C   UNL     1       3.400  -5.746  -4.980  0.00  0.00    +0.026 A 
ATOM     24  C   UNL     1       4.154  -6.170  -6.057  0.00  0.00    +0.002 A 
ATOM     25  C   UNL     1       4.780  -5.245  -6.872  0.00  0.00    +0.003 A 
ATOM     26  C   UNL     1       4.653  -3.892  -6.613  0.00  0.00    +0.040 A 
ATOM     27  C   UNL     1       3.896  -3.461  -5.540  0.00  0.00    +0.144 A 
ATOM     28  F   UNL     1       3.767  -2.139  -5.290  0.00  0.00    -0.204 F 
ENDBRANCH  17  22
ENDBRANCH   1  20
BRANCH   1  29
ATOM     29  C   UNL     1       1.888  -2.628   1.257  0.00  0.00    +0.143 A 
ATOM     30  N   UNL     1       3.161  -2.587   1.567  0.00  0.00    -0.115 NA
ATOM     31  N   UNL     1       3.301  -3.097   2.743  0.00  0.00    -0.023 NA
ATOM     32  N   UNL     1       2.151  -3.462   3.190  0.00  0.00    -0.044 NA
ATOM     33  N   UNL     1       1.253  -3.185   2.305  0.00  0.00    -0.228 N 
BRANCH  33  34
ATOM     34  C   UNL     1      -0.186  -3.433   2.419  0.00  0.00    +0.178 C 
BRANCH  34  35
ATOM     35  C   UNL     1      -0.508  -4.826   1.873  0.00  0.00    +0.140 C 
ATOM     36  C   UNL     1      -2.019  -5.130   2.033  0.00  0.00    +0.035 C 
ATOM     37  C   UNL     1      -2.228  -6.182   0.910  0.00  0.00    +0.031 C 
ATOM     38  C   UNL     1      -1.248  -5.697  -0.180  0.00  0.00    +0.160 C 
ATOM     39  O   UNL     1      -0.264  -4.876   0.458  0.00  0.00    -0.375 OA
ENDBRANCH  34  35
ENDBRANCH  33  34
ENDBRANCH   1  29
TORSDOF 6
