REMARK  Name = ZINC01228076
REMARK  12 active torsions:
REMARK  status: ('A' for Active; 'I' for Inactive)
REMARK    1  A    between atoms: C_1  and  C_2
REMARK    2  A    between atoms: C_4  and  C_28
REMARK    3  A    between atoms: C_7  and  O_8
REMARK    4  A    between atoms: O_8  and  C_9
REMARK    5  A    between atoms: C_9  and  C_10
REMARK    6  A    between atoms: N_12  and  N_13
REMARK    7  A    between atoms: C_14  and  C_15
REMARK    8  A    between atoms: C_14  and  C_16
REMARK    9  A    between atoms: C_16  and  C_17
REMARK   10  A    between atoms: C_17  and  O_27
REMARK   11  A    between atoms: C_28  and  C_29
REMARK   12  A    between atoms: C_28  and  C_30
REMARK                            x       y       z     vdW  Elec       q    Type
REMARK                         _______ _______ _______ _____ _____    ______ ____
ROOT
ATOM      1  N   UNL     1       0.711  -1.978  -1.544  0.00  0.00    -0.189 NA
ATOM      2  C   UNL     1       1.269  -2.851  -2.295  0.00  0.00    +0.037 C 
ATOM      3  C   UNL     1       2.120  -2.412  -3.458  0.00  0.00    +0.062 C 
ENDROOT
BRANCH   1   6
ATOM      4  C   UNL     1       0.303   0.307  -1.015  0.00  0.00    +0.270 C 
ATOM      5  O   UNL     1      -0.382  -0.046  -0.078  0.00  0.00    -0.270 OA
ATOM      6  N   UNL     1       0.891  -0.613  -1.805  0.00  0.00    -0.204 N 
ATOM      7  H   UNL     1       1.439  -0.330  -2.554  0.00  0.00    +0.177 HD
BRANCH   4   8
ATOM      8  C   UNL     1       0.496   1.775  -1.295  0.00  0.00    +0.326 C 
BRANCH   8   9
ATOM      9  O   UNL     1      -0.221   2.543  -0.327  0.00  0.00    -0.482 OA
BRANCH   9  16
ATOM     10  C   UNL     1      -1.633   4.081   1.577  0.00  0.00    +0.047 C 
ATOM     11  C   UNL     1      -0.823   4.703   0.469  0.00  0.00    -0.009 A 
ATOM     12  C   UNL     1      -0.750   6.078   0.354  0.00  0.00    +0.010 A 
ATOM     13  C   UNL     1      -0.008   6.650  -0.662  0.00  0.00    -0.044 A 
ATOM     14  C   UNL     1       0.663   5.847  -1.567  0.00  0.00    +0.007 A 
ATOM     15  C   UNL     1       0.598   4.472  -1.453  0.00  0.00    +0.046 A 
ATOM     16  C   UNL     1      -0.151   3.896  -0.437  0.00  0.00    +0.124 A 
BRANCH  13  17
ATOM     17  C   UNL     1       0.069   8.150  -0.785  0.00  0.00    +0.013 C 
ATOM     18  C   UNL     1       1.528   8.596  -0.666  0.00  0.00    +0.012 C 
ATOM     19  C   UNL     1      -0.486   8.579  -2.144  0.00  0.00    +0.012 C 
ENDBRANCH  13  17
ENDBRANCH   9  16
ENDBRANCH   8   9
ENDBRANCH   4   8
ENDBRANCH   1   6
BRANCH   2  20
ATOM     20  C   UNL     1       1.076  -4.319  -2.015  0.00  0.00    +0.101 C 
BRANCH  20  21
ATOM     21  C   UNL     1      -0.145  -4.829  -2.784  0.00  0.00    +0.173 C 
ATOM     22  C   UNL     1      -0.414  -6.278  -2.450  0.00  0.00    +0.014 A 
ATOM     23  C   UNL     1       0.324  -7.429  -2.612  0.00  0.00    +0.009 A 
ATOM     24  C   UNL     1      -0.194  -8.645  -2.202  0.00  0.00    +0.000 A 
ATOM     25  C   UNL     1      -1.452  -8.698  -1.631  0.00  0.00    +0.002 A 
ATOM     26  C   UNL     1      -2.194  -7.547  -1.468  0.00  0.00    +0.024 A 
ATOM     27  C   UNL     1      -1.679  -6.319  -1.878  0.00  0.00    +0.040 A 
ATOM     28  N   UNL     1      -2.225  -5.036  -1.822  0.00  0.00    -0.282 N 
ATOM     29  C   UNL     1      -1.396  -4.108  -2.330  0.00  0.00    +0.254 C 
ATOM     30  O   UNL     1      -1.611  -2.917  -2.409  0.00  0.00    -0.272 OA
ATOM     31  H   UNL     1      -3.102  -4.837  -1.459  0.00  0.00    +0.155 HD
BRANCH  21  32
ATOM     32  O   UNL     1       0.046  -4.663  -4.190  0.00  0.00    -0.374 OA
ATOM     33  H   UNL     1       0.106  -3.740  -4.473  0.00  0.00    +0.211 HD
ENDBRANCH  21  32
ENDBRANCH  20  21
ENDBRANCH   2  20
TORSDOF 8
