REMARK  Name = ZINC06135935
REMARK  12 active torsions:
REMARK  status: ('A' for Active; 'I' for Inactive)
REMARK    1  A    between atoms: C_1  and  N_2
REMARK    2  A    between atoms: N_2  and  C_3
REMARK    3  A    between atoms: N_2  and  C_4
REMARK    4  A    between atoms: C_7  and  C_10
REMARK    5  A    between atoms: C_10  and  C_12
REMARK    6  A    between atoms: C_10  and  N_21
REMARK    7  A    between atoms: N_14  and  C_15
REMARK    8  A    between atoms: N_21  and  C_22
REMARK    9  A    between atoms: C_22  and  C_23
REMARK   10  A    between atoms: C_28  and  C_30
REMARK   11  A    between atoms: C_31  and  N_38
REMARK   12  A    between atoms: C_32  and  C_35
REMARK                            x       y       z     vdW  Elec       q    Type
REMARK                         _______ _______ _______ _____ _____    ______ ____
ROOT
ATOM      1  N   UNL     1      -0.916  -4.055  -5.599  0.00  0.00    -0.274 N 
ATOM      2  C   UNL     1      -2.256  -4.189  -5.634  0.00  0.00    +0.258 C 
ATOM      3  O   UNL     1      -2.904  -4.098  -4.608  0.00  0.00    -0.269 OA
ENDROOT
BRANCH   2   4
ATOM      4  C   UNL     1      -2.933  -4.445  -6.907  0.00  0.00    +0.115 A 
ATOM      5  C   UNL     1      -4.289  -4.662  -7.159  0.00  0.00    +0.076 A 
ATOM      6  C   UNL     1      -4.575  -4.874  -8.507  0.00  0.00    +0.155 A 
ATOM      7  N   UNL     1      -3.598  -4.853  -9.388  0.00  0.00    -0.203 NA
ATOM      8  S   UNL     1      -2.248  -4.554  -8.548  0.00  0.00    +0.019 S 
BRANCH   6   9
ATOM      9  C   UNL     1      -5.963  -5.119  -8.941  0.00  0.00    +0.262 C 
ATOM     10  O   UNL     1      -6.871  -5.062  -8.135  0.00  0.00    -0.269 OA
ATOM     11  N   UNL     1      -6.223  -5.405 -10.232  0.00  0.00    -0.324 N 
ATOM     12  H   UNL     1      -5.499  -5.450 -10.875  0.00  0.00    +0.145 HD
ATOM     13  H   UNL     1      -7.136  -5.567 -10.518  0.00  0.00    +0.145 HD
ENDBRANCH   6   9
BRANCH   5  14
ATOM     14  N   UNL     1      -5.258  -4.667  -6.165  0.00  0.00    -0.355 N 
ATOM     15  H   UNL     1      -5.037  -4.358  -5.272  0.00  0.00    +0.142 HD
ATOM     16  H   UNL     1      -6.154  -4.979  -6.363  0.00  0.00    +0.142 HD
ENDBRANCH   5  14
ENDBRANCH   2   4
BRANCH   1  17
ATOM     17  C   UNL     1      -0.228  -3.902  -4.314  0.00  0.00    +0.193 C 
BRANCH  17  21
ATOM     18  C   UNL     1      -0.468   0.173  -3.047  0.00  0.00    +0.029 A 
ATOM     19  C   UNL     1      -0.748  -0.852  -2.153  0.00  0.00    +0.023 A 
ATOM     20  C   UNL     1      -0.670  -2.167  -2.565  0.00  0.00    +0.008 A 
ATOM     21  C   UNL     1      -0.313  -2.465  -3.868  0.00  0.00    -0.018 A 
ATOM     22  C   UNL     1      -0.034  -1.447  -4.761  0.00  0.00    +0.008 A 
ATOM     23  C   UNL     1      -0.115  -0.129  -4.357  0.00  0.00    +0.023 A 
BRANCH  18  25
ATOM     24  C   UNL     1      -0.257   2.584  -3.580  0.00  0.00    +0.129 C 
ATOM     25  N   UNL     1      -0.546   1.505  -2.633  0.00  0.00    -0.336 N 
ATOM     26  C   UNL     1      -0.919   1.822  -1.252  0.00  0.00    +0.129 C 
ENDBRANCH  18  25
ENDBRANCH  17  21
BRANCH  17  27
ATOM     27  C   UNL     1       1.218  -4.295  -4.469  0.00  0.00    +0.238 C 
ATOM     28  O   UNL     1       1.845  -3.933  -5.442  0.00  0.00    -0.273 OA
ATOM     29  N   UNL     1       1.816  -5.050  -3.525  0.00  0.00    -0.311 N 
ATOM     30  H   UNL     1       1.315  -5.340  -2.747  0.00  0.00    +0.149 HD
BRANCH  29  31
ATOM     31  C   UNL     1       3.222  -5.432  -3.675  0.00  0.00    +0.073 C 
ATOM     32  C   UNL     1       3.319  -6.693  -4.536  0.00  0.00    +0.022 C 
ATOM     33  C   UNL     1       4.787  -7.092  -4.693  0.00  0.00    +0.002 C 
ATOM     34  C   UNL     1       5.391  -7.369  -3.314  0.00  0.00    +0.000 C 
ATOM     35  C   UNL     1       5.294  -6.108  -2.453  0.00  0.00    +0.002 C 
ATOM     36  C   UNL     1       3.825  -5.708  -2.296  0.00  0.00    +0.022 C 
ENDBRANCH  29  31
ENDBRANCH  17  27
ENDBRANCH   1  17
BRANCH   1  37
ATOM     37  C   UNL     1      -0.146  -4.063  -6.845  0.00  0.00    +0.183 C 
BRANCH  37  38
ATOM     38  C   UNL     1       0.392  -5.449  -7.095  0.00  0.00    +0.122 A 
ATOM     39  C   UNL     1      -0.285  -6.466  -7.657  0.00  0.00    +0.046 A 
ATOM     40  C   UNL     1       0.596  -7.571  -7.696  0.00  0.00    +0.041 A 
ATOM     41  C   UNL     1       1.758  -7.163  -7.156  0.00  0.00    +0.195 A 
ATOM     42  O   UNL     1       1.631  -5.875  -6.799  0.00  0.00    -0.466 OA
ENDBRANCH  37  38
ENDBRANCH   1  37
TORSDOF 10
