REMARK  Name = ZINC64447353
REMARK  6 active torsions:
REMARK  status: ('A' for Active; 'I' for Inactive)
REMARK    1  A    between atoms: C_1  and  C_2
REMARK    2  A    between atoms: C_4  and  C_24
REMARK    3  A    between atoms: C_6  and  C_21
REMARK    4  A    between atoms: C_10  and  C_11
REMARK    5  A    between atoms: C_14  and  N_20
REMARK    6  A    between atoms: C_15  and  C_18
REMARK                            x       y       z     vdW  Elec       q    Type
REMARK                         _______ _______ _______ _____ _____    ______ ____
ROOT
ATOM      1  C   UNL     1       1.633   1.431  -0.724  0.00  0.00    +0.046 C 
ATOM      2  C   UNL     1       1.503  -0.069  -0.665  0.00  0.00    -0.020 A 
ATOM      3  C   UNL     1       0.623  -0.734  -1.532  0.00  0.00    +0.032 A 
ATOM      4  C   UNL     1      -0.231  -0.198  -2.529  0.00  0.00    +0.050 A 
ATOM      5  N   UNL     1      -0.983  -1.011  -3.238  0.00  0.00    -0.236 NA
ATOM      6  C   UNL     1      -0.977  -2.321  -3.057  0.00  0.00    +0.134 A 
ATOM      7  N   UNL     1      -0.207  -2.885  -2.147  0.00  0.00    -0.225 NA
ATOM      8  C   UNL     1       0.578  -2.146  -1.393  0.00  0.00    +0.113 A 
ATOM      9  S   UNL     1       1.739  -2.466  -0.091  0.00  0.00    -0.063 S 
ATOM     10  C   UNL     1       2.244  -0.783   0.227  0.00  0.00    +0.084 A 
ATOM     11  C   UNL     1      -0.275   1.288  -2.775  0.00  0.00    +0.066 C 
ENDROOT
BRANCH  10  12
ATOM     12  C   UNL     1       3.216  -0.291   1.209  0.00  0.00    +0.287 C 
ATOM     13  O   UNL     1       3.443   0.900   1.295  0.00  0.00    -0.265 OA
ATOM     14  N   UNL     1       3.859  -1.160   2.015  0.00  0.00    -0.180 N 
ATOM     15  C   UNL     1       4.777  -0.835   2.968  0.00  0.00    +0.141 A 
ATOM     16  C   UNL     1       5.184  -2.026   3.560  0.00  0.00    +0.111 A 
ATOM     17  C   UNL     1       4.474  -3.071   2.923  0.00  0.00    +0.155 A 
ATOM     18  N   UNL     1       3.693  -2.549   2.020  0.00  0.00    -0.169 NA
BRANCH  15  19
ATOM     19  N   UNL     1       5.218   0.432   3.284  0.00  0.00    -0.342 N 
ATOM     20  H   UNL     1       4.868   1.201   2.807  0.00  0.00    +0.144 HD
ATOM     21  H   UNL     1       5.879   0.555   3.984  0.00  0.00    +0.144 HD
ENDBRANCH  15  19
BRANCH  16  22
ATOM     22  C   UNL     1       6.142  -2.167   4.615  0.00  0.00    +0.104 C 
ATOM     23  N   UNL     1       6.902  -2.280   5.453  0.00  0.00    -0.191 NA
ENDBRANCH  16  22
ENDBRANCH  10  12
BRANCH   6  24
ATOM     24  C   UNL     1      -1.868  -3.187  -3.909  0.00  0.00    +0.057 C 
ATOM     25  C   UNL     1      -1.983  -4.666  -3.535  0.00  0.00    +0.012 C 
ATOM     26  C   UNL     1      -1.197  -4.251  -4.780  0.00  0.00    +0.012 C 
ENDBRANCH   6  24
TORSDOF 4
