REMARK  Name = ZINC35965014
REMARK  9 active torsions:
REMARK  status: ('A' for Active; 'I' for Inactive)
REMARK    1  A    between atoms: C_1  and  C_2
REMARK    2  A    between atoms: C_2  and  C_3
REMARK    3  A    between atoms: C_2  and  C_4
REMARK    4  A    between atoms: C_4  and  C_6
REMARK    5  A    between atoms: C_4  and  N_15
REMARK    6  A    between atoms: N_8  and  C_9
REMARK    7  A    between atoms: C_9  and  C_10
REMARK    8  A    between atoms: C_21  and  C_28
REMARK    9  A    between atoms: N_26  and  C_27
REMARK                            x       y       z     vdW  Elec       q    Type
REMARK                         _______ _______ _______ _____ _____    ______ ____
ROOT
ATOM      1  N   UNL     1      -2.419   0.264   0.831  0.00  0.00    -0.280 N 
ATOM      2  C   UNL     1      -3.549   1.113   0.427  0.00  0.00    +0.160 C 
ATOM      3  C   UNL     1      -4.190   1.551   1.724  0.00  0.00    +0.042 C 
ATOM      4  C   UNL     1      -3.467   0.988   2.714  0.00  0.00    +0.058 C 
ATOM      5  C   UNL     1      -2.416   0.217   2.175  0.00  0.00    +0.247 C 
ATOM      6  O   UNL     1      -1.609  -0.406   2.841  0.00  0.00    -0.270 OA
ATOM      7  C   UNL     1      -3.893   1.263   4.142  0.00  0.00    +0.142 C 
ATOM      8  N   UNL     1      -5.068   2.130   4.332  0.00  0.00    -0.288 N 
ATOM      9  C   UNL     1      -5.688   2.620   3.240  0.00  0.00    +0.307 C 
ATOM     10  O   UNL     1      -6.659   3.336   3.387  0.00  0.00    -0.252 OA
ATOM     11  N   UNL     1      -5.268   2.343   1.998  0.00  0.00    -0.260 N 
ATOM     12  C   UNL     1      -6.006   2.922   0.873  0.00  0.00    +0.139 C 
ATOM     13  H   UNL     1      -5.389   2.342   5.222  0.00  0.00    +0.151 HD
ENDROOT
BRANCH   7  14
ATOM     14  C   UNL     1      -2.729   1.896   4.859  0.00  0.00    -0.023 A 
ATOM     15  C   UNL     1      -2.468   3.244   4.699  0.00  0.00    +0.006 A 
ATOM     16  C   UNL     1      -1.401   3.825   5.357  0.00  0.00    +0.000 A 
ATOM     17  C   UNL     1      -0.594   3.058   6.176  0.00  0.00    +0.000 A 
ATOM     18  C   UNL     1      -0.855   1.710   6.338  0.00  0.00    +0.000 A 
ATOM     19  C   UNL     1      -1.925   1.130   5.683  0.00  0.00    +0.006 A 
ENDBRANCH   7  14
BRANCH   1  20
ATOM     20  C   UNL     1      -1.475  -0.411  -0.064  0.00  0.00    +0.165 C 
BRANCH  20  21
ATOM     21  C   UNL     1      -1.641  -1.903   0.065  0.00  0.00    +0.234 C 
ATOM     22  O   UNL     1      -2.188  -2.371   1.041  0.00  0.00    -0.274 OA
ATOM     23  N   UNL     1      -1.182  -2.719  -0.906  0.00  0.00    -0.307 N 
ATOM     24  H   UNL     1      -0.677  -2.352  -1.649  0.00  0.00    +0.149 HD
BRANCH  23  25
ATOM     25  C   UNL     1      -1.445  -4.158  -0.839  0.00  0.00    +0.178 C 
BRANCH  25  26
ATOM     26  C   UNL     1      -0.829  -4.838  -2.034  0.00  0.00    +0.122 A 
ATOM     27  C   UNL     1       0.417  -5.340  -2.098  0.00  0.00    +0.046 A 
ATOM     28  C   UNL     1       0.575  -5.881  -3.395  0.00  0.00    +0.041 A 
ATOM     29  C   UNL     1      -0.584  -5.677  -4.046  0.00  0.00    +0.195 A 
ATOM     30  O   UNL     1      -1.433  -5.049  -3.215  0.00  0.00    -0.466 OA
ENDBRANCH  25  26
ENDBRANCH  23  25
ENDBRANCH  20  21
BRANCH  20  32
ATOM     31  C   UNL     1       0.934  -0.640  -0.684  0.00  0.00    +0.009 C 
ATOM     32  C   UNL     1      -0.045  -0.022   0.316  0.00  0.00    +0.012 C 
ATOM     33  C   UNL     1       0.093   1.501   0.291  0.00  0.00    +0.009 C 
ENDBRANCH  20  32
ENDBRANCH   1  20
TORSDOF 6
