REMARK  Name = ZINC38965853
REMARK  9 active torsions:
REMARK  status: ('A' for Active; 'I' for Inactive)
REMARK    1  A    between atoms: C_1  and  C_2
REMARK    2  A    between atoms: C_2  and  O_3
REMARK    3  A    between atoms: O_3  and  C_4
REMARK    4  A    between atoms: C_4  and  C_5
REMARK    5  A    between atoms: C_5  and  C_6
REMARK    6  A    between atoms: C_6  and  N_7
REMARK    7  A    between atoms: N_7  and  C_8
REMARK    8  A    between atoms: N_11  and  S_12
REMARK    9  A    between atoms: S_12  and  C_15
REMARK                            x       y       z     vdW  Elec       q    Type
REMARK                         _______ _______ _______ _____ _____    ______ ____
ROOT
ATOM      1  C   UNL     1       2.357  -5.611  -4.064  0.00  0.00    +0.217 C 
ATOM      2  C   UNL     1       1.900  -5.968  -5.460  0.00  0.00    +0.167 C 
ATOM      3  N   UNL     1       0.712  -5.638  -5.870  0.00  0.00    -0.112 NA
ATOM      4  N   UNL     1       2.740  -6.632  -6.270  0.00  0.00    -0.338 N 
ATOM      5  C   UNL     1       3.949  -6.978  -5.878  0.00  0.00    +0.064 A 
ATOM      6  C   UNL     1       4.809  -7.680  -6.760  0.00  0.00    +0.028 A 
ATOM      7  C   UNL     1       6.050  -8.038  -6.362  0.00  0.00    +0.002 A 
ATOM      8  C   UNL     1       6.552  -7.745  -5.084  0.00  0.00    +0.002 A 
ATOM      9  C   UNL     1       5.815  -7.082  -4.166  0.00  0.00    +0.027 A 
ATOM     10  C   UNL     1       4.453  -6.656  -4.520  0.00  0.00    +0.060 A 
ATOM     11  N   UNL     1       3.714  -6.013  -3.661  0.00  0.00    -0.362 N 
ATOM     12  H   UNL     1       4.051  -5.805  -2.776  0.00  0.00    +0.162 HD
ATOM     13  H   UNL     1       2.450  -6.863  -7.166  0.00  0.00    +0.167 HD
ENDROOT
BRANCH   3  14
ATOM     14  S   UNL     1       0.224  -6.036  -7.402  0.00  0.00    +0.102 S 
ATOM     15  O   UNL     1       1.040  -5.289  -8.295  0.00  0.00    -0.146 OA
ATOM     16  O   UNL     1       0.145  -7.454  -7.447  0.00  0.00    -0.146 OA
BRANCH  14  17
ATOM     17  C   UNL     1      -1.420  -5.433  -7.598  0.00  0.00    +0.141 A 
ATOM     18  C   UNL     1      -1.679  -4.459  -8.502  0.00  0.00    +0.031 A 
ATOM     19  C   UNL     1      -2.968  -3.958  -8.685  0.00  0.00    +0.004 A 
ATOM     20  C   UNL     1      -4.016  -4.424  -7.966  0.00  0.00    +0.031 A 
ATOM     21  C   UNL     1      -3.820  -5.446  -6.999  0.00  0.00    +0.102 A 
ATOM     22  C   UNL     1      -2.473  -5.974  -6.812  0.00  0.00    +0.127 A 
ATOM     23  N   UNL     1      -2.408  -6.931  -5.885  0.00  0.00    -0.189 NA
ATOM     24  S   UNL     1      -3.912  -7.112  -5.343  0.00  0.00    +0.117 S 
ATOM     25  N   UNL     1      -4.723  -6.023  -6.205  0.00  0.00    -0.191 NA
ENDBRANCH  14  17
ENDBRANCH   3  14
BRANCH   1  26
ATOM     26  N   UNL     1       2.261  -4.152  -3.921  0.00  0.00    -0.291 NA
ATOM     27  H   UNL     1       1.813  -3.738  -4.725  0.00  0.00    +0.124 HD
BRANCH  26  28
ATOM     28  C   UNL     1       1.558  -3.789  -2.683  0.00  0.00    +0.085 C 
BRANCH  28  29
ATOM     29  C   UNL     1       1.478  -2.265  -2.569  0.00  0.00    +0.043 C 
BRANCH  29  30
ATOM     30  C   UNL     1       0.746  -1.888  -1.280  0.00  0.00    +0.161 C 
BRANCH  30  31
ATOM     31  O   UNL     1       0.671  -0.465  -1.174  0.00  0.00    -0.380 OA
BRANCH  31  33
ATOM     32  C   UNL     1      -0.019   1.526   0.010  0.00  0.00    +0.034 C 
ATOM     33  C   UNL     1       0.002  -0.004   0.002  0.00  0.00    +0.156 C 
ENDBRANCH  31  33
ENDBRANCH  30  31
ENDBRANCH  29  30
ENDBRANCH  28  29
ENDBRANCH  26  28
ENDBRANCH   1  26
TORSDOF 8
