REMARK  Name = ZINC38701973
REMARK  11 active torsions:
REMARK  status: ('A' for Active; 'I' for Inactive)
REMARK    1  A    between atoms: C_1  and  C_2
REMARK    2  A    between atoms: C_2  and  O_3
REMARK    3  A    between atoms: O_3  and  C_4
REMARK    4  A    between atoms: C_7  and  C_13
REMARK    5  A    between atoms: C_9  and  O_10
REMARK    6  A    between atoms: O_10  and  C_11
REMARK    7  A    between atoms: C_11  and  C_12
REMARK    8  A    between atoms: C_16  and  C_32
REMARK    9  A    between atoms: N_23  and  C_24
REMARK   10  A    between atoms: C_34  and  C_39
REMARK   11  A    between atoms: C_37  and  O_38
REMARK                            x       y       z     vdW  Elec       q    Type
REMARK                         _______ _______ _______ _____ _____    ______ ____
ROOT
ATOM      1  C   UNL     1      -1.848  -5.913  -0.076  0.00  0.00    +0.142 C 
ATOM      2  C   UNL     1      -1.819  -6.544  -1.442  0.00  0.00    +0.035 A 
ATOM      3  C   UNL     1      -2.386  -6.620  -2.718  0.00  0.00    +0.102 A 
ATOM      4  N   UNL     1      -1.700  -7.515  -3.402  0.00  0.00    -0.173 NA
ATOM      5  N   UNL     1      -0.757  -8.011  -2.684  0.00  0.00    -0.272 N 
ATOM      6  H   UNL     1      -0.127  -8.686  -2.981  0.00  0.00    +0.189 HD
ATOM      7  C   UNL     1      -0.772  -7.446  -1.440  0.00  0.00    +0.126 A 
ATOM      8  C   UNL     1      -0.131  -7.415  -0.121  0.00  0.00    +0.266 C 
ATOM      9  O   UNL     1       0.824  -8.095   0.203  0.00  0.00    -0.268 OA
ATOM     10  N   UNL     1      -0.749  -6.527   0.681  0.00  0.00    -0.280 N 
ENDROOT
BRANCH  10  11
ATOM     11  C   UNL     1      -0.389  -6.224   2.068  0.00  0.00    +0.100 C 
ATOM     12  C   UNL     1       1.067  -5.731   2.130  0.00  0.00    +0.047 C 
ATOM     13  C   UNL     1       1.556  -5.716   3.599  0.00  0.00    +0.168 C 
ATOM     14  S   UNL     1       0.545  -7.042   4.375  0.00  0.00    -0.029 S 
ATOM     15  O   UNL     1       1.391  -8.134   4.708  0.00  0.00    -0.174 OA
ATOM     16  O   UNL     1      -0.281  -6.466   5.378  0.00  0.00    -0.174 OA
ATOM     17  C   UNL     1      -0.501  -7.512   2.933  0.00  0.00    +0.188 C 
ENDBRANCH  10  11
BRANCH   3  18
ATOM     18  C   UNL     1      -3.546  -5.837  -3.212  0.00  0.00    +0.044 A 
ATOM     19  C   UNL     1      -4.681  -5.692  -2.417  0.00  0.00    +0.017 A 
ATOM     20  C   UNL     1      -5.758  -4.963  -2.880  0.00  0.00    -0.050 A 
ATOM     21  C   UNL     1      -5.715  -4.376  -4.133  0.00  0.00    +0.007 A 
ATOM     22  C   UNL     1      -4.594  -4.515  -4.930  0.00  0.00    +0.046 A 
ATOM     23  C   UNL     1      -3.504  -5.239  -4.474  0.00  0.00    +0.126 A 
ATOM     24  C   UNL     1      -6.984  -4.806  -2.019  0.00  0.00    +0.044 C 
BRANCH  23  25
ATOM     25  O   UNL     1      -2.399  -5.371  -5.254  0.00  0.00    -0.506 OA
ATOM     26  H   UNL     1      -2.453  -6.095  -5.893  0.00  0.00    +0.292 HD
ENDBRANCH  23  25
ENDBRANCH   3  18
BRANCH   1  30
ATOM     27  C   UNL     1      -1.234  -1.693  -0.393  0.00  0.00    +0.162 A 
ATOM     28  C   UNL     1      -0.187  -2.568  -0.634  0.00  0.00    +0.050 A 
ATOM     29  C   UNL     1      -0.389  -3.932  -0.530  0.00  0.00    +0.009 A 
ATOM     30  C   UNL     1      -1.634  -4.425  -0.187  0.00  0.00    -0.019 A 
ATOM     31  C   UNL     1      -2.682  -3.558   0.054  0.00  0.00    +0.055 A 
ATOM     32  C   UNL     1      -2.485  -2.189  -0.042  0.00  0.00    +0.162 A 
BRANCH  27  33
ATOM     33  O   UNL     1      -1.037  -0.351  -0.494  0.00  0.00    -0.489 OA
BRANCH  33  35
ATOM     34  C   UNL     1       0.301   1.615  -0.922  0.00  0.00    +0.048 C 
ATOM     35  C   UNL     1       0.274   0.087  -0.859  0.00  0.00    +0.226 C 
ENDBRANCH  33  35
ENDBRANCH  27  33
BRANCH  32  36
ATOM     36  O   UNL     1      -3.514  -1.334   0.200  0.00  0.00    -0.489 OA
BRANCH  36  37
ATOM     37  C   UNL     1      -4.771  -1.915   0.555  0.00  0.00    +0.226 C 
ATOM     38  C   UNL     1      -5.798  -0.805   0.788  0.00  0.00    +0.048 C 
ENDBRANCH  36  37
ENDBRANCH  32  36
ENDBRANCH   1  30
TORSDOF 8
