REMARK  Name = ZINC39857774
REMARK  7 active torsions:
REMARK  status: ('A' for Active; 'I' for Inactive)
REMARK    1  A    between atoms: C_1  and  C_2
REMARK    2  A    between atoms: C_2  and  O_3
REMARK    3  A    between atoms: O_3  and  C_4
REMARK    4  A    between atoms: C_9  and  N_10
REMARK    5  A    between atoms: C_14  and  C_15
REMARK    6  A    between atoms: C_18  and  C_20
REMARK    7  A    between atoms: C_23  and  N_26
REMARK                            x       y       z     vdW  Elec       q    Type
REMARK                         _______ _______ _______ _____ _____    ______ ____
ROOT
ATOM      1  N   UNL     1      -4.403  -2.150  -0.031  0.00  0.00    -0.193 N 
ATOM      2  C   UNL     1      -4.864  -1.611  -1.151  0.00  0.00    +0.265 C 
ATOM      3  O   UNL     1      -4.545  -2.030  -2.244  0.00  0.00    -0.269 OA
ATOM      4  C   UNL     1      -5.799  -0.460  -0.988  0.00  0.00    +0.083 C 
ATOM      5  C   UNL     1      -6.438   0.301  -1.978  0.00  0.00    +0.066 C 
ATOM      6  S   UNL     1      -5.891  -0.305   0.685  0.00  0.00    -0.025 S 
ATOM      7  C   UNL     1      -4.804  -1.638   1.150  0.00  0.00    +0.290 C 
ATOM      8  O   UNL     1      -4.496  -2.000   2.267  0.00  0.00    -0.262 OA
ENDROOT
BRANCH   1  14
ATOM      9  C   UNL     1      -2.143  -3.018  -0.108  0.00  0.00    +0.142 A 
ATOM     10  C   UNL     1      -1.274  -4.096  -0.144  0.00  0.00    +0.047 A 
ATOM     11  C   UNL     1      -1.771  -5.386  -0.152  0.00  0.00    +0.004 A 
ATOM     12  C   UNL     1      -3.137  -5.604  -0.124  0.00  0.00    +0.002 A 
ATOM     13  C   UNL     1      -4.010  -4.534  -0.088  0.00  0.00    +0.027 A 
ATOM     14  C   UNL     1      -3.518  -3.238  -0.074  0.00  0.00    +0.087 A 
BRANCH   9  15
ATOM     15  O   UNL     1      -1.655  -1.749  -0.100  0.00  0.00    -0.490 OA
BRANCH  15  17
ATOM     16  C   UNL     1       0.123  -0.113  -0.122  0.00  0.00    +0.048 C 
ATOM     17  C   UNL     1      -0.234  -1.600  -0.137  0.00  0.00    +0.226 C 
ENDBRANCH  15  17
ENDBRANCH   9  15
ENDBRANCH   1  14
BRANCH   5  18
ATOM     18  C   UNL     1      -6.075   0.153  -3.308  0.00  0.00    +0.130 A 
ATOM     19  C   UNL     1      -6.732   0.778  -4.464  0.00  0.00    +0.050 A 
ATOM     20  C   UNL     1      -6.050   0.360  -5.562  0.00  0.00    +0.050 A 
ATOM     21  C   UNL     1      -5.010  -0.490  -5.120  0.00  0.00    +0.136 A 
ATOM     22  O   UNL     1      -5.049  -0.588  -3.781  0.00  0.00    -0.455 OA
BRANCH  21  23
ATOM     23  C   UNL     1      -4.039  -1.156  -5.986  0.00  0.00    +0.017 A 
ATOM     24  C   UNL     1      -4.088  -0.971  -7.380  0.00  0.00    +0.014 A 
ATOM     25  C   UNL     1      -3.172  -1.600  -8.183  0.00  0.00    +0.033 A 
ATOM     26  C   UNL     1      -2.199  -2.417  -7.626  0.00  0.00    +0.126 A 
ATOM     27  C   UNL     1      -2.142  -2.607  -6.253  0.00  0.00    +0.033 A 
ATOM     28  C   UNL     1      -3.044  -1.983  -5.431  0.00  0.00    +0.014 A 
BRANCH  26  29
ATOM     29  N   UNL     1      -1.216  -3.092  -8.503  0.00  0.00    +0.056 N 
ATOM     30  O   UNL     1      -1.267  -2.915  -9.807  0.00  0.00    -0.126 OA
ATOM     31  O   UNL     1      -0.290  -3.868  -7.979  0.00  0.00    -0.126 OA
ENDBRANCH  26  29
ENDBRANCH  21  23
ENDBRANCH   5  18
TORSDOF 6
