REMARK  Name = ZINC19939353
REMARK  3 active torsions:
REMARK  status: ('A' for Active; 'I' for Inactive)
REMARK    1  A    between atoms: C_4  and  S_7
REMARK    2  A    between atoms: S_7  and  N_10
REMARK    3  A    between atoms: C_16  and  C_17
REMARK                            x       y       z     vdW  Elec       q    Type
REMARK                         _______ _______ _______ _____ _____    ______ ____
ROOT
ATOM      1  N   UNL     1       4.498  -0.889   1.519  0.00  0.00    -0.106 NA
ATOM      2  C   UNL     1       5.558  -1.595   1.801  0.00  0.00    +0.186 C 
ATOM      3  N   UNL     1       6.351  -2.333   0.945  0.00  0.00    -0.259 N 
ATOM      4  C   UNL     1       7.398  -2.997   1.404  0.00  0.00    +0.257 C 
ATOM      5  O   UNL     1       8.109  -3.653   0.664  0.00  0.00    -0.269 OA
ATOM      6  C   UNL     1       7.668  -2.908   2.848  0.00  0.00    +0.081 C 
ATOM      7  C   UNL     1       8.666  -3.482   3.577  0.00  0.00    +0.066 C 
ATOM      8  S   UNL     1       6.342  -1.838   3.386  0.00  0.00    -0.047 S 
ATOM      9  H   UNL     1       6.137  -2.365  -0.001  0.00  0.00    +0.157 HD
ENDROOT
BRANCH   7  10
ATOM     10  C   UNL     1       9.707  -4.182   2.924  0.00  0.00    +0.129 A 
ATOM     11  C   UNL     1      10.727  -4.880   3.537  0.00  0.00    +0.049 A 
ATOM     12  C   UNL     1      11.523  -5.410   2.509  0.00  0.00    +0.042 A 
ATOM     13  C   UNL     1      10.971  -5.025   1.338  0.00  0.00    +0.195 A 
ATOM     14  O   UNL     1       9.877  -4.291   1.590  0.00  0.00    -0.463 OA
ENDBRANCH   7  10
BRANCH   1  15
ATOM     15  S   UNL     1       3.947  -0.808  -0.041  0.00  0.00    +0.101 S 
ATOM     16  O   UNL     1       3.505  -2.114  -0.383  0.00  0.00    -0.146 OA
ATOM     17  O   UNL     1       4.941  -0.120  -0.788  0.00  0.00    -0.146 OA
BRANCH  15  21
ATOM     18  C   UNL     1       0.276   1.840  -0.031  0.00  0.00    +0.000 A 
ATOM     19  C   UNL     1       1.527   2.394  -0.226  0.00  0.00    +0.002 A 
ATOM     20  C   UNL     1       2.648   1.585  -0.229  0.00  0.00    +0.029 A 
ATOM     21  C   UNL     1       2.518   0.223  -0.036  0.00  0.00    +0.113 A 
ATOM     22  C   UNL     1       1.267  -0.331   0.160  0.00  0.00    +0.029 A 
ATOM     23  C   UNL     1       0.146   0.477   0.161  0.00  0.00    +0.002 A 
ENDBRANCH  15  21
ENDBRANCH   1  15
TORSDOF 3
