REMARK  Name = ZINC52306504
REMARK  7 active torsions:
REMARK  status: ('A' for Active; 'I' for Inactive)
REMARK    1  A    between atoms: C_1  and  C_2
REMARK    2  A    between atoms: C_9  and  S_17
REMARK    3  A    between atoms: C_11  and  C_13
REMARK    4  A    between atoms: C_13  and  C_14
REMARK    5  A    between atoms: C_13  and  C_15
REMARK    6  A    between atoms: C_13  and  C_16
REMARK    7  A    between atoms: S_17  and  N_20
REMARK                            x       y       z     vdW  Elec       q    Type
REMARK                         _______ _______ _______ _____ _____    ______ ____
ROOT
ATOM      1  C   UNL     1      -0.018   1.503   0.010  0.00  0.00    +0.067 C 
ATOM      2  C   UNL     1       0.002  -0.004   0.002  0.00  0.00    +0.061 A 
ATOM      3  C   UNL     1       0.006  -0.691  -1.203  0.00  0.00    +0.028 A 
ATOM      4  C   UNL     1       0.025  -2.077  -1.163  0.00  0.00    +0.052 A 
ATOM      5  C   UNL     1       0.039  -2.693   0.087  0.00  0.00    +0.178 A 
ATOM      6  N   UNL     1       0.034  -1.952   1.184  0.00  0.00    -0.129 NA
ATOM      7  N   UNL     1       0.022  -0.670   1.140  0.00  0.00    -0.153 NA
ATOM      8  N   UNL     1       0.058  -4.088   0.181  0.00  0.00    -0.193 N 
ATOM      9  C   UNL     1       0.531  -4.813   1.228  0.00  0.00    +0.198 A 
ATOM     10  C   UNL     1       0.368  -6.122   0.927  0.00  0.00    +0.074 A 
ATOM     11  C   UNL     1      -0.222  -6.203  -0.339  0.00  0.00    +0.071 A 
ATOM     12  N   UNL     1      -0.414  -4.988  -0.783  0.00  0.00    -0.168 NA
ENDROOT
BRANCH  11  13
ATOM     13  C   UNL     1      -0.583  -7.474  -1.064  0.00  0.00    +0.006 C 
ATOM     14  C   UNL     1      -1.838  -8.082  -0.435  0.00  0.00    +0.017 C 
ATOM     15  C   UNL     1      -0.850  -7.163  -2.538  0.00  0.00    +0.017 C 
ATOM     16  C   UNL     1       0.575  -8.469  -0.955  0.00  0.00    +0.017 C 
ENDBRANCH  11  13
BRANCH   9  17
ATOM     17  S   UNL     1       1.232  -4.166   2.709  0.00  0.00    +0.073 S 
ATOM     18  O   UNL     1       2.642  -4.175   2.529  0.00  0.00    -0.152 OA
ATOM     19  O   UNL     1       0.511  -2.981   3.016  0.00  0.00    -0.152 OA
BRANCH  17  20
ATOM     20  N   UNL     1       0.903  -5.247   3.920  0.00  0.00    -0.202 NA
ATOM     21  H   UNL     1       1.514  -5.338   4.668  0.00  0.00    +0.144 HD
ATOM     22  H   UNL     1       0.100  -5.789   3.881  0.00  0.00    +0.144 HD
ENDBRANCH  17  20
ENDBRANCH   9  17
TORSDOF 3
