REMARK  Name = ZINC18585089
REMARK  9 active torsions:
REMARK  status: ('A' for Active; 'I' for Inactive)
REMARK    1  A    between atoms: C_1  and  C_2
REMARK    2  A    between atoms: C_6  and  C_32
REMARK    3  A    between atoms: C_7  and  N_8
REMARK    4  A    between atoms: C_9  and  S_13
REMARK    5  A    between atoms: S_13  and  C_14
REMARK    6  A    between atoms: C_14  and  C_16
REMARK    7  A    between atoms: C_14  and  C_17
REMARK    8  A    between atoms: C_29  and  C_30
REMARK    9  A    between atoms: C_29  and  C_31
REMARK                            x       y       z     vdW  Elec       q    Type
REMARK                         _______ _______ _______ _____ _____    ______ ____
ROOT
ATOM      1  C   UNL     1       0.392   1.756  -0.312  0.00  0.00    +0.137 C 
ATOM      2  C   UNL     1       0.335   3.285  -0.319  0.00  0.00    +0.029 C 
ENDROOT
BRANCH   1   3
ATOM      3  C   UNL     1       0.994   1.282   0.985  0.00  0.00    +0.234 C 
ATOM      4  O   UNL     1       0.330   0.622   1.756  0.00  0.00    -0.274 OA
ATOM      5  N   UNL     1       2.270   1.591   1.289  0.00  0.00    -0.255 N 
ATOM      6  C   UNL     1       2.789   1.348   2.570  0.00  0.00    +0.059 A 
ATOM      7  C   UNL     1       1.977   1.359   3.687  0.00  0.00    +0.025 A 
ATOM      8  C   UNL     1       2.521   1.115   4.935  0.00  0.00    +0.002 A 
ATOM      9  C   UNL     1       3.873   0.856   5.066  0.00  0.00    +0.002 A 
ATOM     10  C   UNL     1       4.691   0.835   3.952  0.00  0.00    +0.025 A 
ATOM     11  C   UNL     1       4.155   1.077   2.697  0.00  0.00    +0.055 A 
ATOM     12  N   UNL     1       4.965   1.056   1.556  0.00  0.00    -0.282 N 
ATOM     13  C   UNL     1       4.521   1.555   0.388  0.00  0.00    +0.241 C 
ATOM     14  O   UNL     1       5.224   1.486  -0.599  0.00  0.00    -0.273 OA
ATOM     15  C   UNL     1       3.162   2.199   0.290  0.00  0.00    +0.113 C 
ATOM     16  C   UNL     1       2.589   1.975  -1.111  0.00  0.00    +0.042 C 
ATOM     17  C   UNL     1       3.286   3.700   0.560  0.00  0.00    +0.042 C 
ATOM     18  H   UNL     1       5.857   0.677   1.608  0.00  0.00    +0.155 HD
ENDBRANCH   1   3
BRANCH   1  19
ATOM     19  S   UNL     1      -1.282   1.089  -0.480  0.00  0.00    -0.072 S 
BRANCH  19  21
ATOM     20  N   UNL     1      -2.840   1.447  -2.768  0.00  0.00    -0.187 N 
ATOM     21  C   UNL     1      -1.677   1.657  -2.100  0.00  0.00    +0.215 A 
ATOM     22  N   UNL     1      -0.903   2.370  -2.890  0.00  0.00    -0.101 NA
ATOM     23  N   UNL     1      -1.495   2.611  -4.003  0.00  0.00    -0.022 NA
ATOM     24  N   UNL     1      -2.674   2.089  -4.008  0.00  0.00    -0.038 NA
BRANCH  20  31
ATOM     25  C   UNL     1      -2.514  -1.289  -2.052  0.00  0.00    +0.046 C 
ATOM     26  C   UNL     1      -3.849  -0.596  -1.959  0.00  0.00    -0.025 A 
ATOM     27  C   UNL     1      -4.957  -1.287  -1.511  0.00  0.00    +0.005 A 
ATOM     28  C   UNL     1      -6.184  -0.653  -1.432  0.00  0.00    +0.001 A 
ATOM     29  C   UNL     1      -6.303   0.675  -1.795  0.00  0.00    +0.005 A 
ATOM     30  C   UNL     1      -5.197   1.374  -2.238  0.00  0.00    -0.025 A 
ATOM     31  C   UNL     1      -3.964   0.740  -2.319  0.00  0.00    +0.076 A 
ATOM     32  C   UNL     1      -5.328   2.822  -2.634  0.00  0.00    +0.046 C 
ENDBRANCH  20  31
ENDBRANCH  19  21
ENDBRANCH   1  19
TORSDOF 4
