REMARK  Name = ZINC39273054
REMARK  11 active torsions:
REMARK  status: ('A' for Active; 'I' for Inactive)
REMARK    1  A    between atoms: C_1  and  C_2
REMARK    2  A    between atoms: C_2  and  C_3
REMARK    3  A    between atoms: C_3  and  C_5
REMARK    4  A    between atoms: C_3  and  S_21
REMARK    5  A    between atoms: N_7  and  C_8
REMARK    6  A    between atoms: C_10  and  C_19
REMARK    7  A    between atoms: S_21  and  C_22
REMARK    8  A    between atoms: C_26  and  C_37
REMARK    9  A    between atoms: C_27  and  C_29
REMARK   10  A    between atoms: C_33  and  O_35
REMARK   11  A    between atoms: O_35  and  C_36
REMARK                            x       y       z     vdW  Elec       q    Type
REMARK                         _______ _______ _______ _____ _____    ______ ____
ROOT
ATOM      1  S   UNL     1      -0.711  -0.455  -2.712  0.00  0.00    -0.075 S 
ENDROOT
BRANCH   1   2
ATOM      2  C   UNL     1       0.282  -0.784  -4.130  0.00  0.00    +0.170 A 
ATOM      3  N   UNL     1      -0.148  -0.364  -5.352  0.00  0.00    -0.301 N 
ATOM      4  C   UNL     1       0.594  -0.603  -6.454  0.00  0.00    +0.270 A 
ATOM      5  O   UNL     1       0.216  -0.230  -7.551  0.00  0.00    -0.266 OA
ATOM      6  C   UNL     1       1.823  -1.297  -6.308  0.00  0.00    +0.142 A 
ATOM      7  C   UNL     1       2.211  -1.704  -5.018  0.00  0.00    +0.097 A 
ATOM      8  N   UNL     1       1.424  -1.426  -3.977  0.00  0.00    -0.222 NA
ATOM      9  H   UNL     1      -0.992   0.108  -5.431  0.00  0.00    +0.171 HD
BRANCH   7  10
ATOM     10  C   UNL     1       3.484  -2.430  -4.818  0.00  0.00    +0.005 A 
ATOM     11  C   UNL     1       4.367  -2.032  -3.812  0.00  0.00    +0.010 A 
ATOM     12  C   UNL     1       5.553  -2.712  -3.627  0.00  0.00    +0.004 A 
ATOM     13  C   UNL     1       5.872  -3.788  -4.436  0.00  0.00    +0.045 A 
ATOM     14  C   UNL     1       5.000  -4.191  -5.438  0.00  0.00    +0.121 A 
ATOM     15  C   UNL     1       3.804  -3.520  -5.628  0.00  0.00    +0.055 A 
BRANCH  14  16
ATOM     16  O   UNL     1       5.318  -5.249  -6.230  0.00  0.00    -0.495 OA
ATOM     17  C   UNL     1       6.565  -5.898  -5.974  0.00  0.00    +0.277 C 
ENDBRANCH  14  16
ENDBRANCH   7  10
BRANCH   6  18
ATOM     18  C   UNL     1       2.648  -1.576  -7.445  0.00  0.00    +0.107 C 
ATOM     19  N   UNL     1       3.302  -1.798  -8.347  0.00  0.00    -0.191 NA
ENDBRANCH   6  18
ENDBRANCH   1   2
BRANCH   1  20
ATOM     20  C   UNL     1       0.149  -1.312  -1.365  0.00  0.00    +0.140 C 
BRANCH  20  21
ATOM     21  C   UNL     1       0.051  -2.801  -1.573  0.00  0.00    +0.227 C 
ATOM     22  O   UNL     1      -0.812  -3.257  -2.292  0.00  0.00    -0.275 OA
ATOM     23  N   UNL     1       0.923  -3.626  -0.959  0.00  0.00    -0.301 N 
ATOM     24  H   UNL     1       1.613  -3.261  -0.384  0.00  0.00    +0.150 HD
BRANCH  23  25
ATOM     25  C   UNL     1       0.828  -5.074  -1.162  0.00  0.00    +0.156 C 
ATOM     26  C   UNL     1       2.227  -5.720  -1.308  0.00  0.00    +0.149 C 
ATOM     27  C   UNL     1       2.756  -6.207   0.017  0.00  0.00    -0.041 C 
ATOM     28  C   UNL     1       1.881  -6.385   1.000  0.00  0.00    -0.012 C 
ATOM     29  S   UNL     1       0.279  -5.936   0.371  0.00  0.00    -0.106 S 
ATOM     30  C   UNL     1       2.173  -6.872   2.392  0.00  0.00    +0.042 C 
ATOM     31  C   UNL     1       3.578  -7.486   2.417  0.00  0.00    +0.005 C 
ATOM     32  C   UNL     1       4.543  -6.519   1.723  0.00  0.00    +0.005 C 
ATOM     33  C   UNL     1       4.243  -6.488   0.225  0.00  0.00    +0.033 C 
BRANCH  26  34
ATOM     34  C   UNL     1       2.134  -6.860  -2.235  0.00  0.00    +0.073 C 
ATOM     35  N   UNL     1       2.063  -7.740  -2.950  0.00  0.00    -0.196 NA
ENDBRANCH  26  34
ENDBRANCH  23  25
ENDBRANCH  20  21
BRANCH  20  37
ATOM     36  C   UNL     1      -0.299   0.554   0.235  0.00  0.00    +0.005 C 
ATOM     37  C   UNL     1      -0.498  -0.940  -0.029  0.00  0.00    +0.020 C 
ENDBRANCH  20  37
ENDBRANCH   1  20
TORSDOF 9
