REMARK  Name = ZINC14530803
REMARK  6 active torsions:
REMARK  status: ('A' for Active; 'I' for Inactive)
REMARK    1  A    between atoms: C_1  and  C_2
REMARK    2  A    between atoms: C_2  and  N_3
REMARK    3  A    between atoms: N_6  and  C_26
REMARK    4  A    between atoms: C_14  and  C_15
REMARK    5  A    between atoms: C_14  and  N_66
REMARK    6  A    between atoms: C_19  and  C_21
REMARK                            x       y       z     vdW  Elec       q    Type
REMARK                         _______ _______ _______ _____ _____    ______ ____
ROOT
ATOM      1  N   UNL     1      -5.498   2.006   3.478  0.00  0.00    -0.271 N 
ATOM      2  C   UNL     1      -6.230   2.182   4.595  0.00  0.00    +0.312 C 
ATOM      3  O   UNL     1      -7.147   2.975   4.684  0.00  0.00    -0.252 OA
ATOM      4  N   UNL     1      -5.834   1.386   5.596  0.00  0.00    -0.220 N 
ATOM      5  C   UNL     1      -4.796   0.606   5.229  0.00  0.00    +0.247 C 
ATOM      6  O   UNL     1      -4.219  -0.215   5.909  0.00  0.00    -0.273 OA
ATOM      7  C   UNL     1      -4.507   0.970   3.791  0.00  0.00    +0.112 C 
ATOM      8  C   UNL     1      -4.695  -0.243   2.885  0.00  0.00    +0.017 C 
ATOM      9  C   UNL     1      -4.368   0.148   1.441  0.00  0.00    -0.076 C 
ATOM     10  C   UNL     1      -2.818   1.857   2.186  0.00  0.00    -0.076 C 
ATOM     11  C   UNL     1      -3.092   1.524   3.655  0.00  0.00    +0.017 C 
ATOM     12  N   UNL     1      -2.970   0.627   1.380  0.00  0.00    +0.382 N 
ATOM     13  H   UNL     1      -2.353  -0.099   1.761  0.00  0.00    -0.081 HD
ENDROOT
BRANCH   4  14
ATOM     14  C   UNL     1      -6.450   1.365   6.925  0.00  0.00    +0.094 C 
ATOM     15  C   UNL     1      -7.965   1.089   6.822  0.00  0.00    +0.058 C 
ATOM     16  C   UNL     1      -8.592   1.919   7.927  0.00  0.00    -0.042 A 
ATOM     17  C   UNL     1      -9.846   1.836   8.509  0.00  0.00    +0.004 A 
ATOM     18  C   UNL     1     -10.203   2.708   9.518  0.00  0.00    +0.000 A 
ATOM     19  C   UNL     1      -9.307   3.669   9.948  0.00  0.00    +0.000 A 
ATOM     20  C   UNL     1      -8.056   3.754   9.369  0.00  0.00    +0.004 A 
ATOM     21  C   UNL     1      -7.696   2.880   8.357  0.00  0.00    -0.042 A 
ATOM     22  C   UNL     1      -6.407   2.766   7.572  0.00  0.00    +0.058 C 
ENDBRANCH   4  14
BRANCH   1  24
ATOM     23  C   UNL     1      -6.998   2.316   1.571  0.00  0.00    +0.024 C 
ATOM     24  C   UNL     1      -5.661   2.708   2.203  0.00  0.00    +0.107 C 
ENDBRANCH   1  24
BRANCH  12  25
ATOM     25  C   UNL     1      -2.589   0.893  -0.023  0.00  0.00    -0.043 C 
BRANCH  25  26
ATOM     26  C   UNL     1      -1.275   1.630  -0.046  0.00  0.00    -0.063 A 
ATOM     27  C   UNL     1      -1.259   3.013  -0.037  0.00  0.00    +0.002 A 
ATOM     28  C   UNL     1      -0.057   3.698  -0.064  0.00  0.00    +0.001 A 
ATOM     29  C   UNL     1       1.135   3.003  -0.095  0.00  0.00    +0.011 A 
ATOM     30  C   UNL     1       1.126   1.608  -0.099  0.00  0.00    +0.017 A 
ATOM     31  C   UNL     1      -0.090   0.923  -0.071  0.00  0.00    +0.013 A 
BRANCH  30  32
ATOM     32  C   UNL     1       2.399   0.858  -0.131  0.00  0.00    +0.135 A 
ATOM     33  C   UNL     1       3.645   1.401  -0.165  0.00  0.00    +0.050 A 
ATOM     34  C   UNL     1       4.556   0.327  -0.185  0.00  0.00    +0.042 A 
ATOM     35  C   UNL     1       3.829  -0.808  -0.171  0.00  0.00    +0.196 A 
ATOM     36  O   UNL     1       2.526  -0.483  -0.138  0.00  0.00    -0.463 OA
ENDBRANCH  30  32
ENDBRANCH  25  26
ENDBRANCH  12  25
TORSDOF 5
