REMARK  Name = ZINC66534701
REMARK  3 active torsions:
REMARK  status: ('A' for Active; 'I' for Inactive)
REMARK    1  A    between atoms: C_1  and  C_2
REMARK    2  A    between atoms: N_11  and  C_13
REMARK    3  A    between atoms: C_13  and  C_14
REMARK                            x       y       z     vdW  Elec       q    Type
REMARK                         _______ _______ _______ _____ _____    ______ ____
ROOT
ATOM      1  C   UNL     1       2.038  -2.693   1.473  0.00  0.00    +0.158 C 
ENDROOT
BRANCH   1  11
ATOM      2  C   UNL     1      -0.019   1.526   0.010  0.00  0.00    +0.009 C 
ATOM      3  C   UNL     1       0.002  -0.004   0.002  0.00  0.00    +0.008 C 
ATOM      4  C   UNL     1      -1.431  -0.536   0.019  0.00  0.00    +0.041 C 
ATOM      5  C   UNL     1      -1.437  -2.027   0.229  0.00  0.00    -0.026 A 
ATOM      6  C   UNL     1      -2.557  -2.752  -0.146  0.00  0.00    +0.005 A 
ATOM      7  C   UNL     1      -2.594  -4.120   0.035  0.00  0.00    +0.000 A 
ATOM      8  C   UNL     1      -1.512  -4.777   0.594  0.00  0.00    +0.002 A 
ATOM      9  C   UNL     1      -0.393  -4.063   0.969  0.00  0.00    +0.023 A 
ATOM     10  C   UNL     1      -0.352  -2.685   0.785  0.00  0.00    +0.033 A 
ATOM     11  N   UNL     1       0.796  -1.981   1.165  0.00  0.00    -0.324 N 
ATOM     12  C   UNL     1       0.738  -0.515   1.248  0.00  0.00    +0.109 C 
ENDBRANCH   1  11
BRANCH   1  13
ATOM     13  C   UNL     1       2.857  -2.843   0.217  0.00  0.00    +0.040 A 
ATOM     14  C   UNL     1       4.057  -2.228   0.114  0.00  0.00    +0.095 A 
ATOM     15  C   UNL     1       4.820  -2.371  -1.063  0.00  0.00    +0.275 A 
ATOM     16  O   UNL     1       5.902  -1.819  -1.160  0.00  0.00    -0.266 OA
ATOM     17  N   UNL     1       4.350  -3.119  -2.079  0.00  0.00    -0.180 N 
ATOM     18  C   UNL     1       3.138  -3.737  -1.969  0.00  0.00    +0.138 A 
ATOM     19  N   UNL     1       2.391  -3.603  -0.814  0.00  0.00    -0.342 N 
ATOM     20  H   UNL     1       1.532  -4.046  -0.738  0.00  0.00    +0.167 HD
ATOM     21  C   UNL     1       2.919  -4.416  -3.130  0.00  0.00    +0.068 A 
ATOM     22  C   UNL     1       4.020  -4.207  -3.962  0.00  0.00    +0.137 A 
ATOM     23  N   UNL     1       4.874  -3.434  -3.339  0.00  0.00    -0.170 NA
ENDBRANCH   1  13
TORSDOF 2
