REMARK  Name = ZINC31818373
REMARK  6 active torsions:
REMARK  status: ('A' for Active; 'I' for Inactive)
REMARK    1  A    between atoms: C_2  and  N_22
REMARK    2  A    between atoms: C_5  and  N_8
REMARK    3  A    between atoms: C_9  and  C_11
REMARK    4  A    between atoms: C_11  and  S_12
REMARK    5  A    between atoms: S_12  and  C_13
REMARK    6  A    between atoms: C_17  and  N_19
REMARK                            x       y       z     vdW  Elec       q    Type
REMARK                         _______ _______ _______ _____ _____    ______ ____
ROOT
ATOM      1  N   UNL     1       1.238  -2.080  -0.021  0.00  0.00    -0.283 N 
ATOM      2  C   UNL     1       0.156  -2.774   0.385  0.00  0.00    +0.228 C 
ATOM      3  O   UNL     1      -0.867  -2.189   0.670  0.00  0.00    -0.275 OA
ATOM      4  H   UNL     1       2.033  -2.551  -0.319  0.00  0.00    +0.155 HD
ENDROOT
BRANCH   1   9
ATOM      5  C   UNL     1       0.782   1.397  -1.133  0.00  0.00    +0.050 A 
ATOM      6  C   UNL     1       1.171   2.087   0.001  0.00  0.00    +0.128 A 
ATOM      7  C   UNL     1       1.581   1.398   1.127  0.00  0.00    +0.050 A 
ATOM      8  C   UNL     1       1.605   0.016   1.123  0.00  0.00    +0.042 A 
ATOM      9  C   UNL     1       1.215  -0.681  -0.014  0.00  0.00    +0.062 A 
ATOM     10  C   UNL     1       0.803   0.015  -1.143  0.00  0.00    +0.042 A 
ATOM     11 BR   UNL     1       0.271  -0.928  -2.694  0.00  0.00    -0.048 Br
ATOM     12 BR   UNL     1       2.167  -0.925   2.664  0.00  0.00    -0.048 Br
BRANCH   6  13
ATOM     13  N   UNL     1       1.147   3.567   0.009  0.00  0.00    +0.056 N 
ATOM     14  O   UNL     1       0.789   4.171  -0.976  0.00  0.00    -0.126 OA
ATOM     15  O   UNL     1       1.487   4.172   0.999  0.00  0.00    -0.126 OA
ENDBRANCH   6  13
ENDBRANCH   1   9
BRANCH   2  16
ATOM     16  C   UNL     1       0.218  -4.277   0.483  0.00  0.00    +0.173 C 
BRANCH  16  17
ATOM     17  S   UNL     1      -1.383  -4.912   1.053  0.00  0.00    -0.077 S 
BRANCH  17  18
ATOM     18  C   UNL     1      -1.151  -6.657   1.115  0.00  0.00    +0.192 A 
ATOM     19  N   UNL     1       0.027  -7.165   0.779  0.00  0.00    -0.207 NA
ATOM     20  C   UNL     1       0.238  -8.478   0.815  0.00  0.00    +0.122 A 
ATOM     21  C   UNL     1      -0.796  -9.320   1.212  0.00  0.00    +0.086 A 
ATOM     22  C   UNL     1      -2.019  -8.751   1.558  0.00  0.00    +0.122 A 
ATOM     23  N   UNL     1      -2.156  -7.429   1.503  0.00  0.00    -0.207 NA
ATOM     24  N   UNL     1       1.472  -9.001   0.462  0.00  0.00    -0.343 N 
ATOM     25  H   UNL     1       2.189  -8.408   0.186  0.00  0.00    +0.144 HD
ATOM     26  H   UNL     1       1.620  -9.959   0.490  0.00  0.00    +0.144 HD
BRANCH  22  27
ATOM     27  N   UNL     1      -3.078  -9.551   1.958  0.00  0.00    -0.343 N 
ATOM     28  H   UNL     1      -2.969 -10.514   1.999  0.00  0.00    +0.144 HD
ATOM     29  H   UNL     1      -3.927  -9.148   2.198  0.00  0.00    +0.144 HD
ENDBRANCH  22  27
ENDBRANCH  17  18
ENDBRANCH  16  17
ENDBRANCH   2  16
TORSDOF 6
