REMARK  Name = ZINC13811673
REMARK  2 active torsions:
REMARK  status: ('A' for Active; 'I' for Inactive)
REMARK    1  A    between atoms: C_5  and  C_7
REMARK    2  A    between atoms: C_7  and  N_8
REMARK                            x       y       z     vdW  Elec       q    Type
REMARK                         _______ _______ _______ _____ _____    ______ ____
ROOT
ATOM      1  N   UNL     1       1.370  -2.677   1.351  0.00  0.00    -0.220 N 
ATOM      2  C   UNL     1       2.598  -2.841   1.860  0.00  0.00    +0.240 C 
ATOM      3  O   UNL     1       3.561  -2.584   1.169  0.00  0.00    -0.274 OA
ATOM      4  C   UNL     1       2.819  -3.335   3.263  0.00  0.00    +0.146 C 
ATOM      5  C   UNL     1       3.666  -4.610   3.227  0.00  0.00    +0.071 C 
ATOM      6  C   UNL     1       5.060  -4.288   2.763  0.00  0.00    +0.057 A 
ATOM      7  C   UNL     1       5.585  -3.008   2.873  0.00  0.00    +0.109 A 
ATOM      8  N   UNL     1       6.824  -2.760   2.451  0.00  0.00    -0.329 N 
ATOM      9  C   UNL     1       7.576  -3.720   1.921  0.00  0.00    +0.119 A 
ATOM     10  C   UNL     1       8.880  -3.418   1.483  0.00  0.00    +0.045 A 
ATOM     11  C   UNL     1       9.649  -4.401   0.938  0.00  0.00    +0.005 A 
ATOM     12  C   UNL     1       9.132  -5.700   0.823  0.00  0.00    +0.018 A 
ATOM     13  C   UNL     1       7.880  -5.972   1.250  0.00  0.00    +0.096 A 
ATOM     14  N   UNL     1       7.100  -4.996   1.795  0.00  0.00    -0.269 N 
ATOM     15  C   UNL     1       5.850  -5.295   2.208  0.00  0.00    +0.263 A 
ATOM     16  O   UNL     1       5.417  -6.431   2.098  0.00  0.00    -0.267 OA
ATOM     17  N   UNL     1       4.834  -1.974   3.420  0.00  0.00    -0.312 N 
ATOM     18  C   UNL     1       3.573  -2.264   4.060  0.00  0.00    +0.099 C 
ATOM     19  C   UNL     1       3.892  -2.845   5.469  0.00  0.00    +0.024 C 
ATOM     20  C   UNL     1       4.551  -1.771   6.251  0.00  0.00    +0.002 C 
ATOM     21  C   UNL     1       5.844  -1.249   5.660  0.00  0.00    +0.002 C 
ATOM     22  C   UNL     1       5.503  -0.086   4.772  0.00  0.00    +0.019 C 
ATOM     23  C   UNL     1       5.417  -0.601   3.298  0.00  0.00    +0.107 C 
ATOM     24  C   UNL     1       1.506  -3.622   3.935  0.00  0.00    +0.238 C 
ATOM     25  O   UNL     1       1.506  -4.053   5.068  0.00  0.00    -0.274 OA
ATOM     26  N   UNL     1       0.334  -3.414   3.319  0.00  0.00    -0.239 N 
ATOM     27  C   UNL     1       0.265  -2.944   2.064  0.00  0.00    +0.315 C 
ATOM     28  O   UNL     1      -0.825  -2.760   1.559  0.00  0.00    -0.252 OA
ATOM     29  H   UNL     1      -0.489  -3.605   3.795  0.00  0.00    +0.159 HD
ATOM     30  H   UNL     1       7.184  -1.862   2.532  0.00  0.00    +0.168 HD
ENDROOT
BRANCH   1  31
ATOM     31  C   UNL     1       1.229  -2.186  -0.022  0.00  0.00    +0.154 C 
BRANCH  31  36
ATOM     32  C   UNL     1       2.757  -4.667  -2.422  0.00  0.00    +0.000 A 
ATOM     33  C   UNL     1       1.662  -5.444  -2.752  0.00  0.00    +0.001 A 
ATOM     34  C   UNL     1       0.426  -5.166  -2.200  0.00  0.00    +0.020 A 
ATOM     35  C   UNL     1       0.285  -4.111  -1.315  0.00  0.00    +0.046 A 
ATOM     36  C   UNL     1       1.381  -3.335  -0.985  0.00  0.00    -0.011 A 
ATOM     37  C   UNL     1       2.617  -3.614  -1.538  0.00  0.00    +0.006 A 
ATOM     38 CL   UNL     1      -1.267  -3.762  -0.621  0.00  0.00    -0.083 Cl
ENDBRANCH  31  36
ENDBRANCH   1  31
TORSDOF 2
