REMARK  Name = ZINC08872288
REMARK  2 active torsions:
REMARK  status: ('A' for Active; 'I' for Inactive)
REMARK    1  A    between atoms: C_5  and  C_7
REMARK    2  A    between atoms: N_8  and  N_9
REMARK                            x       y       z     vdW  Elec       q    Type
REMARK                         _______ _______ _______ _____ _____    ______ ____
ROOT
ATOM      1  N   UNL     1      -3.639   2.143   0.031  0.00  0.00    -0.205 N 
ATOM      2  C   UNL     1      -4.828   1.439   0.033  0.00  0.00    +0.241 A 
ATOM      3  N   UNL     1      -4.814   0.110   0.020  0.00  0.00    -0.180 NA
ATOM      4  C   UNL     1      -5.958  -0.567   0.027  0.00  0.00    +0.224 A 
ATOM      5  N   UNL     1      -7.116   0.085   0.036  0.00  0.00    -0.181 NA
ATOM      6  C   UNL     1      -7.130   1.415   0.044  0.00  0.00    +0.224 A 
ATOM      7  N   UNL     1      -5.987   2.092   0.042  0.00  0.00    -0.180 NA
ATOM      8  N   UNL     1      -8.333   2.092   0.053  0.00  0.00    -0.299 N 
ATOM      9  C   UNL     1      -9.175   1.684  -1.079  0.00  0.00    +0.108 C 
ATOM     10  C   UNL     1     -10.551   2.343  -0.956  0.00  0.00    +0.019 C 
ATOM     11  C   UNL     1     -10.384   3.865  -0.942  0.00  0.00    +0.003 C 
ATOM     12  C   UNL     1      -9.464   4.259   0.217  0.00  0.00    +0.019 C 
ATOM     13  C   UNL     1      -8.119   3.544   0.060  0.00  0.00    +0.108 C 
ATOM     14  N   UNL     1      -5.943  -1.947   0.019  0.00  0.00    -0.299 N 
ATOM     15  C   UNL     1      -6.703  -2.488   1.153  0.00  0.00    +0.108 C 
ATOM     16  C   UNL     1      -6.788  -4.011   1.032  0.00  0.00    +0.019 C 
ATOM     17  C   UNL     1      -5.373  -4.597   1.016  0.00  0.00    +0.003 C 
ATOM     18  C   UNL     1      -4.588  -3.981  -0.146  0.00  0.00    +0.019 C 
ATOM     19  C   UNL     1      -4.566  -2.459   0.010  0.00  0.00    +0.108 C 
ATOM     20  H   UNL     1      -3.650   3.113   0.036  0.00  0.00    +0.177 HD
ENDROOT
BRANCH   1  22
ATOM     21  C   UNL     1      -1.302   2.116   0.020  0.00  0.00    +0.139 C 
ATOM     22  N   UNL     1      -2.419   1.456   0.021  0.00  0.00    -0.188 NA
BRANCH  21  27
ATOM     23  C   UNL     1       2.385   1.418  -0.013  0.00  0.00    +0.001 A 
ATOM     24  C   UNL     1       2.397   0.034  -0.021  0.00  0.00    +0.001 A 
ATOM     25  C   UNL     1       1.209  -0.674  -0.013  0.00  0.00    +0.015 A 
ATOM     26  C   UNL     1       0.002  -0.004   0.002  0.00  0.00    +0.022 A 
ATOM     27  C   UNL     1      -0.017   1.393   0.010  0.00  0.00    +0.008 A 
ATOM     28  C   UNL     1       1.187   2.101   0.002  0.00  0.00    +0.010 A 
ATOM     29  I   UNL     1      -1.796  -1.079   0.013  0.00  0.00    -0.043 I 
ENDBRANCH  21  27
ENDBRANCH   1  22
TORSDOF 2
