REMARK  Name = ZINC05520026
REMARK  8 active torsions:
REMARK  status: ('A' for Active; 'I' for Inactive)
REMARK    1  A    between atoms: C_1  and  O_2
REMARK    2  A    between atoms: O_2  and  C_3
REMARK    3  A    between atoms: C_6  and  C_13
REMARK    4  A    between atoms: C_7  and  O_11
REMARK    5  A    between atoms: C_8  and  O_9
REMARK    6  A    between atoms: O_9  and  C_10
REMARK    7  A    between atoms: O_11  and  C_12
REMARK    8  A    between atoms: N_14  and  N_15
REMARK                            x       y       z     vdW  Elec       q    Type
REMARK                         _______ _______ _______ _____ _____    ______ ____
ROOT
ATOM      1  N   UNL     1      -5.196   5.728  -0.669  0.00  0.00    -0.220 N 
ATOM      2  C   UNL     1      -6.188   5.040  -1.343  0.00  0.00    +0.150 A 
ATOM      3  C   UNL     1      -7.008   5.708  -2.296  0.00  0.00    +0.052 A 
ATOM      4  C   UNL     1      -6.972   7.110  -2.714  0.00  0.00    -0.025 A 
ATOM      5  C   UNL     1      -7.869   7.494  -3.646  0.00  0.00    -0.004 A 
ATOM      6  S   UNL     1      -8.802   6.033  -4.019  0.00  0.00    -0.073 S 
ATOM      7  C   UNL     1      -7.985   4.906  -2.920  0.00  0.00    +0.114 A 
ATOM      8  N   UNL     1      -8.117   3.627  -2.627  0.00  0.00    -0.228 NA
ATOM      9  C   UNL     1      -7.327   3.063  -1.734  0.00  0.00    +0.224 A 
ATOM     10  N   UNL     1      -6.386   3.751  -1.114  0.00  0.00    -0.219 NA
ATOM     11  C   UNL     1      -8.036   8.861  -4.236  0.00  0.00    +0.043 C 
ATOM     12  C   UNL     1      -7.279   9.865  -3.355  0.00  0.00    +0.005 C 
ATOM     13  C   UNL     1      -5.878   9.312  -3.074  0.00  0.00    +0.005 C 
ATOM     14  C   UNL     1      -5.974   8.109  -2.135  0.00  0.00    +0.037 C 
ATOM     15  H   UNL     1      -5.196   6.697  -0.662  0.00  0.00    +0.176 HD
ENDROOT
BRANCH   1  17
ATOM     16  C   UNL     1      -3.256   5.668   0.635  0.00  0.00    +0.142 C 
ATOM     17  N   UNL     1      -4.188   5.023   0.003  0.00  0.00    -0.189 NA
BRANCH  16  21
ATOM     18  C   UNL     1      -0.199   3.535   2.679  0.00  0.00    +0.165 A 
ATOM     19  C   UNL     1      -0.201   4.924   2.684  0.00  0.00    +0.050 A 
ATOM     20  C   UNL     1      -1.191   5.619   2.023  0.00  0.00    +0.017 A 
ATOM     21  C   UNL     1      -2.196   4.927   1.342  0.00  0.00    +0.040 A 
ATOM     22  C   UNL     1      -2.193   3.526   1.333  0.00  0.00    +0.174 A 
ATOM     23  C   UNL     1      -1.191   2.836   2.001  0.00  0.00    +0.204 A 
BRANCH  18  25
ATOM     24  C   UNL     1       1.766   3.637   4.014  0.00  0.00    +0.277 C 
ATOM     25  O   UNL     1       0.778   2.857   3.338  0.00  0.00    -0.491 OA
ENDBRANCH  18  25
BRANCH  23  26
ATOM     26  O   UNL     1      -1.183   1.475   1.996  0.00  0.00    -0.488 OA
ATOM     27  C   UNL     1      -0.469   0.834   0.937  0.00  0.00    +0.277 C 
ENDBRANCH  23  26
BRANCH  22  28
ATOM     28  O   UNL     1      -3.167   2.845   0.673  0.00  0.00    -0.491 OA
ATOM     29  C   UNL     1      -4.342   2.512   1.415  0.00  0.00    +0.277 C 
ENDBRANCH  22  28
ENDBRANCH  16  21
ENDBRANCH   1  17
TORSDOF 5
