REMARK  Name = ZINC13064436
REMARK  13 active torsions:
REMARK  status: ('A' for Active; 'I' for Inactive)
REMARK    1  A    between atoms: C_1  and  C_2
REMARK    2  A    between atoms: C_2  and  C_3
REMARK    3  A    between atoms: C_3  and  C_5
REMARK    4  A    between atoms: C_3  and  N_65
REMARK    5  A    between atoms: N_9  and  C_10
REMARK    6  A    between atoms: C_10  and  C_11
REMARK    7  A    between atoms: C_11  and  O_13
REMARK    8  A    between atoms: O_13  and  C_14
REMARK    9  A    between atoms: C_14  and  C_15
REMARK   10  A    between atoms: C_16  and  C_17
REMARK   11  A    between atoms: C_16  and  N_65
REMARK   12  A    between atoms: C_22  and  C_23
REMARK   13  A    between atoms: C_22  and  N_65
REMARK                            x       y       z     vdW  Elec       q    Type
REMARK                         _______ _______ _______ _____ _____    ______ ____
ROOT
ATOM      1  N   UNL     1      -4.043   3.453   0.386  0.00  0.00    +0.392 N 
ATOM      2  H   UNL     1      -3.638   4.390   0.276  0.00  0.00    -0.080 HD
ENDROOT
BRANCH   1   3
ATOM      3  C   UNL     1      -2.956   2.452   0.342  0.00  0.00    +0.003 C 
BRANCH   3   4
ATOM      4  C   UNL     1      -3.524   1.057   0.302  0.00  0.00    +0.139 A 
ATOM      5  N   UNL     1      -4.480   0.623  -0.483  0.00  0.00    -0.115 NA
ATOM      6  N   UNL     1      -4.684  -0.620  -0.211  0.00  0.00    -0.023 NA
ATOM      7  N   UNL     1      -3.881  -0.991   0.723  0.00  0.00    -0.043 NA
ATOM      8  N   UNL     1      -3.147   0.014   1.064  0.00  0.00    -0.220 N 
BRANCH   8   9
ATOM      9  C   UNL     1      -2.103   0.020   2.092  0.00  0.00    +0.267 C 
BRANCH   9  10
ATOM     10  C   UNL     1      -0.782  -0.350   1.468  0.00  0.00    +0.329 C 
ATOM     11  O   UNL     1      -0.718  -0.594   0.287  0.00  0.00    -0.249 OA
BRANCH  10  12
ATOM     12  O   UNL     1       0.325  -0.409   2.226  0.00  0.00    -0.464 OA
BRANCH  12  13
ATOM     13  C   UNL     1       1.562  -0.772   1.558  0.00  0.00    +0.229 C 
ATOM     14  C   UNL     1       2.705  -0.786   2.575  0.00  0.00    +0.048 C 
ENDBRANCH  12  13
ENDBRANCH  10  12
ENDBRANCH   9  10
ENDBRANCH   8   9
ENDBRANCH   3   4
BRANCH   3  16
ATOM     15  C   UNL     1      -1.488   4.090  -0.843  0.00  0.00    +0.002 C 
ATOM     16  C   UNL     1      -2.112   2.695  -0.911  0.00  0.00    -0.011 C 
ENDBRANCH   3  16
ENDBRANCH   1   3
BRANCH   1  17
ATOM     17  C   UNL     1      -4.741   3.383   1.687  0.00  0.00    -0.034 C 
BRANCH  17  18
ATOM     18  C   UNL     1      -3.833   3.935   2.756  0.00  0.00    -0.027 A 
ATOM     19  C   UNL     1      -3.747   5.201   3.231  0.00  0.00    +0.009 A 
ATOM     20  C   UNL     1      -2.829   5.482   4.227  0.00  0.00    +0.008 A 
ATOM     21  C   UNL     1      -2.044   4.483   4.697  0.00  0.00    +0.045 A 
ATOM     22  S   UNL     1      -2.598   3.089   3.728  0.00  0.00    -0.103 S 
ENDBRANCH  17  18
ENDBRANCH   1  17
BRANCH   1  23
ATOM     23  C   UNL     1      -4.999   3.210  -0.714  0.00  0.00    -0.036 C 
BRANCH  23  24
ATOM     24  C   UNL     1      -5.851   4.440  -0.895  0.00  0.00    +0.001 A 
ATOM     25  C   UNL     1      -5.495   5.381  -1.806  0.00  0.00    +0.017 A 
ATOM     26  C   UNL     1      -6.346   6.560  -1.961  0.00  0.00    +0.002 A 
ATOM     27  C   UNL     1      -6.031   7.562  -2.888  0.00  0.00    +0.059 A 
ATOM     28  C   UNL     1      -6.849   8.665  -3.009  0.00  0.00    +0.163 A 
ATOM     29  C   UNL     1      -7.991   8.786  -2.211  0.00  0.00    +0.164 A 
ATOM     30  C   UNL     1      -8.309   7.801  -1.292  0.00  0.00    +0.075 A 
ATOM     31  C   UNL     1      -7.495   6.684  -1.157  0.00  0.00    +0.053 A 
ATOM     32  N   UNL     1      -7.798   5.693  -0.244  0.00  0.00    -0.322 N 
ATOM     33  H   UNL     1      -8.589   5.779   0.310  0.00  0.00    +0.169 HD
ATOM     34  C   UNL     1      -7.011   4.611  -0.113  0.00  0.00    +0.251 A 
ATOM     35  O   UNL     1      -7.309   3.755   0.703  0.00  0.00    -0.268 OA
ATOM     36  O   UNL     1      -8.806   9.869  -2.327  0.00  0.00    -0.485 OA
ATOM     37  C   UNL     1      -8.262  11.016  -2.988  0.00  0.00    +0.270 C 
ATOM     38  C   UNL     1      -7.568  10.546  -4.274  0.00  0.00    +0.270 C 
ATOM     39  O   UNL     1      -6.528   9.632  -3.913  0.00  0.00    -0.485 OA
ENDBRANCH  23  24
ENDBRANCH   1  23
TORSDOF 11
