REMARK  Name = ZINC44784384
REMARK  5 active torsions:
REMARK  status: ('A' for Active; 'I' for Inactive)
REMARK    1  A    between atoms: C_1  and  C_2
REMARK    2  A    between atoms: C_8  and  N_10
REMARK    3  A    between atoms: C_11  and  C_13
REMARK    4  A    between atoms: C_13  and  C_18
REMARK    5  A    between atoms: N_19  and  O_20
REMARK                            x       y       z     vdW  Elec       q    Type
REMARK                         _______ _______ _______ _____ _____    ______ ____
ROOT
ATOM      1  C   UNL     1       0.063   0.686   4.816  0.00  0.00    +0.105 C 
ATOM      2  C   UNL     1       1.100   0.898   5.937  0.00  0.00    +0.024 C 
ATOM      3  C   UNL     1       1.520   2.381   5.791  0.00  0.00    +0.001 C 
ATOM      4  C   UNL     1       0.188   3.079   5.419  0.00  0.00    +0.001 C 
ATOM      5  C   UNL     1      -0.517   2.073   4.486  0.00  0.00    +0.024 C 
ENDROOT
BRANCH   1   6
ATOM      6  C   UNL     1      -1.033  -0.232   5.291  0.00  0.00    +0.147 C 
ATOM      7  N   UNL     1      -2.264   0.158   5.253  0.00  0.00    -0.076 NA
ATOM      8  N   UNL     1      -0.723  -1.487   5.766  0.00  0.00    -0.343 N 
ATOM      9  H   UNL     1       0.191  -1.808   5.726  0.00  0.00    +0.144 HD
ATOM     10  H   UNL     1      -1.418  -2.049   6.142  0.00  0.00    +0.144 HD
BRANCH   7  11
ATOM     11  O   UNL     1      -3.294  -0.705   5.700  0.00  0.00    -0.408 OA
ATOM     12  H   UNL     1      -4.182  -0.326   5.634  0.00  0.00    +0.328 HD
ENDBRANCH   7  11
ENDBRANCH   1   6
BRANCH   1  14
ATOM     13  N   UNL     1       0.043  -0.021   2.445  0.00  0.00    -0.311 N 
ATOM     14  C   UNL     1       0.731   0.103   3.597  0.00  0.00    +0.227 C 
ATOM     15  O   UNL     1       1.889  -0.254   3.653  0.00  0.00    -0.275 OA
ATOM     16  H   UNL     1      -0.903   0.193   2.420  0.00  0.00    +0.149 HD
BRANCH  13  23
ATOM     17  C   UNL     1      -0.054   1.562   0.022  0.00  0.00    +0.009 C 
ATOM     18  C   UNL     1      -0.028   0.032   0.001  0.00  0.00    +0.006 C 
ATOM     19  C   UNL     1       0.682  -0.448  -1.266  0.00  0.00    +0.005 C 
ATOM     20  C   UNL     1       0.708  -1.978  -1.287  0.00  0.00    +0.000 C 
ATOM     21  C   UNL     1       1.458  -2.492  -0.057  0.00  0.00    +0.002 C 
ATOM     22  C   UNL     1       0.748  -2.011   1.211  0.00  0.00    +0.022 C 
ATOM     23  C   UNL     1       0.722  -0.482   1.232  0.00  0.00    +0.076 C 
ENDBRANCH  13  23
ENDBRANCH   1  14
TORSDOF 4
