REMARK  Name = ZINC39608224
REMARK  10 active torsions:
REMARK  status: ('A' for Active; 'I' for Inactive)
REMARK    1  A    between atoms: C_1  and  C_2
REMARK    2  A    between atoms: C_2  and  C_4
REMARK    3  A    between atoms: C_2  and  N_7
REMARK    4  A    between atoms: C_4  and  C_5
REMARK    5  A    between atoms: C_4  and  C_6
REMARK    6  A    between atoms: C_8  and  C_10
REMARK    7  A    between atoms: C_21  and  C_23
REMARK    8  A    between atoms: C_29  and  O_31
REMARK    9  A    between atoms: O_31  and  C_32
REMARK   10  A    between atoms: C_32  and  C_33
REMARK                            x       y       z     vdW  Elec       q    Type
REMARK                         _______ _______ _______ _____ _____    ______ ____
ROOT
ATOM      1  C   UNL     1      -3.442  -1.177   1.191  0.00  0.00    +0.100 C 
ATOM      2  C   UNL     1      -4.400  -0.149   0.548  0.00  0.00    +0.121 C 
ATOM      3  N   UNL     1      -5.639  -0.235   1.355  0.00  0.00    -0.300 N 
ATOM      4  C   UNL     1      -5.161  -0.393   2.749  0.00  0.00    +0.115 C 
ATOM      5  C   UNL     1      -3.945  -1.333   2.637  0.00  0.00    -0.004 C 
ATOM      6  C   UNL     1      -2.859  -0.911   3.622  0.00  0.00    -0.010 C 
ATOM      7  C   UNL     1      -3.360  -1.131   5.052  0.00  0.00    -0.082 C 
ATOM      8  N   UNL     1      -3.699  -2.546   5.242  0.00  0.00    +0.379 N 
ATOM      9  C   UNL     1      -4.807  -2.920   4.356  0.00  0.00    -0.082 C 
ATOM     10  C   UNL     1      -4.367  -2.776   2.896  0.00  0.00    -0.010 C 
ATOM     11  C   UNL     1      -6.914  -0.183   0.920  0.00  0.00    +0.219 C 
ATOM     12  O   UNL     1      -7.829  -0.268   1.712  0.00  0.00    -0.275 OA
ATOM     13  H   UNL     1      -2.893  -3.115   5.029  0.00  0.00    -0.086 HD
ATOM     14  H   UNL     1      -3.970  -2.700   6.202  0.00  0.00    -0.086 HD
ENDROOT
BRANCH  11  15
ATOM     15  C   UNL     1      -7.202  -0.019  -0.550  0.00  0.00    +0.078 C 
ATOM     16  C   UNL     1      -6.586   1.291  -1.047  0.00  0.00    +0.032 C 
ATOM     17  C   UNL     1      -6.852   1.438  -2.549  0.00  0.00    +0.112 C 
ATOM     18  N   UNL     1      -8.297   1.322  -2.787  0.00  0.00    -0.267 N 
ATOM     19  C   UNL     1      -9.006   0.143  -2.271  0.00  0.00    +0.112 C 
ATOM     20  C   UNL     1      -8.716   0.011  -0.772  0.00  0.00    +0.032 C 
ATOM     21  C   UNL     1      -8.960   2.279  -3.466  0.00  0.00    +0.403 C 
ATOM     22  O   UNL     1      -8.362   3.249  -3.888  0.00  0.00    -0.226 OA
BRANCH  21  23
ATOM     23  O   UNL     1     -10.284   2.160  -3.678  0.00  0.00    -0.445 OA
BRANCH  23  24
ATOM     24  C   UNL     1     -10.922   3.212  -4.405  0.00  0.00    +0.269 C 
BRANCH  24  25
ATOM     25  C   UNL     1     -12.392   2.908  -4.542  0.00  0.00    -0.010 A 
ATOM     26  C   UNL     1     -12.849   2.185  -5.628  0.00  0.00    +0.007 A 
ATOM     27  C   UNL     1     -14.197   1.906  -5.754  0.00  0.00    +0.000 A 
ATOM     28  C   UNL     1     -15.088   2.349  -4.794  0.00  0.00    +0.000 A 
ATOM     29  C   UNL     1     -14.630   3.071  -3.708  0.00  0.00    +0.000 A 
ATOM     30  C   UNL     1     -13.281   3.347  -3.579  0.00  0.00    +0.007 A 
ENDBRANCH  24  25
ENDBRANCH  23  24
ENDBRANCH  21  23
ENDBRANCH  11  15
BRANCH   1  32
ATOM     31  N   UNL     1      -0.993  -1.516   1.122  0.00  0.00    -0.312 N 
ATOM     32  C   UNL     1      -2.029  -0.655   1.181  0.00  0.00    +0.218 C 
ATOM     33  O   UNL     1      -1.823   0.539   1.225  0.00  0.00    -0.275 OA
ATOM     34  H   UNL     1      -1.158  -2.471   1.086  0.00  0.00    +0.149 HD
BRANCH  31  36
ATOM     35  C   UNL     1       0.784  -0.655  -0.322  0.00  0.00    +0.028 C 
ATOM     36  C   UNL     1       0.381  -1.009   1.111  0.00  0.00    +0.072 C 
BRANCH  36  37
ATOM     37  C   UNL     1       1.325  -2.083   1.656  0.00  0.00    +0.003 C 
ATOM     38  C   UNL     1       2.760  -1.553   1.645  0.00  0.00    +0.009 C 
ATOM     39  C   UNL     1       0.923  -2.436   3.089  0.00  0.00    +0.009 C 
ENDBRANCH  36  37
ENDBRANCH  31  36
ENDBRANCH   1  32
TORSDOF 7
