REMARK  Name = ZINC39671932
REMARK  6 active torsions:
REMARK  status: ('A' for Active; 'I' for Inactive)
REMARK    1  A    between atoms: C_6  and  C_10
REMARK    2  A    between atoms: C_10  and  N_11
REMARK    3  A    between atoms: C_12  and  C_14
REMARK    4  A    between atoms: C_25  and  C_27
REMARK    5  A    between atoms: C_30  and  O_33
REMARK    6  A    between atoms: O_33  and  C_34
REMARK                            x       y       z     vdW  Elec       q    Type
REMARK                         _______ _______ _______ _____ _____    ______ ____
ROOT
ATOM      1  C   UNL     1       5.151  -5.243   2.638  0.00  0.00    +0.100 C 
ATOM      2  C   UNL     1       5.864  -4.385   3.706  0.00  0.00    +0.121 C 
ATOM      3  N   UNL     1       6.574  -5.365   4.561  0.00  0.00    -0.296 N 
ATOM      4  C   UNL     1       7.090  -6.378   3.611  0.00  0.00    +0.115 C 
ATOM      5  C   UNL     1       5.959  -6.550   2.578  0.00  0.00    -0.004 C 
ATOM      6  C   UNL     1       6.545  -6.746   1.182  0.00  0.00    -0.010 C 
ATOM      7  C   UNL     1       7.294  -8.080   1.131  0.00  0.00    -0.082 C 
ATOM      8  N   UNL     1       6.371  -9.175   1.454  0.00  0.00    +0.379 N 
ATOM      9  C   UNL     1       5.885  -9.030   2.831  0.00  0.00    -0.082 C 
ATOM     10  C   UNL     1       5.075  -7.736   2.954  0.00  0.00    -0.010 C 
ATOM     11  C   UNL     1       6.717  -5.340   5.901  0.00  0.00    +0.247 C 
ATOM     12  O   UNL     1       6.125  -4.508   6.561  0.00  0.00    -0.270 OA
ATOM     13  H   UNL     1       5.589  -9.152   0.817  0.00  0.00    -0.086 HD
ATOM     14  H   UNL     1       6.852 -10.057   1.359  0.00  0.00    -0.086 HD
ENDROOT
BRANCH  11  15
ATOM     15  C   UNL     1       7.593  -6.324   6.568  0.00  0.00    +0.037 A 
ATOM     16  C   UNL     1       8.591  -6.979   5.841  0.00  0.00    +0.016 A 
ATOM     17  C   UNL     1       9.406  -7.896   6.467  0.00  0.00    +0.047 A 
ATOM     18  C   UNL     1       9.237  -8.169   7.819  0.00  0.00    +0.130 A 
ATOM     19  C   UNL     1       8.246  -7.520   8.545  0.00  0.00    +0.047 A 
ATOM     20  C   UNL     1       7.430  -6.598   7.928  0.00  0.00    +0.016 A 
BRANCH  18  21
ATOM     21  O   UNL     1      10.043  -9.074   8.432  0.00  0.00    -0.406 OA
BRANCH  21  22
ATOM     22  C   UNL     1       9.815  -9.308   9.823  0.00  0.00    +0.575 C 
ATOM     23  F   UNL     1       8.510  -9.779  10.009  0.00  0.00    -0.133 F 
ATOM     24  F   UNL     1      10.726 -10.261  10.291  0.00  0.00    -0.133 F 
ATOM     25  F   UNL     1       9.985  -8.113  10.531  0.00  0.00    -0.133 F 
ENDBRANCH  21  22
ENDBRANCH  18  21
ENDBRANCH  11  15
BRANCH   1  27
ATOM     26  N   UNL     1       4.180  -4.746   0.417  0.00  0.00    -0.309 N 
ATOM     27  C   UNL     1       5.178  -4.548   1.301  0.00  0.00    +0.219 C 
ATOM     28  O   UNL     1       6.098  -3.809   1.021  0.00  0.00    -0.275 OA
ATOM     29  H   UNL     1       3.445  -5.337   0.642  0.00  0.00    +0.149 HD
BRANCH  26  30
ATOM     30  C   UNL     1       4.207  -4.070  -0.882  0.00  0.00    +0.161 C 
BRANCH  30  36
ATOM     31  C   UNL     1      -0.246  -6.231  -4.265  0.00  0.00    +0.005 A 
ATOM     32  C   UNL     1      -0.913  -5.080  -3.811  0.00  0.00    +0.018 A 
ATOM     33  C   UNL     1      -0.295  -4.220  -2.975  0.00  0.00    +0.092 A 
ATOM     34  N   UNL     1       0.984  -4.453  -2.560  0.00  0.00    -0.306 N 
ATOM     35  C   UNL     1       1.830  -3.763  -1.735  0.00  0.00    +0.117 A 
ATOM     36  C   UNL     1       2.986  -4.459  -1.676  0.00  0.00    +0.077 A 
ATOM     37  N   UNL     1       2.868  -5.548  -2.438  0.00  0.00    -0.231 NA
ATOM     38  C   UNL     1       1.661  -5.567  -2.985  0.00  0.00    +0.138 A 
ATOM     39  C   UNL     1       1.028  -6.475  -3.858  0.00  0.00    +0.047 A 
ENDBRANCH  30  36
ENDBRANCH  26  30
ENDBRANCH   1  27
TORSDOF 6
