REMARK  Name = ZINC39440409
REMARK  5 active torsions:
REMARK  status: ('A' for Active; 'I' for Inactive)
REMARK    1  A    between atoms: C_6  and  C_7
REMARK    2  A    between atoms: C_10  and  C_35
REMARK    3  A    between atoms: C_17  and  C_20
REMARK    4  A    between atoms: N_22  and  C_23
REMARK    5  A    between atoms: C_23  and  C_24
REMARK                            x       y       z     vdW  Elec       q    Type
REMARK                         _______ _______ _______ _____ _____    ______ ____
ROOT
ATOM      1  C   UNL     1      -1.294  -0.774   0.010  0.00  0.00    -0.037 C 
ATOM      2  C   UNL     1      -1.766  -0.945   1.453  0.00  0.00    +0.018 C 
ATOM      3  C   UNL     1      -2.162   0.413   2.056  0.00  0.00    +0.173 C 
ATOM      4  N   UNL     1      -3.144   1.015   1.162  0.00  0.00    -0.245 NA
ATOM      5  C   UNL     1      -2.507   1.255  -0.162  0.00  0.00    +0.019 C 
ATOM      6  N   UNL     1      -2.295  -0.044  -0.790  0.00  0.00    +0.395 N 
ATOM      7  C   UNL     1      -3.538   2.141  -0.873  0.00  0.00    +0.030 C 
ATOM      8  C   UNL     1      -4.270   2.857   0.290  0.00  0.00    +0.155 C 
ATOM      9  N   UNL     1      -3.659   2.321   1.538  0.00  0.00    -0.243 NA
ATOM     10  H   UNL     1      -1.954   0.083  -1.731  0.00  0.00    -0.083 HD
ATOM     11  H   UNL     1      -4.347   2.241   2.272  0.00  0.00    +0.142 HD
ATOM     12  H   UNL     1      -3.162  -0.561  -0.806  0.00  0.00    -0.083 HD
ENDROOT
BRANCH   1  18
ATOM     13  C   UNL     1       0.819  -0.018   1.117  0.00  0.00    +0.006 A 
ATOM     14  C   UNL     1       2.009   0.687   1.114  0.00  0.00    +0.050 A 
ATOM     15  C   UNL     1       2.385   1.409  -0.007  0.00  0.00    +0.166 A 
ATOM     16  C   UNL     1       1.561   1.423  -1.130  0.00  0.00    +0.166 A 
ATOM     17  C   UNL     1       0.370   0.715  -1.120  0.00  0.00    +0.051 A 
ATOM     18  C   UNL     1       0.002  -0.004   0.002  0.00  0.00    -0.058 A 
ATOM     19  O   UNL     1       2.146   2.197  -2.090  0.00  0.00    -0.453 OA
ATOM     20  C   UNL     1       3.132   2.986  -1.399  0.00  0.00    +0.466 C 
ATOM     21  O   UNL     1       3.485   2.175  -0.264  0.00  0.00    -0.453 OA
ENDBRANCH   1  18
BRANCH   8  22
ATOM     22  C   UNL     1      -4.057   4.346   0.201  0.00  0.00    +0.232 C 
ATOM     23  O   UNL     1      -3.225   4.882   0.901  0.00  0.00    -0.274 OA
ATOM     24  N   UNL     1      -4.791   5.081  -0.657  0.00  0.00    -0.308 N 
ATOM     25  H   UNL     1      -5.456   4.652  -1.218  0.00  0.00    +0.149 HD
BRANCH  24  26
ATOM     26  C   UNL     1      -4.584   6.529  -0.744  0.00  0.00    +0.157 C 
BRANCH  26  27
ATOM     27  C   UNL     1      -5.523   7.110  -1.770  0.00  0.00    +0.034 A 
ATOM     28  H   UNL     1      -4.471   6.848  -3.549  0.00  0.00    +0.166 HD
ATOM     29  C   UNL     1      -6.722   7.649  -1.499  0.00  0.00    +0.032 A 
ATOM     30  C   UNL     1      -7.293   8.086  -2.775  0.00  0.00    +0.001 A 
ATOM     31  C   UNL     1      -8.490   8.706  -3.141  0.00  0.00    +0.030 A 
ATOM     32  C   UNL     1      -8.731   8.992  -4.466  0.00  0.00    +0.042 A 
ATOM     33  C   UNL     1      -7.792   8.668  -5.437  0.00  0.00    +0.022 A 
ATOM     34  C   UNL     1      -6.607   8.056  -5.092  0.00  0.00    +0.027 A 
ATOM     35  C   UNL     1      -6.343   7.759  -3.759  0.00  0.00    +0.047 A 
ATOM     36  N   UNL     1      -5.276   7.172  -3.114  0.00  0.00    -0.357 N 
ATOM     37 CL   UNL     1     -10.218   9.762  -4.926  0.00  0.00    -0.084 Cl
ENDBRANCH  26  27
ENDBRANCH  24  26
ENDBRANCH   8  22
BRANCH   3  38
ATOM     38  C   UNL     1      -2.774   0.209   3.443  0.00  0.00    +0.406 C 
ATOM     39  F   UNL     1      -1.840  -0.412   4.278  0.00  0.00    -0.169 F 
ATOM     40  F   UNL     1      -3.130   1.450   3.983  0.00  0.00    -0.169 F 
ATOM     41  F   UNL     1      -3.912  -0.597   3.336  0.00  0.00    -0.169 F 
ENDBRANCH   3  38
TORSDOF 5
