REMARK  Name = ZINC08722573
REMARK  4 active torsions:
REMARK  status: ('A' for Active; 'I' for Inactive)
REMARK    1  A    between atoms: C_4  and  C_7
REMARK    2  A    between atoms: C_7  and  N_55
REMARK    3  A    between atoms: C_18  and  C_21
REMARK    4  A    between atoms: C_24  and  C_26
REMARK                            x       y       z     vdW  Elec       q    Type
REMARK                         _______ _______ _______ _____ _____    ______ ____
ROOT
ATOM      1  C   UNL     1       0.909   5.522   1.453  0.00  0.00    -0.073 C 
ATOM      2  C   UNL     1       0.547   5.940   2.881  0.00  0.00    +0.018 C 
ATOM      3  C   UNL     1       1.617   5.396   3.821  0.00  0.00    -0.027 A 
ATOM      4  C   UNL     1       2.441   4.406   3.407  0.00  0.00    -0.021 A 
ATOM      5  S   UNL     1       3.511   4.095   4.785  0.00  0.00    -0.080 S 
ATOM      6  C   UNL     1       2.880   5.251   5.880  0.00  0.00    +0.080 A 
ATOM      7  C   UNL     1       1.836   5.873   5.175  0.00  0.00    +0.068 A 
ATOM      8  C   UNL     1       1.073   6.929   5.879  0.00  0.00    +0.248 C 
ATOM      9  O   UNL     1       0.051   7.393   5.409  0.00  0.00    -0.270 OA
ATOM     10  N   UNL     1       1.558   7.356   7.064  0.00  0.00    -0.287 N 
ATOM     11  C   UNL     1       2.855   6.956   7.598  0.00  0.00    +0.227 C 
ATOM     12  N   UNL     1       3.218   5.595   7.163  0.00  0.00    -0.314 N 
ATOM     13  C   UNL     1       2.426   3.738   2.069  0.00  0.00    -0.035 C 
ATOM     14  H   UNL     1       1.014   7.964   7.590  0.00  0.00    +0.151 HD
ATOM     15  H   UNL     1       3.672   4.974   7.754  0.00  0.00    +0.149 HD
ATOM     16  N   UNL     1       1.137   4.064   1.412  0.00  0.00    +0.386 N 
ATOM     17  H   UNL     1       0.377   3.592   1.915  0.00  0.00    -0.081 HD
ENDROOT
BRANCH  11  18
ATOM     18  C   UNL     1       3.906   7.924   7.118  0.00  0.00    +0.144 A 
ATOM     19  C   UNL     1       3.697   9.217   6.804  0.00  0.00    +0.049 A 
ATOM     20  C   UNL     1       4.939   9.750   6.405  0.00  0.00    +0.050 A 
ATOM     21  C   UNL     1       5.846   8.742   6.497  0.00  0.00    +0.135 A 
ATOM     22  O   UNL     1       5.206   7.641   6.936  0.00  0.00    -0.456 OA
BRANCH  21  23
ATOM     23  C   UNL     1       7.286   8.838   6.177  0.00  0.00    +0.017 A 
ATOM     24  C   UNL     1       7.825  10.045   5.728  0.00  0.00    +0.012 A 
ATOM     25  C   UNL     1       9.170  10.130   5.434  0.00  0.00    +0.016 A 
ATOM     26  C   UNL     1       9.983   9.018   5.574  0.00  0.00    +0.018 A 
ATOM     27  C   UNL     1       9.454   7.817   6.014  0.00  0.00    +0.016 A 
ATOM     28  C   UNL     1       8.111   7.721   6.316  0.00  0.00    +0.012 A 
ATOM     29 BR   UNL     1      11.825   9.141   5.163  0.00  0.00    -0.050 Br
ENDBRANCH  21  23
ENDBRANCH  11  18
BRANCH  16  30
ATOM     30  C   UNL     1       1.151   3.592   0.010  0.00  0.00    -0.043 C 
BRANCH  30  34
ATOM     31  C   UNL     1       1.208  -0.679  -0.014  0.00  0.00    +0.000 A 
ATOM     32  C   UNL     1       0.002  -0.004   0.002  0.00  0.00    +0.000 A 
ATOM     33  C   UNL     1      -0.017   1.378   0.010  0.00  0.00    +0.002 A 
ATOM     34  C   UNL     1       1.171   2.086   0.002  0.00  0.00    -0.064 A 
ATOM     35  C   UNL     1       2.377   1.411  -0.014  0.00  0.00    +0.002 A 
ATOM     36  C   UNL     1       2.396   0.029  -0.021  0.00  0.00    +0.000 A 
ENDBRANCH  30  34
ENDBRANCH  16  30
TORSDOF 4
