REMARK  Name = ZINC16312655
REMARK  8 active torsions:
REMARK  status: ('A' for Active; 'I' for Inactive)
REMARK    1  A    between atoms: C_1  and  C_2
REMARK    2  A    between atoms: C_5  and  N_9
REMARK    3  A    between atoms: C_7  and  C_8
REMARK    4  A    between atoms: C_10  and  O_27
REMARK    5  A    between atoms: C_11  and  C_15
REMARK    6  A    between atoms: C_12  and  C_14
REMARK    7  A    between atoms: C_17  and  C_26
REMARK    8  A    between atoms: C_18  and  C_24
REMARK                            x       y       z     vdW  Elec       q    Type
REMARK                         _______ _______ _______ _____ _____    ______ ____
ROOT
ATOM      1  N   UNL     1       0.065  -4.222   0.102  0.00  0.00    -0.200 N 
ATOM      2  C   UNL     1      -0.671  -4.977  -0.736  0.00  0.00    +0.223 A 
ATOM      3  C   UNL     1      -0.252  -6.306  -0.573  0.00  0.00    +0.060 A 
ATOM      4  C   UNL     1       0.805  -6.275   0.442  0.00  0.00    +0.071 A 
ATOM      5  N   UNL     1       0.960  -5.034   0.803  0.00  0.00    -0.168 NA
ATOM      6  C   UNL     1       1.575  -7.460   0.966  0.00  0.00    +0.068 C 
ENDROOT
BRANCH   3   7
ATOM      7  C   UNL     1      -0.746  -7.438  -1.247  0.00  0.00    +0.028 C 
ATOM      8  C   UNL     1      -1.355  -8.468  -0.527  0.00  0.00    +0.042 C 
ATOM      9  C   UNL     1      -1.708  -9.675  -1.167  0.00  0.00    -0.016 C 
ATOM     10  C   UNL     1      -2.312 -10.676  -0.419  0.00  0.00    +0.117 C 
ATOM     11  C   UNL     1      -2.567 -10.459   1.006  0.00  0.00    +0.261 C 
ATOM     12  N   UNL     1      -2.224  -9.301   1.598  0.00  0.00    -0.248 N 
ATOM     13  C   UNL     1      -1.631  -8.311   0.907  0.00  0.00    +0.251 C 
ATOM     14  O   UNL     1      -1.328  -7.276   1.472  0.00  0.00    -0.270 OA
ATOM     15  O   UNL     1      -3.096 -11.336   1.663  0.00  0.00    -0.269 OA
ATOM     16  C   UNL     1      -1.435  -9.874  -2.636  0.00  0.00    +0.046 C 
ATOM     17  H   UNL     1      -2.403  -9.180   2.543  0.00  0.00    +0.158 HD
BRANCH  10  18
ATOM     18  C   UNL     1      -2.683 -11.914  -1.037  0.00  0.00    +0.105 C 
ATOM     19  N   UNL     1      -2.978 -12.895  -1.527  0.00  0.00    -0.191 NA
ENDBRANCH  10  18
ENDBRANCH   3   7
BRANCH   1  24
ATOM     20  C   UNL     1      -0.388   1.405   0.681  0.00  0.00    +0.044 C 
ATOM     21  C   UNL     1      -0.268  -0.089   0.527  0.00  0.00    -0.047 A 
ATOM     22  C   UNL     1      -0.458  -0.673  -0.712  0.00  0.00    +0.006 A 
ATOM     23  C   UNL     1      -0.348  -2.042  -0.856  0.00  0.00    +0.028 A 
ATOM     24  C   UNL     1      -0.047  -2.833   0.245  0.00  0.00    +0.069 A 
ATOM     25  C   UNL     1       0.144  -2.244   1.488  0.00  0.00    +0.031 A 
ATOM     26  C   UNL     1       0.038  -0.873   1.624  0.00  0.00    -0.046 A 
ATOM     27  C   UNL     1       0.251  -0.232   2.972  0.00  0.00    +0.044 C 
ENDBRANCH   1  24
BRANCH   2  28
ATOM     28  O   UNL     1      -1.634  -4.537  -1.575  0.00  0.00    -0.492 OA
ATOM     29  H   UNL     1      -1.310  -4.296  -2.454  0.00  0.00    +0.294 HD
ENDBRANCH   2  28
TORSDOF 4
