REMARK  Name = ZINC01890751
REMARK  6 active torsions:
REMARK  status: ('A' for Active; 'I' for Inactive)
REMARK    1  A    between atoms: C_1  and  C_2
REMARK    2  A    between atoms: C_9  and  N_29
REMARK    3  A    between atoms: C_10  and  C_13
REMARK    4  A    between atoms: N_17  and  C_21
REMARK    5  A    between atoms: C_21  and  C_22
REMARK    6  A    between atoms: C_32  and  C_35
REMARK                            x       y       z     vdW  Elec       q    Type
REMARK                         _______ _______ _______ _____ _____    ______ ____
ROOT
ATOM      1  C   UNL     1      -8.323   2.830   0.460  0.00  0.00    +0.047 C 
ATOM      2  C   UNL     1      -7.115   1.975   0.178  0.00  0.00    -0.007 A 
ATOM      3  C   UNL     1      -7.241   0.621   0.075  0.00  0.00    +0.008 A 
ATOM      4  C   UNL     1      -6.108  -0.161  -0.187  0.00  0.00    +0.019 A 
ATOM      5  C   UNL     1      -4.899   0.426  -0.336  0.00  0.00    +0.096 A 
ATOM      6  N   UNL     1      -4.762   1.778  -0.234  0.00  0.00    -0.267 N 
ATOM      7  C   UNL     1      -5.849   2.567   0.021  0.00  0.00    +0.145 A 
ATOM      8  N   UNL     1      -5.736   3.892   0.124  0.00  0.00    -0.213 NA
ATOM      9  C   UNL     1      -4.567   4.502  -0.011  0.00  0.00    +0.136 A 
ATOM     10  C   UNL     1      -3.408   3.737  -0.282  0.00  0.00    +0.081 A 
ATOM     11  C   UNL     1      -3.540   2.332  -0.389  0.00  0.00    +0.267 A 
ATOM     12  O   UNL     1      -2.567   1.634  -0.616  0.00  0.00    -0.267 OA
ENDROOT
BRANCH  10  13
ATOM     13  C   UNL     1      -2.148   4.361  -0.436  0.00  0.00    +0.037 C 
ATOM     14  C   UNL     1      -1.979   5.334  -1.378  0.00  0.00    +0.077 C 
ATOM     15  C   UNL     1      -2.880   5.789  -2.382  0.00  0.00    +0.259 C 
ATOM     16  O   UNL     1      -3.989   5.298  -2.498  0.00  0.00    -0.269 OA
ATOM     17  N   UNL     1      -2.478   6.756  -3.188  0.00  0.00    -0.251 N 
ATOM     18  C   UNL     1      -1.249   7.304  -3.057  0.00  0.00    +0.121 C 
ATOM     19  S   UNL     1      -0.529   8.557  -3.974  0.00  0.00    -0.027 S 
ATOM     20  S   UNL     1      -0.569   6.390  -1.681  0.00  0.00    -0.061 S 
BRANCH  17  21
ATOM     21  C   UNL     1      -3.378   7.244  -4.236  0.00  0.00    +0.151 C 
BRANCH  21  22
ATOM     22  C   UNL     1      -3.106   6.502  -5.519  0.00  0.00    -0.011 A 
ATOM     23  C   UNL     1      -2.215   5.445  -5.530  0.00  0.00    +0.006 A 
ATOM     24  C   UNL     1      -1.965   4.765  -6.707  0.00  0.00    +0.000 A 
ATOM     25  C   UNL     1      -2.605   5.140  -7.873  0.00  0.00    +0.001 A 
ATOM     26  C   UNL     1      -3.496   6.197  -7.863  0.00  0.00    +0.020 A 
ATOM     27  C   UNL     1      -3.751   6.875  -6.684  0.00  0.00    +0.046 A 
ATOM     28 CL   UNL     1      -4.875   8.198  -6.669  0.00  0.00    -0.083 Cl
ENDBRANCH  21  22
ENDBRANCH  17  21
ENDBRANCH  10  13
BRANCH   9  29
ATOM     29  N   UNL     1      -4.483   5.872   0.107  0.00  0.00    -0.314 N 
ATOM     30  C   UNL     1      -3.695   6.252   1.287  0.00  0.00    +0.107 C 
ATOM     31  C   UNL     1      -3.500   7.769   1.305  0.00  0.00    +0.031 C 
ATOM     32  C   UNL     1      -4.869   8.455   1.340  0.00  0.00    +0.078 C 
ATOM     33  C   UNL     1      -5.686   8.006   0.126  0.00  0.00    +0.031 C 
ATOM     34  C   UNL     1      -5.818   6.481   0.142  0.00  0.00    +0.107 C 
BRANCH  32  35
ATOM     35  C   UNL     1      -4.685   9.950   1.298  0.00  0.00    +0.214 C 
ATOM     36  O   UNL     1      -5.162  10.595   0.388  0.00  0.00    -0.276 OA
ATOM     37  N   UNL     1      -3.992  10.572   2.273  0.00  0.00    -0.329 N 
ATOM     38  H   UNL     1      -3.611  10.056   3.001  0.00  0.00    +0.145 HD
ATOM     39  H   UNL     1      -3.874  11.534   2.246  0.00  0.00    +0.145 HD
ENDBRANCH  32  35
ENDBRANCH   9  29
TORSDOF 5
