REMARK  Name = ZINC50630933
REMARK  6 active torsions:
REMARK  status: ('A' for Active; 'I' for Inactive)
REMARK    1  A    between atoms: C_1  and  C_2
REMARK    2  A    between atoms: N_7  and  S_8
REMARK    3  A    between atoms: S_8  and  C_11
REMARK    4  A    between atoms: C_14  and  N_19
REMARK    5  A    between atoms: C_16  and  N_17
REMARK    6  A    between atoms: N_17  and  C_18
REMARK                            x       y       z     vdW  Elec       q    Type
REMARK                         _______ _______ _______ _____ _____    ______ ____
ROOT
ATOM      1  C   UNL     1      -0.907  -1.399   3.214  0.00  0.00    +0.126 A 
ATOM      2  C   UNL     1      -2.217  -1.014   3.422  0.00  0.00    +0.032 A 
ATOM      3  C   UNL     1      -3.165  -1.952   3.785  0.00  0.00    +0.035 A 
ATOM      4  C   UNL     1      -2.806  -3.278   3.942  0.00  0.00    +0.128 A 
ATOM      5  C   UNL     1      -1.498  -3.670   3.737  0.00  0.00    +0.057 A 
ATOM      6  C   UNL     1      -0.543  -2.731   3.365  0.00  0.00    +0.056 A 
ENDROOT
BRANCH   1   7
ATOM      7  S   UNL     1       0.301  -0.203   2.751  0.00  0.00    +0.063 S 
ATOM      8  O   UNL     1       1.420  -0.403   3.604  0.00  0.00    -0.153 OA
ATOM      9  O   UNL     1      -0.375   1.044   2.662  0.00  0.00    -0.153 OA
BRANCH   7  15
ATOM     10  C   UNL     1       0.049   1.342  -0.113  0.00  0.00    +0.026 C 
ATOM     11  C   UNL     1       0.126  -0.184  -0.026  0.00  0.00    +0.077 C 
ATOM     12  C   UNL     1       0.961  -0.735  -1.201  0.00  0.00    +0.021 C 
ATOM     13  C   UNL     1       2.365  -0.927  -0.570  0.00  0.00    +0.019 C 
ATOM     14  C   UNL     1       2.001  -1.369   0.870  0.00  0.00    +0.110 C 
ATOM     15  N   UNL     1       0.801  -0.580   1.218  0.00  0.00    -0.174 NA
ENDBRANCH   7  15
ENDBRANCH   1   7
BRANCH   6  16
ATOM     16  N   UNL     1       0.779  -3.124   3.151  0.00  0.00    -0.345 N 
ATOM     17  C   UNL     1       1.138  -4.544   3.198  0.00  0.00    +0.125 C 
ATOM     18  H   UNL     1       1.460  -2.458   2.970  0.00  0.00    +0.146 HD
ENDBRANCH   6  16
BRANCH   4  19
ATOM     19  N   UNL     1      -3.824  -4.279   4.332  0.00  0.00    +0.056 N 
ATOM     20  O   UNL     1      -4.970  -3.937   4.513  0.00  0.00    -0.126 OA
ATOM     21  O   UNL     1      -3.511  -5.439   4.470  0.00  0.00    -0.126 OA
ENDBRANCH   4  19
TORSDOF 4
