REMARK  Name = ZINC58144668
REMARK  7 active torsions:
REMARK  status: ('A' for Active; 'I' for Inactive)
REMARK    1  A    between atoms: C_1  and  C_2
REMARK    2  A    between atoms: C_4  and  C_29
REMARK    3  A    between atoms: C_7  and  C_12
REMARK    4  A    between atoms: C_12  and  O_14
REMARK    5  A    between atoms: O_14  and  C_15
REMARK    6  A    between atoms: C_15  and  C_16
REMARK    7  A    between atoms: C_16  and  C_18
REMARK                            x       y       z     vdW  Elec       q    Type
REMARK                         _______ _______ _______ _____ _____    ______ ____
ROOT
ATOM      1  O   UNL     1       0.096  -5.556   3.698  0.00  0.00    -0.452 OA
ENDROOT
BRANCH   1   2
ATOM      2  C   UNL     1       0.089  -5.556   2.350  0.00  0.00    +0.356 C 
ATOM      3  O   UNL     1       0.100  -6.609   1.742  0.00  0.00    -0.243 OA
BRANCH   2  10
ATOM      4  C   UNL     1      -0.018   1.503   0.010  0.00  0.00    +0.044 C 
ATOM      5  C   UNL     1       0.002  -0.004   0.002  0.00  0.00    -0.048 A 
ATOM      6  C   UNL     1       0.006  -0.685  -1.209  0.00  0.00    +0.007 A 
ATOM      7  C   UNL     1       0.024  -2.049  -1.239  0.00  0.00    -0.041 A 
ATOM      8  C   UNL     1       0.040  -2.772  -0.039  0.00  0.00    +0.003 A 
ATOM      9  C   UNL     1       0.060  -4.155   0.262  0.00  0.00    +0.043 A 
ATOM     10  C   UNL     1       0.069  -4.284   1.615  0.00  0.00    +0.125 A 
ATOM     11  N   UNL     1       0.055  -3.028   2.190  0.00  0.00    -0.349 N 
ATOM     12  H   UNL     1       0.057  -2.842   3.142  0.00  0.00    +0.166 HD
ATOM     13  C   UNL     1       0.037  -2.084   1.190  0.00  0.00    +0.048 A 
ATOM     14  C   UNL     1       0.023  -0.692   1.194  0.00  0.00    +0.029 A 
ATOM     15  C   UNL     1       0.027  -2.776  -2.559  0.00  0.00    +0.044 C 
ENDBRANCH   2  10
ENDBRANCH   1   2
BRANCH   1  16
ATOM     16  C   UNL     1       0.116  -6.830   4.347  0.00  0.00    +0.311 C 
BRANCH  16  17
ATOM     17  C   UNL     1       0.121  -6.632   5.841  0.00  0.00    +0.200 C 
ATOM     18  O   UNL     1       0.109  -5.511   6.304  0.00  0.00    -0.288 OA
BRANCH  17  19
ATOM     19  C   UNL     1       0.141  -7.797   6.735  0.00  0.00    +0.023 A 
ATOM     20  C   UNL     1       0.161  -9.091   6.202  0.00  0.00    +0.015 A 
ATOM     21  C   UNL     1       0.179 -10.183   7.041  0.00  0.00    +0.048 A 
ATOM     22  C   UNL     1       0.179 -10.004   8.417  0.00  0.00    +0.142 A 
ATOM     23  C   UNL     1       0.159  -8.715   8.957  0.00  0.00    +0.076 A 
ATOM     24  C   UNL     1       0.145  -7.615   8.124  0.00  0.00    +0.038 A 
ATOM     25  N   UNL     1       0.158  -8.556  10.351  0.00  0.00    -0.280 N 
ATOM     26  C   UNL     1       0.493  -9.609  11.129  0.00  0.00    +0.255 C 
ATOM     27  O   UNL     1       0.470  -9.504  12.338  0.00  0.00    -0.272 OA
ATOM     28  C   UNL     1       0.894 -10.914  10.490  0.00  0.00    +0.325 C 
ATOM     29  O   UNL     1       0.198 -11.076   9.251  0.00  0.00    -0.481 OA
ATOM     30  H   UNL     1      -0.079  -7.704  10.749  0.00  0.00    +0.155 HD
ENDBRANCH  17  19
ENDBRANCH  16  17
ENDBRANCH   1  16
TORSDOF 5
