REMARK  Name = ZINC39533350
REMARK  14 active torsions:
REMARK  status: ('A' for Active; 'I' for Inactive)
REMARK    1  A    between atoms: C_1  and  C_2
REMARK    2  A    between atoms: C_2  and  C_3
REMARK    3  A    between atoms: C_2  and  C_4
REMARK    4  A    between atoms: C_4  and  C_5
REMARK    5  A    between atoms: C_8  and  C_11
REMARK    6  A    between atoms: C_11  and  C_13
REMARK    7  A    between atoms: C_11  and  N_21
REMARK    8  A    between atoms: C_13  and  N_14
REMARK    9  A    between atoms: N_14  and  S_15
REMARK   10  A    between atoms: S_15  and  C_18
REMARK   11  A    between atoms: C_18  and  C_19
REMARK   12  A    between atoms: C_18  and  C_20
REMARK   13  A    between atoms: C_25  and  C_28
REMARK   14  A    between atoms: C_33  and  O_34
REMARK                            x       y       z     vdW  Elec       q    Type
REMARK                         _______ _______ _______ _____ _____    ______ ____
ROOT
ATOM      1  C   UNL     1      -1.286  -6.180  -0.407  0.00  0.00    +0.102 C 
ENDROOT
BRANCH   1   2
ATOM      2  N   UNL     1      -2.026  -6.689   0.756  0.00  0.00    -0.297 NA
ATOM      3  C   UNL     1      -1.942  -8.155   0.833  0.00  0.00    +0.066 C 
ATOM      4  C   UNL     1      -2.673  -8.639   2.087  0.00  0.00    -0.066 C 
ATOM      5  N   UNL     1      -4.078  -8.214   2.030  0.00  0.00    +0.385 N 
ATOM      6  C   UNL     1      -4.146  -6.748   1.978  0.00  0.00    -0.023 C 
ATOM      7  C   UNL     1      -3.427  -6.248   0.723  0.00  0.00    +0.074 C 
ATOM      8  H   UNL     1      -4.512  -8.600   1.205  0.00  0.00    -0.085 HD
ATOM      9  H   UNL     1      -4.562  -8.545   2.851  0.00  0.00    -0.085 HD
BRANCH   6  10
ATOM     10  C   UNL     1      -5.588  -6.313   1.938  0.00  0.00    -0.019 A 
ATOM     11  C   UNL     1      -6.568  -7.205   1.547  0.00  0.00    +0.005 A 
ATOM     12  C   UNL     1      -7.892  -6.807   1.509  0.00  0.00    +0.000 A 
ATOM     13  C   UNL     1      -8.238  -5.516   1.863  0.00  0.00    +0.004 A 
ATOM     14  C   UNL     1      -7.262  -4.620   2.254  0.00  0.00    +0.045 A 
ATOM     15  C   UNL     1      -5.933  -5.019   2.298  0.00  0.00    +0.118 A 
BRANCH  15  16
ATOM     16  O   UNL     1      -4.972  -4.142   2.688  0.00  0.00    -0.507 OA
ATOM     17  H   UNL     1      -4.591  -3.627   1.964  0.00  0.00    +0.292 HD
ENDBRANCH  15  16
ENDBRANCH   6  10
ENDBRANCH   1   2
BRANCH   1  21
ATOM     18  C   UNL     1      -1.412  -1.910  -0.414  0.00  0.00    -0.047 A 
ATOM     19  C   UNL     1      -1.536  -2.608  -1.601  0.00  0.00    +0.004 A 
ATOM     20  C   UNL     1      -1.496  -3.989  -1.599  0.00  0.00    +0.005 A 
ATOM     21  C   UNL     1      -1.330  -4.674  -0.409  0.00  0.00    -0.029 A 
ATOM     22  C   UNL     1      -1.204  -3.977   0.778  0.00  0.00    +0.005 A 
ATOM     23  C   UNL     1      -1.241  -2.595   0.775  0.00  0.00    +0.004 A 
BRANCH  18  24
ATOM     24  C   UNL     1      -1.457  -0.404  -0.416  0.00  0.00    +0.038 C 
BRANCH  24  26
ATOM     25  C   UNL     1      -0.101   1.671  -0.727  0.00  0.00    +0.007 C 
ATOM     26  C   UNL     1      -0.042   0.148  -0.599  0.00  0.00    -0.013 C 
ATOM     27  C   UNL     1       0.813  -0.230   0.613  0.00  0.00    +0.007 C 
ENDBRANCH  24  26
ENDBRANCH  18  24
ENDBRANCH   1  21
BRANCH   1  28
ATOM     28  C   UNL     1       0.169  -6.648  -0.330  0.00  0.00    +0.129 C 
BRANCH  28  29
ATOM     29  N   UNL     1       0.887  -6.206  -1.528  0.00  0.00    -0.192 NA
ATOM     30  H   UNL     1       0.393  -5.914  -2.310  0.00  0.00    +0.148 HD
BRANCH  29  31
ATOM     31  S   UNL     1       2.543  -6.205  -1.547  0.00  0.00    +0.032 S 
ATOM     32  O   UNL     1       2.891  -5.703  -2.830  0.00  0.00    -0.158 OA
ATOM     33  O   UNL     1       2.919  -5.504  -0.369  0.00  0.00    -0.158 OA
BRANCH  31  34
ATOM     34  C   UNL     1       3.013  -7.951  -1.411  0.00  0.00    +0.142 C 
ATOM     35  C   UNL     1       2.434  -8.729  -2.594  0.00  0.00    +0.033 C 
ATOM     36  C   UNL     1       4.538  -8.072  -1.418  0.00  0.00    +0.033 C 
ENDBRANCH  31  34
ENDBRANCH  29  31
ENDBRANCH  28  29
ENDBRANCH   1  28
TORSDOF 10
