REMARK  Name = ZINC22816455
REMARK  10 active torsions:
REMARK  status: ('A' for Active; 'I' for Inactive)
REMARK    1  A    between atoms: C_1  and  C_2
REMARK    2  A    between atoms: N_9  and  C_10
REMARK    3  A    between atoms: C_10  and  C_11
REMARK    4  A    between atoms: C_11  and  N_12
REMARK    5  A    between atoms: N_15  and  C_18
REMARK    6  A    between atoms: C_18  and  C_19
REMARK    7  A    between atoms: C_19  and  C_20
REMARK    8  A    between atoms: C_19  and  C_21
REMARK    9  A    between atoms: N_22  and  C_29
REMARK   10  A    between atoms: N_25  and  C_28
REMARK                            x       y       z     vdW  Elec       q    Type
REMARK                         _______ _______ _______ _____ _____    ______ ____
ROOT
ATOM      1  C   UNL     1      -1.305  -1.117   2.746  0.00  0.00    +0.065 C 
ATOM      2  C   UNL     1      -0.263  -0.093   3.118  0.00  0.00    +0.035 A 
ATOM      3  C   UNL     1       0.585  -0.178   4.139  0.00  0.00    +0.116 A 
ATOM      4  N   UNL     1       1.373   0.959   4.146  0.00  0.00    -0.277 N 
ATOM      5  C   UNL     1       2.402   1.621   4.798  0.00  0.00    +0.157 A 
ATOM      6  C   UNL     1       2.607   2.811   4.100  0.00  0.00    +0.170 A 
ATOM      7  N   UNL     1       1.739   2.837   3.092  0.00  0.00    -0.193 NA
ATOM      8  C   UNL     1       0.997   1.739   3.106  0.00  0.00    +0.218 A 
ATOM      9  N   UNL     1      -0.020   1.094   2.454  0.00  0.00    -0.313 N 
ATOM     10  N   UNL     1       3.592   3.682   4.540  0.00  0.00    -0.280 N 
ATOM     11  C   UNL     1       4.331   3.372   5.622  0.00  0.00    +0.333 A 
ATOM     12  O   UNL     1       5.192   4.146   5.993  0.00  0.00    -0.246 OA
ATOM     13  N   UNL     1       4.140   2.228   6.301  0.00  0.00    -0.262 N 
ATOM     14  C   UNL     1       3.197   1.342   5.922  0.00  0.00    +0.283 A 
ATOM     15  O   UNL     1       3.036   0.308   6.548  0.00  0.00    -0.265 OA
ATOM     16  C   UNL     1       4.971   1.939   7.473  0.00  0.00    +0.157 C 
ATOM     17  C   UNL     1       3.830   4.939   3.826  0.00  0.00    +0.155 C 
ENDROOT
BRANCH   9  18
ATOM     18  C   UNL     1      -0.729   1.579   1.267  0.00  0.00    +0.140 C 
BRANCH  18  19
ATOM     19  C   UNL     1      -0.013   1.086   0.008  0.00  0.00    +0.106 C 
BRANCH  19  20
ATOM     20  N   UNL     1      -0.723   1.572  -1.182  0.00  0.00    -0.304 NA
ATOM     21  C   UNL     1      -2.058   0.966  -1.283  0.00  0.00    +0.066 C 
ATOM     22  C   UNL     1      -2.794   1.557  -2.488  0.00  0.00    -0.063 C 
ATOM     23  N   UNL     1      -2.012   1.308  -3.707  0.00  0.00    +0.381 N 
ATOM     24  C   UNL     1      -0.677   1.914  -3.606  0.00  0.00    -0.063 C 
ATOM     25  C   UNL     1       0.059   1.323  -2.401  0.00  0.00    +0.066 C 
ATOM     26  H   UNL     1      -1.885   0.220  -3.812  0.00  0.00    -0.082 HD
BRANCH  23  27
ATOM     27  C   UNL     1      -2.723   1.794  -4.897  0.00  0.00    -0.076 C 
BRANCH  27  28
ATOM     28  C   UNL     1      -3.992   0.967  -5.107  0.00  0.00    -0.034 C 
ATOM     29  C   UNL     1      -4.795   1.551  -6.271  0.00  0.00    +0.005 C 
ATOM     30  C   UNL     1      -3.610  -0.480  -5.427  0.00  0.00    +0.005 C 
ENDBRANCH  27  28
ENDBRANCH  23  27
ENDBRANCH  19  20
ENDBRANCH  18  19
ENDBRANCH   9  18
TORSDOF 5
