REMARK  Name = ZINC06445083
REMARK  9 active torsions:
REMARK  status: ('A' for Active; 'I' for Inactive)
REMARK    1  A    between atoms: C_12  and  C_13
REMARK    2  A    between atoms: C_13  and  N_14
REMARK    3  A    between atoms: N_14  and  C_15
REMARK    4  A    between atoms: N_14  and  C_21
REMARK    5  A    between atoms: C_21  and  N_23
REMARK    6  A    between atoms: N_23  and  C_24
REMARK    7  A    between atoms: C_24  and  C_25
REMARK    8  A    between atoms: C_25  and  C_26
REMARK    9  A    between atoms: C_26  and  N_71
REMARK                            x       y       z     vdW  Elec       q    Type
REMARK                         _______ _______ _______ _____ _____    ______ ____
ROOT
ATOM      1  N   UNL     1      -5.508   3.965  -1.329  0.00  0.00    -0.305 N 
ENDROOT
BRANCH   1   2
ATOM      2  C   UNL     1      -6.367   3.028  -2.058  0.00  0.00    +0.075 C 
ATOM      3  C   UNL     1      -5.704   2.656  -3.386  0.00  0.00    +0.022 C 
ATOM      4  C   UNL     1      -6.601   1.677  -4.147  0.00  0.00    +0.002 C 
ATOM      5  C   UNL     1      -7.956   2.333  -4.419  0.00  0.00    +0.000 C 
ATOM      6  C   UNL     1      -8.619   2.704  -3.091  0.00  0.00    +0.002 C 
ATOM      7  C   UNL     1      -7.722   3.683  -2.329  0.00  0.00    +0.022 C 
ENDBRANCH   1   2
BRANCH   1   8
ATOM      8  C   UNL     1      -5.102   5.106  -1.921  0.00  0.00    +0.133 C 
ATOM      9  S   UNL     1      -4.002   6.142  -1.116  0.00  0.00    -0.019 S 
BRANCH   8  10
ATOM     10  N   UNL     1      -5.561   5.431  -3.145  0.00  0.00    -0.326 N 
ATOM     11  H   UNL     1      -6.238   4.881  -3.571  0.00  0.00    +0.148 HD
BRANCH  10  12
ATOM     12  C   UNL     1      -5.039   6.614  -3.834  0.00  0.00    +0.101 C 
BRANCH  12  13
ATOM     13  C   UNL     1      -5.722   6.754  -5.196  0.00  0.00    +0.000 C 
BRANCH  13  14
ATOM     14  C   UNL     1      -5.176   7.990  -5.915  0.00  0.00    -0.077 C 
BRANCH  14  20
ATOM     15  C   UNL     1      -5.461   7.017  -8.114  0.00  0.00    -0.050 C 
ATOM     16  C   UNL     1      -6.211   7.165  -9.441  0.00  0.00    +0.141 C 
ATOM     17  O   UNL     1      -5.914   8.442 -10.011  0.00  0.00    -0.383 OA
ATOM     18  C   UNL     1      -6.262   9.544  -9.169  0.00  0.00    +0.141 C 
ATOM     19  C   UNL     1      -5.513   9.420  -7.840  0.00  0.00    -0.050 C 
ATOM     20  N   UNL     1      -5.859   8.124  -7.220  0.00  0.00    +0.383 N 
ATOM     21  H   UNL     1      -6.874   8.085  -7.071  0.00  0.00    -0.082 HD
ENDBRANCH  14  20
ENDBRANCH  13  14
ENDBRANCH  12  13
ENDBRANCH  10  12
ENDBRANCH   8  10
ENDBRANCH   1   8
BRANCH   1  22
ATOM     22  C   UNL     1      -5.091   3.662   0.042  0.00  0.00    +0.147 C 
BRANCH  22  34
ATOM     23  C   UNL     1      -2.616   3.546   0.145  0.00  0.00    +0.020 A 
ATOM     24  C   UNL     1      -1.378   2.770   0.116  0.00  0.00    +0.003 A 
ATOM     25  C   UNL     1      -0.130   3.392   0.245  0.00  0.00    +0.059 A 
ATOM     26  C   UNL     1       1.021   2.634   0.213  0.00  0.00    +0.163 A 
ATOM     27  C   UNL     1       0.946   1.247   0.054  0.00  0.00    +0.164 A 
ATOM     28  C   UNL     1      -0.283   0.623  -0.075  0.00  0.00    +0.075 A 
ATOM     29  C   UNL     1      -1.452   1.373  -0.051  0.00  0.00    +0.053 A 
ATOM     30  N   UNL     1      -2.685   0.766  -0.174  0.00  0.00    -0.322 N 
ATOM     31  H   UNL     1      -2.736  -0.196  -0.286  0.00  0.00    +0.169 HD
ATOM     32  C   UNL     1      -3.818   1.490  -0.145  0.00  0.00    +0.254 A 
ATOM     33  O   UNL     1      -4.890   0.921  -0.260  0.00  0.00    -0.268 OA
ATOM     34  C   UNL     1      -3.797   2.890   0.015  0.00  0.00    +0.035 A 
ATOM     35  O   UNL     1       2.076   0.491   0.026  0.00  0.00    -0.485 OA
ATOM     36  C   UNL     1       3.307   1.180  -0.218  0.00  0.00    +0.270 C 
ATOM     37  C   UNL     1       3.345   2.428   0.675  0.00  0.00    +0.270 C 
ATOM     38  O   UNL     1       2.227   3.255   0.337  0.00  0.00    -0.485 OA
ENDBRANCH  22  34
ENDBRANCH   1  22
TORSDOF 9
