REMARK  Name = ZINC01470867
REMARK  8 active torsions:
REMARK  status: ('A' for Active; 'I' for Inactive)
REMARK    1  A    between atoms: C_1  and  C_2
REMARK    2  A    between atoms: C_2  and  N_3
REMARK    3  A    between atoms: N_11  and  C_12
REMARK    4  A    between atoms: C_12  and  C_25
REMARK    5  A    between atoms: C_17  and  C_21
REMARK    6  A    between atoms: C_21  and  C_22
REMARK    7  A    between atoms: C_21  and  C_23
REMARK    8  A    between atoms: C_21  and  C_24
REMARK                            x       y       z     vdW  Elec       q    Type
REMARK                         _______ _______ _______ _____ _____    ______ ____
ROOT
ATOM      1  C   UNL     1      -1.290   1.681   0.025  0.00  0.00    +0.385 C 
ATOM      2  O   UNL     1      -1.384   2.577  -1.098  0.00  0.00    -0.429 OA
ATOM      3  C   UNL     1      -0.892   3.771  -0.654  0.00  0.00    +0.169 A 
ATOM      4  C   UNL     1      -0.446   4.891  -1.336  0.00  0.00    +0.050 A 
ATOM      5  C   UNL     1       0.011   5.991  -0.635  0.00  0.00    +0.008 A 
ATOM      6  C   UNL     1       0.023   5.978   0.748  0.00  0.00    -0.038 A 
ATOM      7  C   UNL     1      -0.421   4.863   1.435  0.00  0.00    +0.053 A 
ATOM      8  C   UNL     1      -0.880   3.757   0.739  0.00  0.00    +0.169 A 
ATOM      9  O   UNL     1      -1.366   2.552   1.169  0.00  0.00    -0.429 OA
ENDROOT
BRANCH   1  18
ATOM     10  N   UNL     1       4.514  -0.271   1.245  0.00  0.00    +0.382 N 
ATOM     11  C   UNL     1       3.204  -0.934   1.278  0.00  0.00    -0.059 C 
ATOM     12  C   UNL     1       2.369  -0.469   0.081  0.00  0.00    +0.091 C 
ATOM     13  N   UNL     1       2.322   1.001   0.087  0.00  0.00    -0.289 N 
ATOM     14  C   UNL     1       3.591   1.738   0.184  0.00  0.00    +0.091 C 
ATOM     15  C   UNL     1       4.378   1.185   1.384  0.00  0.00    -0.059 C 
ATOM     16  C   UNL     1       1.147   1.655   0.000  0.00  0.00    +0.308 C 
ATOM     17  O   UNL     1       1.131   2.868  -0.085  0.00  0.00    -0.252 OA
ATOM     18  N   UNL     1      -0.011   0.966   0.007  0.00  0.00    -0.224 N 
ATOM     19  H   UNL     1       0.004  -0.134  -0.001  0.00  0.00    +0.158 HD
ATOM     20  H   UNL     1       4.966  -0.472   0.262  0.00  0.00    -0.082 HD
BRANCH  10  22
ATOM     21  C   UNL     1       6.826  -0.287   2.054  0.00  0.00    -0.017 C 
ATOM     22  C   UNL     1       5.408  -0.816   2.276  0.00  0.00    -0.082 C 
ENDBRANCH  10  22
ENDBRANCH   1  18
BRANCH   6  23
ATOM     23  C   UNL     1       0.523   7.179   1.507  0.00  0.00    -0.013 C 
ATOM     24  C   UNL     1       1.719   6.776   2.372  0.00  0.00    +0.015 C 
ATOM     25  C   UNL     1       0.952   8.265   0.518  0.00  0.00    +0.015 C 
ATOM     26  C   UNL     1      -0.595   7.718   2.402  0.00  0.00    +0.015 C 
ENDBRANCH   6  23
BRANCH   1  27
ATOM     27  C   UNL     1      -2.457   0.692   0.024  0.00  0.00    +0.288 C 
ATOM     28 CL   UNL     1      -2.354  -0.361   1.484  0.00  0.00    -0.073 Cl
ATOM     29 CL   UNL     1      -4.014   1.601   0.046  0.00  0.00    -0.073 Cl
ATOM     30 CL   UNL     1      -2.378  -0.329  -1.460  0.00  0.00    -0.073 Cl
ENDBRANCH   1  27
TORSDOF 4
