REMARK  Name = ZINC22024877
REMARK  5 active torsions:
REMARK  status: ('A' for Active; 'I' for Inactive)
REMARK    1  A    between atoms: C_1  and  C_2
REMARK    2  A    between atoms: C_5  and  S_8
REMARK    3  A    between atoms: N_6  and  N_7
REMARK    4  A    between atoms: S_8  and  C_9
REMARK    5  A    between atoms: C_17  and  C_19
REMARK                            x       y       z     vdW  Elec       q    Type
REMARK                         _______ _______ _______ _____ _____    ______ ____
ROOT
ATOM      1  C   UNL     1       2.337   3.931   0.001  0.00  0.00    +0.116 A 
ATOM      2  C   UNL     1       1.146   3.163   0.008  0.00  0.00    +0.033 A 
ATOM      3  C   UNL     1       1.165   1.765   0.000  0.00  0.00    +0.012 A 
ATOM      4  C   UNL     1      -0.013   1.076   0.008  0.00  0.00    +0.001 A 
ATOM      5  C   UNL     1      -1.233   1.746   0.017  0.00  0.00    +0.002 A 
ATOM      6  C   UNL     1      -1.286   3.108   0.030  0.00  0.00    +0.028 A 
ATOM      7  C   UNL     1      -0.095   3.847   0.023  0.00  0.00    +0.076 A 
ATOM      8  N   UNL     1      -0.093   5.187   0.030  0.00  0.00    -0.227 NA
ATOM      9  C   UNL     1       1.046   5.855   0.024  0.00  0.00    +0.163 A 
ATOM     10  N   UNL     1       2.233   5.252   0.010  0.00  0.00    -0.220 NA
ENDROOT
BRANCH   9  11
ATOM     11  C   UNL     1       1.002   7.337   0.033  0.00  0.00    +0.037 A 
ATOM     12  C   UNL     1       2.184   8.083   0.032  0.00  0.00    +0.014 A 
ATOM     13  C   UNL     1       2.088   9.464   0.034  0.00  0.00    +0.020 A 
ATOM     14  C   UNL     1       0.838  10.056   0.048  0.00  0.00    +0.111 A 
ATOM     15  N   UNL     1      -0.260   9.325   0.054  0.00  0.00    -0.263 NA
ATOM     16  C   UNL     1      -0.219   8.008   0.047  0.00  0.00    +0.122 A 
ENDBRANCH   9  11
BRANCH   1  17
ATOM     17  S   UNL     1       3.916   3.149  -0.017  0.00  0.00    -0.028 S 
BRANCH  17  22
ATOM     18  C   UNL     1       8.103   6.421  -0.036  0.00  0.00    +0.090 C 
ATOM     19  C   UNL     1       6.693   5.888  -0.026  0.00  0.00    +0.148 A 
ATOM     20  N   UNL     1       5.599   6.596  -0.012  0.00  0.00    -0.132 NA
ATOM     21  N   UNL     1       4.573   5.822  -0.007  0.00  0.00    -0.121 NA
ATOM     22  C   UNL     1       4.961   4.569  -0.018  0.00  0.00    +0.214 A 
ATOM     23  N   UNL     1       6.326   4.572  -0.025  0.00  0.00    -0.228 N 
BRANCH  23  24
ATOM     24  N   UNL     1       7.153   3.485  -0.031  0.00  0.00    -0.295 N 
ATOM     25  H   UNL     1       6.728   2.470  -0.028  0.00  0.00    +0.163 HD
ATOM     26  H   UNL     1       8.244   3.624  -0.038  0.00  0.00    +0.163 HD
ENDBRANCH  23  24
ENDBRANCH  17  22
ENDBRANCH   1  17
TORSDOF 4
