REMARK  Name = ZINC18276848
REMARK  3 active torsions:
REMARK  status: ('A' for Active; 'I' for Inactive)
REMARK    1  A    between atoms: C_5  and  C_7
REMARK    2  A    between atoms: N_15  and  C_18
REMARK    3  A    between atoms: C_21  and  N_24
REMARK                            x       y       z     vdW  Elec       q    Type
REMARK                         _______ _______ _______ _____ _____    ______ ____
ROOT
ATOM      1  C   UNL     1       1.342  -1.948  -0.292  0.00  0.00    +0.164 C 
ATOM      2  C   UNL     1       1.278  -2.713  -1.632  0.00  0.00    +0.125 C 
ATOM      3  C   UNL     1       0.444  -3.983  -1.297  0.00  0.00    +0.138 C 
ATOM      4  C   UNL     1       1.441  -5.108  -1.466  0.00  0.00    +0.234 C 
ATOM      5  O   UNL     1       1.203  -6.285  -1.299  0.00  0.00    -0.274 OA
ATOM      6  N   UNL     1       2.625  -4.602  -1.828  0.00  0.00    -0.210 N 
ATOM      7  C   UNL     1       2.651  -3.254  -1.960  0.00  0.00    +0.233 C 
ATOM      8  O   UNL     1       3.609  -2.584  -2.283  0.00  0.00    -0.274 OA
ATOM      9  C   UNL     1       0.091  -3.804   0.187  0.00  0.00    +0.206 C 
ATOM     10  O   UNL     1       0.193  -2.403   0.458  0.00  0.00    -0.348 OA
ATOM     11  C   UNL     1      -1.283  -4.334   0.484  0.00  0.00    +0.204 C 
ATOM     12  O   UNL     1      -2.322  -3.972  -0.026  0.00  0.00    -0.288 OA
ATOM     13  C   UNL     1      -1.128  -5.378   1.516  0.00  0.00    +0.031 A 
ATOM     14  C   UNL     1      -2.079  -6.186   2.145  0.00  0.00    +0.012 A 
ATOM     15  C   UNL     1      -1.684  -7.106   3.097  0.00  0.00    +0.001 A 
ATOM     16  C   UNL     1      -0.348  -7.237   3.435  0.00  0.00    +0.001 A 
ATOM     17  C   UNL     1       0.608  -6.449   2.823  0.00  0.00    +0.012 A 
ATOM     18  C   UNL     1       0.232  -5.513   1.857  0.00  0.00    +0.031 A 
ATOM     19  C   UNL     1       1.042  -4.567   1.066  0.00  0.00    +0.204 C 
ATOM     20  O   UNL     1       2.246  -4.432   1.115  0.00  0.00    -0.288 OA
ENDROOT
BRANCH   1  25
ATOM     21  C   UNL     1      -0.051   1.537  -0.703  0.00  0.00    +0.000 A 
ATOM     22  C   UNL     1       1.095   2.263  -0.975  0.00  0.00    +0.001 A 
ATOM     23  C   UNL     1       2.320   1.626  -1.026  0.00  0.00    +0.020 A 
ATOM     24  C   UNL     1       2.401   0.263  -0.805  0.00  0.00    +0.047 A 
ATOM     25  C   UNL     1       1.255  -0.463  -0.533  0.00  0.00    +0.000 A 
ATOM     26  C   UNL     1       0.029   0.175  -0.482  0.00  0.00    +0.007 A 
ATOM     27 CL   UNL     1       3.940  -0.538  -0.870  0.00  0.00    -0.083 Cl
ENDBRANCH   1  25
BRANCH   6  28
ATOM     28  C   UNL     1       3.752  -5.403  -2.061  0.00  0.00    +0.044 A 
ATOM     29  C   UNL     1       4.845  -5.331  -1.209  0.00  0.00    +0.026 A 
ATOM     30  C   UNL     1       5.954  -6.121  -1.441  0.00  0.00    +0.034 A 
ATOM     31  C   UNL     1       5.975  -6.985  -2.521  0.00  0.00    +0.126 A 
ATOM     32  C   UNL     1       4.888  -7.059  -3.372  0.00  0.00    +0.034 A 
ATOM     33  C   UNL     1       3.774  -6.275  -3.142  0.00  0.00    +0.026 A 
BRANCH  31  34
ATOM     34  N   UNL     1       7.164  -7.831  -2.766  0.00  0.00    +0.056 N 
ATOM     35  O   UNL     1       8.116  -7.767  -2.023  0.00  0.00    -0.126 OA
ATOM     36  O   UNL     1       7.184  -8.586  -3.710  0.00  0.00    -0.126 OA
ENDBRANCH  31  34
ENDBRANCH   6  28
TORSDOF 3
