REMARK  Name = ZINC38651504
REMARK  11 active torsions:
REMARK  status: ('A' for Active; 'I' for Inactive)
REMARK    1  A    between atoms: C_1  and  C_2
REMARK    2  A    between atoms: C_2  and  C_3
REMARK    3  A    between atoms: C_3  and  C_4
REMARK    4  A    between atoms: C_4  and  O_5
REMARK    5  A    between atoms: O_5  and  C_6
REMARK    6  A    between atoms: C_9  and  C_12
REMARK    7  A    between atoms: C_12  and  O_14
REMARK    8  A    between atoms: O_14  and  C_15
REMARK    9  A    between atoms: C_22  and  N_35
REMARK   10  A    between atoms: C_23  and  C_33
REMARK   11  A    between atoms: C_24  and  C_26
REMARK                            x       y       z     vdW  Elec       q    Type
REMARK                         _______ _______ _______ _____ _____    ______ ____
ROOT
ATOM      1  C   UNL     1       2.601  -9.936   4.068  0.00  0.00    +0.135 A 
ATOM      2  C   UNL     1       2.081 -10.659   3.003  0.00  0.00    +0.047 A 
ATOM      3  C   UNL     1       2.147 -12.038   3.007  0.00  0.00    +0.012 A 
ATOM      4  C   UNL     1       2.731 -12.705   4.070  0.00  0.00    +0.008 A 
ATOM      5  C   UNL     1       3.252 -11.988   5.136  0.00  0.00    +0.138 A 
ATOM      6  C   UNL     1       3.190 -10.601   5.131  0.00  0.00    +0.093 A 
ATOM      7  O   UNL     1       3.827 -12.624   6.187  0.00  0.00    -0.441 OA
ATOM      8  C   UNL     1       4.248 -13.892   6.054  0.00  0.00    +0.199 C 
ATOM      9  C   UNL     1       3.796 -14.697   5.063  0.00  0.00    +0.098 C 
ATOM     10  C   UNL     1       2.793 -14.209   4.056  0.00  0.00    +0.098 C 
ENDROOT
BRANCH  10  11
ATOM     11  C   UNL     1       1.435 -14.768   4.393  0.00  0.00    -0.034 A 
ATOM     12  C   UNL     1       0.843 -14.463   5.605  0.00  0.00    +0.004 A 
ATOM     13  C   UNL     1      -0.403 -14.976   5.914  0.00  0.00    +0.001 A 
ATOM     14  C   UNL     1      -1.058 -15.793   5.012  0.00  0.00    +0.015 A 
ATOM     15  C   UNL     1      -0.466 -16.099   3.800  0.00  0.00    +0.018 A 
ATOM     16  C   UNL     1       0.779 -15.581   3.488  0.00  0.00    +0.020 A 
ATOM     17 BR   UNL     1      -1.361 -17.218   2.566  0.00  0.00    -0.050 Br
ENDBRANCH  10  11
BRANCH   8  18
ATOM     18  N   UNL     1       5.163 -14.387   6.949  0.00  0.00    -0.328 N 
ATOM     19  H   UNL     1       5.497 -13.823   7.664  0.00  0.00    +0.145 HD
ATOM     20  H   UNL     1       5.477 -15.302   6.866  0.00  0.00    +0.145 HD
ENDBRANCH   8  18
BRANCH   9  21
ATOM     21  C   UNL     1       4.283 -16.041   4.974  0.00  0.00    +0.101 C 
ATOM     22  N   UNL     1       4.670 -17.107   4.903  0.00  0.00    -0.191 NA
ENDBRANCH   9  21
BRANCH   1  23
ATOM     23  O   UNL     1       2.537  -8.579   4.065  0.00  0.00    -0.422 OA
BRANCH  23  24
ATOM     24  C   UNL     1       3.657  -7.893   3.763  0.00  0.00    +0.344 C 
ATOM     25  O   UNL     1       4.704  -8.485   3.592  0.00  0.00    -0.245 OA
BRANCH  24  29
ATOM     26  C   UNL     1       3.528  -3.664   3.409  0.00  0.00    +0.121 A 
ATOM     27  C   UNL     1       4.727  -4.340   3.213  0.00  0.00    +0.046 A 
ATOM     28  C   UNL     1       4.773  -5.711   3.328  0.00  0.00    +0.018 A 
ATOM     29  C   UNL     1       3.612  -6.424   3.641  0.00  0.00    +0.060 A 
ATOM     30  C   UNL     1       2.409  -5.741   3.837  0.00  0.00    +0.018 A 
ATOM     31  C   UNL     1       2.372  -4.369   3.726  0.00  0.00    +0.046 A 
BRANCH  26  32
ATOM     32  O   UNL     1       3.486  -2.313   3.296  0.00  0.00    -0.492 OA
BRANCH  32  33
ATOM     33  C   UNL     1       4.710  -1.651   2.968  0.00  0.00    +0.229 C 
BRANCH  33  34
ATOM     34  C   UNL     1       4.468  -0.143   2.884  0.00  0.00    +0.041 C 
BRANCH  34  36
ATOM     35  C   UNL     1       5.535   2.074   2.450  0.00  0.00    +0.004 C 
ATOM     36  C   UNL     1       5.778   0.565   2.533  0.00  0.00    -0.000 C 
ENDBRANCH  34  36
ENDBRANCH  33  34
ENDBRANCH  32  33
ENDBRANCH  26  32
ENDBRANCH  24  29
ENDBRANCH  23  24
ENDBRANCH   1  23
TORSDOF 10
