REMARK  Name = ZINC40410198
REMARK  5 active torsions:
REMARK  status: ('A' for Active; 'I' for Inactive)
REMARK    1  A    between atoms: C_1  and  C_2
REMARK    2  A    between atoms: C_2  and  C_3
REMARK    3  A    between atoms: C_8  and  C_9
REMARK    4  A    between atoms: C_9  and  N_10
REMARK    5  A    between atoms: C_19  and  C_21
REMARK                            x       y       z     vdW  Elec       q    Type
REMARK                         _______ _______ _______ _____ _____    ______ ____
ROOT
ATOM      1  N   UNL     1       3.675  -0.926   0.669  0.00  0.00    +0.391 N 
ATOM      2  C   UNL     1       4.699  -1.940   0.405  0.00  0.00    -0.075 C 
ATOM      3  C   UNL     1       4.361  -3.254   1.097  0.00  0.00    +0.003 C 
ATOM      4  C   UNL     1       2.842  -3.449   1.123  0.00  0.00    +0.119 C 
ATOM      5  N   UNL     1       2.301  -2.814   2.331  0.00  0.00    -0.352 N 
ATOM      6  C   UNL     1       1.398  -3.356   3.194  0.00  0.00    +0.086 A 
ATOM      7  C   UNL     1       1.144  -2.450   4.161  0.00  0.00    +0.019 A 
ATOM      8  C   UNL     1       1.925  -1.310   3.888  0.00  0.00    +0.021 A 
ATOM      9  C   UNL     1       2.628  -1.561   2.767  0.00  0.00    +0.009 A 
ATOM     10  C   UNL     1       3.617  -0.631   2.107  0.00  0.00    +0.011 C 
ATOM     11  H   UNL     1       2.778  -1.271   0.361  0.00  0.00    -0.080 HD
ENDROOT
BRANCH  10  12
ATOM     12  C   UNL     1       3.179   0.796   2.311  0.00  0.00    -0.053 A 
ATOM     13  C   UNL     1       1.918   1.196   1.907  0.00  0.00    +0.002 A 
ATOM     14  C   UNL     1       1.514   2.505   2.094  0.00  0.00    +0.003 A 
ATOM     15  C   UNL     1       2.371   3.416   2.683  0.00  0.00    +0.038 A 
ATOM     16  C   UNL     1       3.633   3.016   3.087  0.00  0.00    +0.124 A 
ATOM     17  C   UNL     1       4.034   1.703   2.905  0.00  0.00    +0.040 A 
ATOM     18  F   UNL     1       4.472   3.906   3.663  0.00  0.00    -0.205 F 
ENDBRANCH  10  12
BRANCH   1  19
ATOM     19  C   UNL     1       4.004   0.302  -0.068  0.00  0.00    -0.041 C 
BRANCH  19  25
ATOM     20  C   UNL     1       2.967  -0.183  -2.293  0.00  0.00    -0.046 A 
ATOM     21  C   UNL     1       3.065  -0.462  -3.644  0.00  0.00    +0.004 A 
ATOM     22  C   UNL     1       4.308  -0.571  -4.238  0.00  0.00    +0.000 A 
ATOM     23  C   UNL     1       5.453  -0.401  -3.482  0.00  0.00    +0.000 A 
ATOM     24  C   UNL     1       5.355  -0.121  -2.132  0.00  0.00    +0.002 A 
ATOM     25  C   UNL     1       4.111  -0.008  -1.538  0.00  0.00    -0.061 A 
BRANCH  20  27
ATOM     26  C   UNL     1       1.230   1.413  -1.526  0.00  0.00    +0.009 C 
ATOM     27  C   UNL     1       1.611  -0.064  -1.645  0.00  0.00    +0.032 C 
ENDBRANCH  20  27
ENDBRANCH  19  25
ENDBRANCH   1  19
TORSDOF 4
