REMARK  Name = ZINC66794526
REMARK  4 active torsions:
REMARK  status: ('A' for Active; 'I' for Inactive)
REMARK    1  A    between atoms: C_3  and  C_8
REMARK    2  A    between atoms: N_11  and  C_15
REMARK    3  A    between atoms: C_15  and  N_16
REMARK    4  A    between atoms: C_22  and  N_27
REMARK                            x       y       z     vdW  Elec       q    Type
REMARK                         _______ _______ _______ _____ _____    ______ ____
ROOT
ATOM      1  C   UNL     1       6.120   3.020   2.717  0.00  0.00    +0.204 C 
ENDROOT
BRANCH   1   2
ATOM      2  N   UNL     1       7.037   4.161   2.771  0.00  0.00    -0.220 N 
ATOM      3  C   UNL     1       8.352   4.094   2.494  0.00  0.00    +0.255 C 
ATOM      4  O   UNL     1       8.957   3.094   2.164  0.00  0.00    -0.269 OA
ATOM      5  C   UNL     1       8.937   5.442   2.657  0.00  0.00    +0.050 A 
ATOM      6  C   UNL     1      10.210   5.968   2.512  0.00  0.00    +0.016 A 
ATOM      7  C   UNL     1      10.428   7.317   2.749  0.00  0.00    +0.033 A 
ATOM      8  C   UNL     1       9.383   8.138   3.130  0.00  0.00    +0.127 A 
ATOM      9  C   UNL     1       8.104   7.626   3.279  0.00  0.00    +0.046 A 
ATOM     10  C   UNL     1       7.872   6.280   3.045  0.00  0.00    +0.052 A 
ATOM     11  C   UNL     1       6.675   5.414   3.099  0.00  0.00    +0.255 C 
ATOM     12  O   UNL     1       5.553   5.774   3.393  0.00  0.00    -0.269 OA
BRANCH   8  13
ATOM     13  N   UNL     1       9.633   9.576   3.380  0.00  0.00    +0.056 N 
ATOM     14  O   UNL     1      10.747  10.027   3.251  0.00  0.00    -0.126 OA
ATOM     15  O   UNL     1       8.723  10.298   3.713  0.00  0.00    -0.126 OA
ENDBRANCH   8  13
ENDBRANCH   1   2
BRANCH   1  18
ATOM     16  C   UNL     1       3.672   2.186  -0.021  0.00  0.00    +0.162 C 
ATOM     17  C   UNL     1       4.254   2.224   1.394  0.00  0.00    +0.122 C 
ATOM     18  N   UNL     1       5.552   2.912   1.366  0.00  0.00    -0.281 NA
ATOM     19  C   UNL     1       6.484   2.230   0.456  0.00  0.00    +0.114 C 
ATOM     20  C   UNL     1       5.880   2.192  -0.950  0.00  0.00    +0.176 C 
ATOM     21  O   UNL     1       4.604   1.548  -0.898  0.00  0.00    -0.369 OA
BRANCH  16  24
ATOM     22  C   UNL     1      -0.017   1.377   0.010  0.00  0.00    +0.003 A 
ATOM     23  C   UNL     1       1.171   2.086   0.002  0.00  0.00    +0.006 A 
ATOM     24  C   UNL     1       2.378   1.413  -0.013  0.00  0.00    -0.015 A 
ATOM     25  C   UNL     1       2.399   0.030  -0.021  0.00  0.00    +0.044 A 
ATOM     26  C   UNL     1       1.211  -0.679  -0.013  0.00  0.00    +0.124 A 
ATOM     27  C   UNL     1       0.002  -0.004   0.002  0.00  0.00    +0.038 A 
ATOM     28  F   UNL     1       1.230  -2.030  -0.022  0.00  0.00    -0.205 F 
ENDBRANCH  16  24
ENDBRANCH   1  18
TORSDOF 4
