REMARK  Name = ZINC39948574
REMARK  12 active torsions:
REMARK  status: ('A' for Active; 'I' for Inactive)
REMARK    1  A    between atoms: C_1  and  C_2
REMARK    2  A    between atoms: C_2  and  O_3
REMARK    3  A    between atoms: O_3  and  C_4
REMARK    4  A    between atoms: C_4  and  C_6
REMARK    5  A    between atoms: C_7  and  C_37
REMARK    6  A    between atoms: C_9  and  N_12
REMARK    7  A    between atoms: N_12  and  C_13
REMARK    8  A    between atoms: C_13  and  C_14
REMARK    9  A    between atoms: C_20  and  C_22
REMARK   10  A    between atoms: C_22  and  O_23
REMARK   11  A    between atoms: O_23  and  C_24
REMARK   12  A    between atoms: C_24  and  C_26
REMARK                            x       y       z     vdW  Elec       q    Type
REMARK                         _______ _______ _______ _____ _____    ______ ____
ROOT
ATOM      1  N   UNL     1       4.292  -2.759  -4.970  0.00  0.00    -0.267 N 
ATOM      2  C   UNL     1       4.717  -3.488  -3.919  0.00  0.00    +0.256 C 
ATOM      3  O   UNL     1       3.912  -4.029  -3.191  0.00  0.00    -0.272 OA
ENDROOT
BRANCH   1   7
ATOM      4  C   UNL     1       0.900  -2.095  -3.513  0.00  0.00    +0.112 C 
ATOM      5  C   UNL     1       1.169  -3.398  -3.748  0.00  0.00    +0.023 C 
ATOM      6  N   UNL     1       2.123  -3.793  -4.615  0.00  0.00    -0.320 N 
ATOM      7  C   UNL     1       2.866  -2.717  -5.304  0.00  0.00    +0.227 C 
ATOM      8  S   UNL     1       2.048  -1.236  -4.580  0.00  0.00    -0.075 S 
ATOM      9  C   UNL     1       0.376  -4.448  -3.013  0.00  0.00    +0.062 C 
ATOM     10  H   UNL     1       2.311  -4.730  -4.778  0.00  0.00    +0.148 HD
BRANCH   4  11
ATOM     11  C   UNL     1      -0.065  -1.542  -2.636  0.00  0.00    +0.347 C 
ATOM     12  O   UNL     1      -0.852  -2.270  -2.060  0.00  0.00    -0.244 OA
BRANCH  11  13
ATOM     13  O   UNL     1      -0.113  -0.207  -2.440  0.00  0.00    -0.461 OA
BRANCH  13  15
ATOM     14  C   UNL     1      -1.011   1.805  -1.448  0.00  0.00    +0.048 C 
ATOM     15  C   UNL     1      -1.112   0.281  -1.543  0.00  0.00    +0.229 C 
ENDBRANCH  13  15
ENDBRANCH  11  13
ENDBRANCH   4  11
ENDBRANCH   1   7
BRANCH   1  16
ATOM     16  C   UNL     1       5.256  -2.009  -5.779  0.00  0.00    +0.145 C 
BRANCH  16  17
ATOM     17  C   UNL     1       5.676  -2.843  -6.962  0.00  0.00    -0.030 A 
ATOM     18  C   UNL     1       6.838  -3.590  -6.904  0.00  0.00    +0.005 A 
ATOM     19  C   UNL     1       7.222  -4.355  -7.990  0.00  0.00    +0.000 A 
ATOM     20  C   UNL     1       6.444  -4.374  -9.132  0.00  0.00    +0.000 A 
ATOM     21  C   UNL     1       5.282  -3.628  -9.190  0.00  0.00    +0.000 A 
ATOM     22  C   UNL     1       4.895  -2.866  -8.103  0.00  0.00    +0.005 A 
ENDBRANCH  16  17
ENDBRANCH   1  16
BRANCH   2  23
ATOM     23  C   UNL     1       6.192  -3.630  -3.648  0.00  0.00    +0.328 C 
BRANCH  23  24
ATOM     24  O   UNL     1       6.388  -4.453  -2.496  0.00  0.00    -0.452 OA
BRANCH  24  25
ATOM     25  C   UNL     1       7.661  -4.682  -2.116  0.00  0.00    +0.337 C 
ATOM     26  O   UNL     1       8.579  -4.195  -2.745  0.00  0.00    -0.245 OA
BRANCH  25  27
ATOM     27  C   UNL     1       7.939  -5.523  -0.936  0.00  0.00    +0.054 C 
ATOM     28  C   UNL     1       6.930  -6.193  -0.275  0.00  0.00    +0.007 A 
ATOM     29  C   UNL     1       5.540  -6.095  -0.723  0.00  0.00    +0.010 A 
ATOM     30  C   UNL     1       4.585  -6.772  -0.041  0.00  0.00    +0.001 A 
ATOM     31  C   UNL     1       4.900  -7.558   1.075  0.00  0.00    +0.002 A 
ATOM     32  C   UNL     1       6.165  -7.693   1.542  0.00  0.00    +0.024 A 
ATOM     33  C   UNL     1       7.237  -7.030   0.905  0.00  0.00    +0.041 A 
ATOM     34  N   UNL     1       8.470  -7.165   1.368  0.00  0.00    -0.285 N 
ATOM     35  C   UNL     1       9.524  -6.571   0.820  0.00  0.00    +0.222 C 
ATOM     36  O   UNL     1      10.631  -6.737   1.294  0.00  0.00    -0.275 OA
ATOM     37  C   UNL     1       9.347  -5.694  -0.399  0.00  0.00    +0.139 C 
ATOM     38  H   UNL     1       8.611  -7.726   2.146  0.00  0.00    +0.155 HD
ENDBRANCH  25  27
ENDBRANCH  24  25
ENDBRANCH  23  24
ENDBRANCH   2  23
TORSDOF 10
