REMARK  Name = ZINC36597943
REMARK  17 active torsions:
REMARK  status: ('A' for Active; 'I' for Inactive)
REMARK    1  A    between atoms: C_1  and  C_2
REMARK    2  A    between atoms: C_3  and  C_4
REMARK    3  A    between atoms: C_4  and  C_6
REMARK    4  A    between atoms: C_4  and  N_17
REMARK    5  A    between atoms: N_8  and  C_9
REMARK    6  A    between atoms: C_9  and  C_10
REMARK    7  A    between atoms: C_9  and  C_11
REMARK    8  A    between atoms: C_9  and  C_12
REMARK    9  A    between atoms: C_12  and  C_13
REMARK   10  A    between atoms: C_13  and  C_14
REMARK   11  A    between atoms: C_13  and  C_15
REMARK   12  A    between atoms: C_13  and  C_16
REMARK   13  A    between atoms: N_17  and  C_18
REMARK   14  A    between atoms: C_18  and  C_19
REMARK   15  A    between atoms: C_22  and  C_24
REMARK   16  A    between atoms: C_25  and  C_27
REMARK   17  A    between atoms: C_27  and  C_28
REMARK                            x       y       z     vdW  Elec       q    Type
REMARK                         _______ _______ _______ _____ _____    ______ ____
ROOT
ATOM      1  N   UNL     1       0.427  -1.702  -0.947  0.00  0.00    -0.279 N 
ATOM      2  C   UNL     1       0.345  -0.532  -0.282  0.00  0.00    +0.221 C 
ATOM      3  O   UNL     1       0.983   0.427  -0.662  0.00  0.00    -0.275 OA
ENDROOT
BRANCH   1   4
ATOM      4  C   UNL     1       1.288  -1.815  -2.127  0.00  0.00    +0.185 C 
BRANCH   4   5
ATOM      5  C   UNL     1       2.689  -1.388  -1.770  0.00  0.00    +0.238 C 
ATOM      6  O   UNL     1       2.943  -1.025  -0.641  0.00  0.00    -0.273 OA
ATOM      7  N   UNL     1       3.659  -1.409  -2.705  0.00  0.00    -0.308 N 
ATOM      8  H   UNL     1       3.456  -1.700  -3.608  0.00  0.00    +0.149 HD
BRANCH   7   9
ATOM      9  C   UNL     1       5.020  -0.994  -2.358  0.00  0.00    +0.030 C 
ATOM     10  C   UNL     1       5.005   0.461  -1.884  0.00  0.00    +0.031 C 
ATOM     11  C   UNL     1       5.557  -1.889  -1.239  0.00  0.00    +0.031 C 
BRANCH   9  12
ATOM     12  C   UNL     1       5.921  -1.120  -3.588  0.00  0.00    +0.031 C 
BRANCH  12  13
ATOM     13  C   UNL     1       5.358  -2.191  -4.525  0.00  0.00    -0.036 C 
ATOM     14  C   UNL     1       4.171  -1.616  -5.301  0.00  0.00    +0.010 C 
ATOM     15  C   UNL     1       6.445  -2.631  -5.508  0.00  0.00    +0.010 C 
ATOM     16  C   UNL     1       4.894  -3.395  -3.704  0.00  0.00    +0.010 C 
ENDBRANCH  12  13
ENDBRANCH   9  12
ENDBRANCH   7   9
ENDBRANCH   4   5
BRANCH   4  19
ATOM     17  C   UNL     1      -0.962   0.503  -4.203  0.00  0.00    +0.035 C 
ATOM     18  C   UNL     1      -0.408  -0.344  -3.086  0.00  0.00    -0.032 C 
ATOM     19  C   UNL     1       0.757  -0.928  -3.223  0.00  0.00    +0.000 C 
ENDBRANCH   4  19
ENDBRANCH   1   4
BRANCH   1  20
ATOM     20  C   UNL     1      -0.343  -2.861  -0.489  0.00  0.00    +0.183 C 
BRANCH  20  21
ATOM     21  C   UNL     1       0.526  -3.728   0.385  0.00  0.00    +0.122 A 
ATOM     22  C   UNL     1       0.577  -3.690   1.729  0.00  0.00    +0.046 A 
ATOM     23  C   UNL     1       1.517  -4.667   2.131  0.00  0.00    +0.045 A 
ATOM     24  C   UNL     1       1.984  -5.243   1.009  0.00  0.00    +0.102 A 
ATOM     25  O   UNL     1       1.376  -4.675  -0.045  0.00  0.00    -0.463 OA
ATOM     26  C   UNL     1       3.011  -6.344   0.945  0.00  0.00    +0.086 C 
ENDBRANCH  20  21
ENDBRANCH   1  20
BRANCH   2  27
ATOM     27  C   UNL     1      -0.541  -0.416   0.931  0.00  0.00    +0.132 C 
BRANCH  27  28
ATOM     28  C   UNL     1      -0.455   0.983   1.484  0.00  0.00    -0.019 A 
ATOM     29  C   UNL     1       0.432   1.270   2.505  0.00  0.00    +0.005 A 
ATOM     30  C   UNL     1       0.511   2.553   3.012  0.00  0.00    +0.002 A 
ATOM     31  C   UNL     1      -0.296   3.551   2.499  0.00  0.00    +0.021 A 
ATOM     32  C   UNL     1      -1.184   3.266   1.478  0.00  0.00    +0.060 A 
ATOM     33  C   UNL     1      -1.259   1.982   0.966  0.00  0.00    +0.063 A 
ATOM     34 CL   UNL     1      -2.368   1.624  -0.322  0.00  0.00    -0.082 Cl
ATOM     35 CL   UNL     1      -2.199   4.519   0.834  0.00  0.00    -0.082 Cl
ENDBRANCH  27  28
ENDBRANCH   2  27
TORSDOF 10
