REMARK  Name = ZINC17154903
REMARK  7 active torsions:
REMARK  status: ('A' for Active; 'I' for Inactive)
REMARK    1  A    between atoms: C_1  and  C_2
REMARK    2  A    between atoms: N_4  and  C_5
REMARK    3  A    between atoms: C_11  and  C_19
REMARK    4  A    between atoms: N_12  and  C_13
REMARK    5  A    between atoms: N_20  and  C_21
REMARK    6  A    between atoms: N_27  and  C_28
REMARK    7  A    between atoms: C_34  and  C_36
REMARK                            x       y       z     vdW  Elec       q    Type
REMARK                         _______ _______ _______ _____ _____    ______ ____
ROOT
ATOM      1  C   UNL     1      -2.702   1.531  -0.569  0.00  0.00    +0.110 C 
ATOM      2  C   UNL     1      -1.683   0.424  -0.667  0.00  0.00    +0.222 C 
ATOM      3  O   UNL     1      -1.442  -0.083  -1.742  0.00  0.00    -0.275 OA
ATOM      4  N   UNL     1      -1.041  -0.001   0.439  0.00  0.00    -0.222 N 
ATOM      5  C   UNL     1      -1.387   0.510   1.681  0.00  0.00    +0.174 C 
ATOM      6  N   UNL     1      -0.896  -0.028   2.770  0.00  0.00    -0.228 NA
ENDROOT
BRANCH   4   7
ATOM      7  C   UNL     1      -0.025  -0.959   0.334  0.00  0.00    +0.043 A 
ATOM      8  C   UNL     1       0.439  -1.608   1.470  0.00  0.00    +0.024 A 
ATOM      9  C   UNL     1       1.441  -2.553   1.363  0.00  0.00    +0.002 A 
ATOM     10  C   UNL     1       1.982  -2.852   0.126  0.00  0.00    +0.000 A 
ATOM     11  C   UNL     1       1.522  -2.207  -1.007  0.00  0.00    +0.002 A 
ATOM     12  C   UNL     1       0.516  -1.266  -0.908  0.00  0.00    +0.024 A 
ENDBRANCH   4   7
BRANCH   6  13
ATOM     13  C   UNL     1      -1.085   0.582   3.977  0.00  0.00    +0.066 A 
ATOM     14  C   UNL     1      -0.646   1.894   4.178  0.00  0.00    +0.028 A 
ATOM     15  C   UNL     1      -0.840   2.503   5.399  0.00  0.00    +0.002 A 
ATOM     16  C   UNL     1      -1.468   1.819   6.426  0.00  0.00    +0.000 A 
ATOM     17  C   UNL     1      -1.905   0.519   6.235  0.00  0.00    +0.002 A 
ATOM     18  C   UNL     1      -1.723  -0.101   5.017  0.00  0.00    +0.028 A 
ENDBRANCH   6  13
BRANCH   5  19
ATOM     19  C   UNL     1      -2.306   1.659   1.775  0.00  0.00    +0.174 C 
ATOM     20  N   UNL     1      -1.919   2.843   1.368  0.00  0.00    -0.228 NA
ATOM     21  N   UNL     1      -3.580   1.487   2.295  0.00  0.00    -0.222 N 
ATOM     22  C   UNL     1      -4.184   0.284   2.214  0.00  0.00    +0.222 C 
ATOM     23  O   UNL     1      -5.212   0.080   2.823  0.00  0.00    -0.275 OA
ATOM     24  C   UNL     1      -3.580  -0.806   1.366  0.00  0.00    +0.110 C 
BRANCH  20  25
ATOM     25  C   UNL     1      -2.795   3.890   1.384  0.00  0.00    +0.066 A 
ATOM     26  C   UNL     1      -4.019   3.792   0.717  0.00  0.00    +0.028 A 
ATOM     27  C   UNL     1      -4.899   4.854   0.738  0.00  0.00    +0.002 A 
ATOM     28  C   UNL     1      -4.572   6.015   1.417  0.00  0.00    +0.000 A 
ATOM     29  C   UNL     1      -3.361   6.120   2.079  0.00  0.00    +0.002 A 
ATOM     30  C   UNL     1      -2.474   5.064   2.072  0.00  0.00    +0.028 A 
ENDBRANCH  20  25
BRANCH  21  31
ATOM     31  C   UNL     1      -4.239   2.562   2.904  0.00  0.00    +0.043 A 
ATOM     32  C   UNL     1      -5.548   2.864   2.553  0.00  0.00    +0.024 A 
ATOM     33  C   UNL     1      -6.196   3.925   3.155  0.00  0.00    +0.002 A 
ATOM     34  C   UNL     1      -5.542   4.686   4.107  0.00  0.00    +0.000 A 
ATOM     35  C   UNL     1      -4.238   4.388   4.458  0.00  0.00    +0.002 A 
ATOM     36  C   UNL     1      -3.587   3.324   3.864  0.00  0.00    +0.024 A 
ENDBRANCH  21  31
ENDBRANCH   5  19
TORSDOF 5
