REMARK  Name = ZINC56977427
REMARK  5 active torsions:
REMARK  status: ('A' for Active; 'I' for Inactive)
REMARK    1  A    between atoms: C_1  and  C_2
REMARK    2  A    between atoms: N_10  and  C_13
REMARK    3  A    between atoms: C_13  and  C_15
REMARK    4  A    between atoms: C_13  and  C_16
REMARK    5  A    between atoms: N_18  and  C_19
REMARK                            x       y       z     vdW  Elec       q    Type
REMARK                         _______ _______ _______ _____ _____    ______ ____
ROOT
ATOM      1  C   UNL     1       0.118  -5.581   2.421  0.00  0.00    +0.167 C 
ATOM      2  C   UNL     1      -1.123  -6.362   1.981  0.00  0.00    +0.038 C 
ENDROOT
BRANCH   1  12
ATOM      3  C   UNL     1       0.169   1.626   0.372  0.00  0.00    +0.044 C 
ATOM      4  C   UNL     1       0.170   0.121   0.298  0.00  0.00    -0.050 A 
ATOM      5  C   UNL     1       0.198  -0.506  -0.934  0.00  0.00    +0.004 A 
ATOM      6  C   UNL     1       0.199  -1.889  -1.019  0.00  0.00    +0.014 A 
ATOM      7  C   UNL     1       0.172  -2.649   0.140  0.00  0.00    +0.049 A 
ATOM      8  C   UNL     1       0.144  -2.010   1.396  0.00  0.00    +0.050 A 
ATOM      9  C   UNL     1       0.149  -0.626   1.466  0.00  0.00    +0.017 A 
ATOM     10  C   UNL     1       0.120  -3.094   2.401  0.00  0.00    +0.254 C 
ATOM     11  O   UNL     1       0.092  -2.944   3.605  0.00  0.00    -0.270 OA
ATOM     12  N   UNL     1       0.134  -4.275   1.757  0.00  0.00    -0.222 N 
ATOM     13  C   UNL     1       0.164  -4.099   0.423  0.00  0.00    +0.254 C 
ATOM     14  O   UNL     1       0.183  -4.984  -0.408  0.00  0.00    -0.270 OA
ENDBRANCH   1  12
BRANCH   1  15
ATOM     15  C   UNL     1       1.357  -6.352   2.042  0.00  0.00    +0.234 C 
ATOM     16  O   UNL     1       2.172  -5.859   1.293  0.00  0.00    -0.274 OA
ATOM     17  N   UNL     1       1.558  -7.589   2.538  0.00  0.00    -0.302 N 
ATOM     18  H   UNL     1       0.905  -7.983   3.138  0.00  0.00    +0.150 HD
BRANCH  17  19
ATOM     19  C   UNL     1       2.762  -8.338   2.170  0.00  0.00    +0.159 C 
ATOM     20  C   UNL     1       2.573  -9.817   2.516  0.00  0.00    +0.032 C 
ATOM     21  C   UNL     1       1.745  -9.973   3.779  0.00  0.00    +0.004 C 
ATOM     22  C   UNL     1       2.437  -9.464   5.031  0.00  0.00    +0.019 C 
ATOM     23  C   UNL     1       2.607  -7.945   4.980  0.00  0.00    +0.104 C 
ATOM     24  N   UNL     1       3.858  -7.635   4.270  0.00  0.00    -0.314 N 
ATOM     25  C   UNL     1       3.948  -7.807   2.947  0.00  0.00    +0.233 C 
ATOM     26  O   UNL     1       4.981  -7.544   2.368  0.00  0.00    -0.274 OA
ATOM     27  H   UNL     1       4.623  -7.300   4.764  0.00  0.00    +0.149 HD
ENDBRANCH  17  19
ENDBRANCH   1  15
TORSDOF 3
