REMARK  Name = ZINC02276961
REMARK  8 active torsions:
REMARK  status: ('A' for Active; 'I' for Inactive)
REMARK    1  A    between atoms: C_1  and  O_2
REMARK    2  A    between atoms: O_2  and  C_3
REMARK    3  A    between atoms: C_6  and  C_9
REMARK    4  A    between atoms: N_11  and  C_12
REMARK    5  A    between atoms: C_12  and  C_13
REMARK    6  A    between atoms: N_15  and  N_16
REMARK    7  A    between atoms: N_24  and  C_27
REMARK    8  A    between atoms: C_27  and  C_28
REMARK                            x       y       z     vdW  Elec       q    Type
REMARK                         _______ _______ _______ _____ _____    ______ ____
ROOT
ATOM      1  N   UNL     1       3.567  -8.181  -6.197  0.00  0.00    -0.174 NA
ATOM      2  C   UNL     1       4.088  -8.968  -7.107  0.00  0.00    +0.153 C 
ATOM      3  C   UNL     1       4.097 -10.449  -7.121  0.00  0.00    +0.028 A 
ATOM      4  C   UNL     1       3.601 -11.413  -6.250  0.00  0.00    +0.012 A 
ATOM      5  C   UNL     1       3.770 -12.752  -6.542  0.00  0.00    +0.001 A 
ATOM      6  C   UNL     1       4.430 -13.132  -7.698  0.00  0.00    +0.002 A 
ATOM      7  C   UNL     1       4.926 -12.183  -8.569  0.00  0.00    +0.024 A 
ATOM      8  C   UNL     1       4.766 -10.829  -8.292  0.00  0.00    +0.046 A 
ATOM      9  N   UNL     1       5.161  -9.691  -8.986  0.00  0.00    -0.261 N 
ATOM     10  C   UNL     1       4.787  -8.570  -8.346  0.00  0.00    +0.272 C 
ATOM     11  O   UNL     1       4.991  -7.431  -8.719  0.00  0.00    -0.268 OA
ENDROOT
BRANCH   1  14
ATOM     12  C   UNL     1       3.108  -5.982  -5.411  0.00  0.00    +0.249 C 
ATOM     13  O   UNL     1       2.560  -6.458  -4.439  0.00  0.00    -0.272 OA
ATOM     14  N   UNL     1       3.643  -6.790  -6.346  0.00  0.00    -0.205 N 
ATOM     15  H   UNL     1       4.082  -6.410  -7.123  0.00  0.00    +0.177 HD
BRANCH  12  16
ATOM     16  C   UNL     1       3.190  -4.486  -5.571  0.00  0.00    +0.202 C 
BRANCH  16  19
ATOM     17  C   UNL     1       2.491  -2.491  -4.359  0.00  0.00    +0.244 C 
ATOM     18  O   UNL     1       2.987  -1.817  -5.242  0.00  0.00    -0.270 OA
ATOM     19  N   UNL     1       2.540  -3.836  -4.431  0.00  0.00    -0.303 N 
ATOM     20  H   UNL     1       2.144  -4.373  -3.727  0.00  0.00    +0.150 HD
BRANCH  17  24
ATOM     21  C   UNL     1       0.605  -0.606  -1.054  0.00  0.00    +0.120 A 
ATOM     22  C   UNL     1       1.172   0.166  -2.061  0.00  0.00    +0.046 A 
ATOM     23  C   UNL     1       1.785  -0.441  -3.135  0.00  0.00    +0.016 A 
ATOM     24  C   UNL     1       1.836  -1.836  -3.210  0.00  0.00    +0.037 A 
ATOM     25  C   UNL     1       1.265  -2.608  -2.196  0.00  0.00    +0.016 A 
ATOM     26  C   UNL     1       0.658  -1.994  -1.123  0.00  0.00    +0.046 A 
BRANCH  21  28
ATOM     27  C   UNL     1      -0.017   1.425   0.010  0.00  0.00    +0.277 C 
ATOM     28  O   UNL     1       0.002  -0.004   0.002  0.00  0.00    -0.495 OA
ENDBRANCH  21  28
ENDBRANCH  17  24
ENDBRANCH  16  19
ENDBRANCH  12  16
ENDBRANCH   1  14
BRANCH   9  29
ATOM     29  C   UNL     1       5.888  -9.712 -10.258  0.00  0.00    +0.149 C 
BRANCH  29  30
ATOM     30  C   UNL     1       4.903  -9.720 -11.399  0.00  0.00    -0.028 A 
ATOM     31  C   UNL     1       4.440 -10.922 -11.903  0.00  0.00    +0.007 A 
ATOM     32  C   UNL     1       3.537 -10.931 -12.950  0.00  0.00    +0.022 A 
ATOM     33  C   UNL     1       3.096  -9.738 -13.493  0.00  0.00    +0.059 A 
ATOM     34  C   UNL     1       3.559  -8.535 -12.988  0.00  0.00    +0.060 A 
ATOM     35  C   UNL     1       4.459  -8.527 -11.937  0.00  0.00    +0.026 A 
ATOM     36 CL   UNL     1       3.006  -7.037 -13.669  0.00  0.00    -0.082 Cl
ATOM     37 CL   UNL     1       1.962  -9.749 -14.808  0.00  0.00    -0.082 Cl
ENDBRANCH  29  30
ENDBRANCH   9  29
TORSDOF 7
