REMARK  Name = ZINC40990041
REMARK  4 active torsions:
REMARK  status: ('A' for Active; 'I' for Inactive)
REMARK    1  A    between atoms: C_1  and  C_2
REMARK    2  A    between atoms: C_7  and  C_13
REMARK    3  A    between atoms: N_9  and  C_10
REMARK    4  A    between atoms: C_10  and  C_11
REMARK                            x       y       z     vdW  Elec       q    Type
REMARK                         _______ _______ _______ _____ _____    ______ ____
ROOT
ATOM      1  C   UNL     1      -0.019   1.526   0.010  0.00  0.00    -0.013 C 
ATOM      2  C   UNL     1       0.002  -0.004   0.002  0.00  0.00    -0.071 C 
ATOM      3  C   UNL     1       0.717  -0.497  -1.258  0.00  0.00    -0.016 C 
ATOM      4  C   UNL     1       0.735  -2.028  -1.262  0.00  0.00    -0.003 C 
ATOM      5  C   UNL     1       1.410  -2.524   0.020  0.00  0.00    -0.016 C 
ATOM      6  C   UNL     1       0.669  -1.956   1.232  0.00  0.00    -0.071 C 
ATOM      7  N   UNL     1       0.711  -0.490   1.192  0.00  0.00    +0.384 N 
ATOM      8  C   UNL     1      -0.787  -2.426   1.206  0.00  0.00    -0.013 C 
ATOM      9  H   UNL     1       1.671  -0.182   1.159  0.00  0.00    -0.081 HD
ENDROOT
BRANCH   7  10
ATOM     10  C   UNL     1       0.067   0.050   2.397  0.00  0.00    -0.067 C 
BRANCH  10  11
ATOM     11  C   UNL     1       0.877  -0.353   3.631  0.00  0.00    +0.061 C 
ATOM     12 BR   UNL     1       0.016   0.369   5.245  0.00  0.00    -0.094 Br
ENDBRANCH  10  11
ENDBRANCH   7  10
TORSDOF 2
