REMARK  Name = ZINC33171885
REMARK  8 active torsions:
REMARK  status: ('A' for Active; 'I' for Inactive)
REMARK    1  A    between atoms: C_1  and  C_2
REMARK    2  A    between atoms: C_5  and  C_7
REMARK    3  A    between atoms: C_7  and  N_8
REMARK    4  A    between atoms: C_9  and  C_11
REMARK    5  A    between atoms: C_12  and  N_27
REMARK    6  A    between atoms: C_13  and  C_16
REMARK    7  A    between atoms: N_18  and  C_19
REMARK    8  A    between atoms: C_19  and  C_20
REMARK                            x       y       z     vdW  Elec       q    Type
REMARK                         _______ _______ _______ _____ _____    ______ ____
ROOT
ATOM      1  C   UNL     1       2.482   5.418   3.017  0.00  0.00    +0.115 A 
ATOM      2  C   UNL     1       2.901   6.661   3.494  0.00  0.00    +0.076 A 
ATOM      3  C   UNL     1       2.929   6.716   4.888  0.00  0.00    +0.156 A 
ATOM      4  N   UNL     1       2.588   5.652   5.581  0.00  0.00    -0.203 NA
ATOM      5  S   UNL     1       2.209   4.533   4.538  0.00  0.00    +0.019 S 
ENDROOT
BRANCH   1   7
ATOM      6  N   UNL     1       1.901   3.705   1.386  0.00  0.00    -0.304 N 
ATOM      7  C   UNL     1       2.316   4.962   1.635  0.00  0.00    +0.254 C 
ATOM      8  O   UNL     1       2.554   5.719   0.712  0.00  0.00    -0.270 OA
ATOM      9  H   UNL     1       1.686   3.021   2.220  0.00  0.00    +0.149 HD
BRANCH   6  10
ATOM     10  C   UNL     1       1.735   3.249   0.003  0.00  0.00    +0.179 C 
BRANCH  10  15
ATOM     11  C   UNL     1       1.803  -1.795  -0.024  0.00  0.00    +0.086 C 
ATOM     12  C   UNL     1       1.295  -0.376  -0.012  0.00  0.00    +0.102 A 
ATOM     13  C   UNL     1       0.002  -0.004   0.002  0.00  0.00    +0.045 A 
ATOM     14  C   UNL     1      -0.017   1.410   0.010  0.00  0.00    +0.046 A 
ATOM     15  C   UNL     1       1.265   1.817  -0.000  0.00  0.00    +0.122 A 
ATOM     16  O   UNL     1       2.055   0.731  -0.014  0.00  0.00    -0.463 OA
ENDBRANCH  10  15
ENDBRANCH   6  10
ENDBRANCH   1   7
BRANCH   3  17
ATOM     17  C   UNL     1       3.342   7.953   5.576  0.00  0.00    +0.265 C 
ATOM     18  O   UNL     1       3.656   8.933   4.929  0.00  0.00    -0.268 OA
ATOM     19  N   UNL     1       3.372   7.997   6.923  0.00  0.00    -0.306 N 
ATOM     20  H   UNL     1       3.088   7.110   7.509  0.00  0.00    +0.149 HD
BRANCH  19  21
ATOM     21  C   UNL     1       3.782   9.225   7.607  0.00  0.00    +0.141 C 
BRANCH  21  22
ATOM     22  C   UNL     1       3.729   9.012   9.098  0.00  0.00    -0.012 A 
ATOM     23  C   UNL     1       2.652   9.482   9.826  0.00  0.00    +0.006 A 
ATOM     24  C   UNL     1       2.601   9.282  11.193  0.00  0.00    +0.000 A 
ATOM     25  C   UNL     1       3.632   8.621  11.834  0.00  0.00    +0.001 A 
ATOM     26  C   UNL     1       4.712   8.156  11.109  0.00  0.00    +0.020 A 
ATOM     27  C   UNL     1       4.761   8.351   9.740  0.00  0.00    +0.046 A 
ATOM     28 CL   UNL     1       6.118   7.767   8.828  0.00  0.00    -0.083 Cl
ENDBRANCH  21  22
ENDBRANCH  19  21
ENDBRANCH   3  17
BRANCH   2  29
ATOM     29  N   UNL     1       3.248   7.726   2.673  0.00  0.00    -0.355 N 
ATOM     30  H   UNL     1       3.571   8.679   3.116  0.00  0.00    +0.142 HD
ATOM     31  H   UNL     1       3.201   7.615   1.580  0.00  0.00    +0.142 HD
ENDBRANCH   2  29
TORSDOF 7
