REMARK  Name = ZINC39878640
REMARK  12 active torsions:
REMARK  status: ('A' for Active; 'I' for Inactive)
REMARK    1  A    between atoms: C_1  and  C_2
REMARK    2  A    between atoms: C_2  and  C_3
REMARK    3  A    between atoms: C_3  and  C_4
REMARK    4  A    between atoms: C_4  and  O_5
REMARK    5  A    between atoms: O_5  and  C_6
REMARK    6  A    between atoms: C_6  and  C_8
REMARK    7  A    between atoms: C_11  and  N_14
REMARK    8  A    between atoms: C_15  and  C_32
REMARK    9  A    between atoms: C_22  and  C_31
REMARK   10  A    between atoms: C_23  and  C_30
REMARK   11  A    between atoms: C_35  and  S_38
REMARK   12  A    between atoms: S_38  and  C_39
REMARK                            x       y       z     vdW  Elec       q    Type
REMARK                         _______ _______ _______ _____ _____    ______ ____
ROOT
ATOM      1  N   UNL     1       4.104  -5.917  -7.151  0.00  0.00    -0.253 N 
ATOM      2  C   UNL     1       4.282  -7.344  -7.464  0.00  0.00    +0.150 C 
ATOM      3  C   UNL     1       5.023  -7.387  -8.760  0.00  0.00    +0.072 A 
ATOM      4  C   UNL     1       5.495  -8.518  -9.566  0.00  0.00    +0.199 A 
ATOM      5  O   UNL     1       5.177  -9.673  -9.346  0.00  0.00    -0.287 OA
ATOM      6  C   UNL     1       6.397  -8.120 -10.677  0.00  0.00    +0.065 A 
ATOM      7  C   UNL     1       7.085  -9.088 -11.409  0.00  0.00    +0.019 A 
ATOM      8  C   UNL     1       7.916  -8.705 -12.425  0.00  0.00    -0.047 A 
ATOM      9  C   UNL     1       8.075  -7.360 -12.728  0.00  0.00    -0.044 A 
ATOM     10  C   UNL     1       7.403  -6.392 -12.017  0.00  0.00    +0.050 A 
ATOM     11  C   UNL     1       6.547  -6.756 -10.977  0.00  0.00    +0.140 A 
ATOM     12  O   UNL     1       5.889  -5.790 -10.298  0.00  0.00    -0.450 OA
ATOM     13  C   UNL     1       5.244  -6.098  -9.156  0.00  0.00    +0.199 A 
ATOM     14  C   UNL     1       4.663  -5.198  -8.145  0.00  0.00    +0.287 C 
ATOM     15  O   UNL     1       4.687  -3.985  -8.198  0.00  0.00    -0.266 OA
ATOM     16  C   UNL     1       8.997  -6.955 -13.849  0.00  0.00    +0.044 C 
ATOM     17  C   UNL     1       8.661  -9.748 -13.218  0.00  0.00    +0.044 C 
ENDROOT
BRANCH   1  21
ATOM     18  C   UNL     1       2.190  -4.370  -3.792  0.00  0.00    +0.059 A 
ATOM     19  C   UNL     1       2.729  -3.507  -4.750  0.00  0.00    +0.017 A 
ATOM     20  C   UNL     1       3.361  -4.022  -5.860  0.00  0.00    +0.024 A 
ATOM     21  C   UNL     1       3.464  -5.400  -6.027  0.00  0.00    +0.038 A 
ATOM     22  C   UNL     1       2.928  -6.262  -5.075  0.00  0.00    +0.024 A 
ATOM     23  C   UNL     1       2.300  -5.753  -3.960  0.00  0.00    +0.017 A 
BRANCH  18  24
ATOM     24  C   UNL     1       1.513  -3.822  -2.602  0.00  0.00    +0.339 C 
ATOM     25  O   UNL     1       1.049  -4.573  -1.767  0.00  0.00    -0.245 OA
BRANCH  24  26
ATOM     26  O   UNL     1       1.408  -2.488  -2.441  0.00  0.00    -0.461 OA
BRANCH  26  27
ATOM     27  C   UNL     1       0.739  -2.027  -1.265  0.00  0.00    +0.232 C 
BRANCH  27  28
ATOM     28  C   UNL     1       0.718  -0.497  -1.257  0.00  0.00    +0.041 C 
BRANCH  28  30
ATOM     29  C   UNL     1      -0.019   1.526   0.010  0.00  0.00    +0.004 C 
ATOM     30  C   UNL     1       0.002  -0.004   0.002  0.00  0.00    -0.000 C 
ENDBRANCH  28  30
ENDBRANCH  27  28
ENDBRANCH  26  27
ENDBRANCH  24  26
ENDBRANCH  18  24
ENDBRANCH   1  21
BRANCH   2  31
ATOM     31  C   UNL     1       2.941  -8.017  -7.608  0.00  0.00    -0.022 A 
ATOM     32  C   UNL     1       1.908  -7.364  -8.255  0.00  0.00    +0.007 A 
ATOM     33  C   UNL     1       0.678  -7.977  -8.389  0.00  0.00    +0.015 A 
ATOM     34  C   UNL     1       0.478  -9.251  -7.871  0.00  0.00    +0.008 A 
ATOM     35  C   UNL     1       1.519  -9.904  -7.222  0.00  0.00    +0.015 A 
ATOM     36  C   UNL     1       2.748  -9.287  -7.097  0.00  0.00    +0.007 A 
BRANCH  34  37
ATOM     37  S   UNL     1      -1.090 -10.037  -8.039  0.00  0.00    -0.129 S 
ATOM     38  C   UNL     1      -0.865 -11.643  -7.227  0.00  0.00    +0.090 C 
ENDBRANCH  34  37
ENDBRANCH   2  31
TORSDOF 8
