REMARK  Name = ZINC09714104
REMARK  7 active torsions:
REMARK  status: ('A' for Active; 'I' for Inactive)
REMARK    1  A    between atoms: C_1  and  C_2
REMARK    2  A    between atoms: C_2  and  C_3
REMARK    3  A    between atoms: C_2  and  C_4
REMARK    4  A    between atoms: C_4  and  N_5
REMARK    5  A    between atoms: N_13  and  C_30
REMARK    6  A    between atoms: C_22  and  C_23
REMARK    7  A    between atoms: C_22  and  N_57
REMARK                            x       y       z     vdW  Elec       q    Type
REMARK                         _______ _______ _______ _____ _____    ______ ____
ROOT
ATOM      1  N   UNL     1      -4.188   1.350  -5.106  0.00  0.00    -0.306 N 
ATOM      2  C   UNL     1      -4.512   2.106  -6.225  0.00  0.00    +0.153 A 
ATOM      3  C   UNL     1      -5.539   2.054  -7.184  0.00  0.00    +0.280 A 
ATOM      4  O   UNL     1      -6.402   1.195  -7.117  0.00  0.00    -0.265 OA
ATOM      5  N   UNL     1      -5.560   2.964  -8.179  0.00  0.00    -0.273 N 
ATOM      6  H   UNL     1      -6.289   2.930  -8.863  0.00  0.00    +0.173 HD
ATOM      7  C   UNL     1      -4.616   3.917  -8.266  0.00  0.00    +0.331 A 
ATOM      8  O   UNL     1      -4.666   4.721  -9.176  0.00  0.00    -0.246 OA
ATOM      9  N   UNL     1      -3.615   4.003  -7.369  0.00  0.00    -0.280 N 
ATOM     10  C   UNL     1      -3.540   3.095  -6.324  0.00  0.00    +0.170 A 
ATOM     11  N   UNL     1      -2.692   2.929  -5.308  0.00  0.00    -0.196 NA
ATOM     12  C   UNL     1      -3.064   1.900  -4.575  0.00  0.00    +0.201 A 
ATOM     13  N   UNL     1      -2.414   1.449  -3.449  0.00  0.00    -0.304 N 
ATOM     14  C   UNL     1      -0.968   1.695  -3.542  0.00  0.00    +0.089 C 
ATOM     15  C   UNL     1      -0.274   1.109  -2.311  0.00  0.00    -0.059 C 
ATOM     16  C   UNL     1      -2.278   1.477  -1.005  0.00  0.00    -0.059 C 
ATOM     17  C   UNL     1      -2.973   2.063  -2.236  0.00  0.00    +0.089 C 
ATOM     18  C   UNL     1      -2.605   5.056  -7.498  0.00  0.00    +0.155 C 
ATOM     19  N   UNL     1      -0.829   1.750  -1.100  0.00  0.00    +0.384 N 
ATOM     20  H   UNL     1      -0.684   2.765  -1.164  0.00  0.00    -0.081 HD
ENDROOT
BRANCH   1  21
ATOM     21  C   UNL     1      -4.918   0.187  -4.596  0.00  0.00    +0.128 C 
BRANCH  21  23
ATOM     22  C   UNL     1      -4.933  -2.308  -4.468  0.00  0.00    +0.009 C 
ATOM     23  C   UNL     1      -4.260  -1.095  -5.112  0.00  0.00    +0.003 C 
ATOM     24  C   UNL     1      -4.416  -1.172  -6.632  0.00  0.00    +0.009 C 
ENDBRANCH  21  23
ENDBRANCH   1  21
BRANCH  19  25
ATOM     25  C   UNL     1      -0.138   1.241   0.104  0.00  0.00    -0.043 C 
BRANCH  25  26
ATOM     26  C   UNL     1      -0.562   2.063   1.293  0.00  0.00    -0.064 A 
ATOM     27  C   UNL     1       0.142   3.204   1.631  0.00  0.00    +0.003 A 
ATOM     28  C   UNL     1      -0.249   3.961   2.719  0.00  0.00    +0.015 A 
ATOM     29  C   UNL     1      -1.340   3.572   3.475  0.00  0.00    +0.018 A 
ATOM     30  C   UNL     1      -2.042   2.429   3.139  0.00  0.00    +0.015 A 
ATOM     31  C   UNL     1      -1.653   1.675   2.048  0.00  0.00    +0.003 A 
ATOM     32 BR   UNL     1      -1.873   4.605   4.967  0.00  0.00    -0.050 Br
ENDBRANCH  25  26
ENDBRANCH  19  25
TORSDOF 4
