REMARK  Name = ZINC02413512
REMARK  4 active torsions:
REMARK  status: ('A' for Active; 'I' for Inactive)
REMARK    1  A    between atoms: C_8  and  C_12
REMARK    2  A    between atoms: C_15  and  C_18
REMARK    3  A    between atoms: N_20  and  C_21
REMARK    4  A    between atoms: C_22  and  C_30
REMARK                            x       y       z     vdW  Elec       q    Type
REMARK                         _______ _______ _______ _____ _____    ______ ____
ROOT
ATOM      1  C   UNL     1      -7.316   8.268   0.108  0.00  0.00    +0.249 C 
ATOM      2  O   UNL     1      -7.465   9.161   0.920  0.00  0.00    -0.270 OA
ATOM      3  N   UNL     1      -8.293   7.993  -0.779  0.00  0.00    -0.275 N 
ATOM      4  H   UNL     1      -8.174   7.280  -1.426  0.00  0.00    +0.156 HD
ENDROOT
BRANCH   3   5
ATOM      5  C   UNL     1      -9.467   8.727  -0.766  0.00  0.00    +0.085 A 
ATOM      6  C   UNL     1     -10.574   8.599  -1.593  0.00  0.00    +0.068 A 
ATOM      7  C   UNL     1     -11.691   9.501  -1.366  0.00  0.00    -0.023 A 
ATOM      8  C   UNL     1     -11.518  10.388  -0.361  0.00  0.00    -0.004 A 
ATOM      9  S   UNL     1      -9.908  10.034   0.283  0.00  0.00    -0.077 S 
ATOM     10  C   UNL     1     -12.487  11.435   0.095  0.00  0.00    +0.043 C 
ATOM     11  C   UNL     1     -13.561  11.605  -0.989  0.00  0.00    +0.005 C 
ATOM     12  C   UNL     1     -14.066  10.221  -1.406  0.00  0.00    +0.005 C 
ATOM     13  C   UNL     1     -12.976   9.482  -2.184  0.00  0.00    +0.037 C 
BRANCH   6  14
ATOM     14  C   UNL     1     -10.617   7.589  -2.655  0.00  0.00    +0.244 C 
ATOM     15  O   UNL     1     -11.060   6.479  -2.421  0.00  0.00    -0.270 OA
ATOM     16  N   UNL     1     -10.166   7.888  -3.889  0.00  0.00    -0.325 N 
ATOM     17  H   UNL     1      -9.814   8.773  -4.075  0.00  0.00    +0.145 HD
ATOM     18  H   UNL     1     -10.195   7.220  -4.591  0.00  0.00    +0.145 HD
ENDBRANCH   6  14
ENDBRANCH   3   5
BRANCH   1  22
ATOM     19  C   UNL     1      -3.717   6.018   0.066  0.00  0.00    -0.011 A 
ATOM     20  C   UNL     1      -4.728   5.736  -0.856  0.00  0.00    +0.009 A 
ATOM     21  C   UNL     1      -5.893   6.459  -0.840  0.00  0.00    +0.013 A 
ATOM     22  C   UNL     1      -6.065   7.485   0.094  0.00  0.00    +0.037 A 
ATOM     23  C   UNL     1      -5.051   7.770   1.014  0.00  0.00    +0.013 A 
ATOM     24  C   UNL     1      -3.889   7.043   1.000  0.00  0.00    +0.009 A 
BRANCH  19  32
ATOM     25  C   UNL     1      -0.013   1.076   0.008  0.00  0.00    +0.001 A 
ATOM     26  C   UNL     1       1.183   1.781   0.000  0.00  0.00    +0.004 A 
ATOM     27  C   UNL     1       1.185   3.160   0.007  0.00  0.00    +0.047 A 
ATOM     28  C   UNL     1      -0.018   3.856   0.022  0.00  0.00    +0.139 A 
ATOM     29  C   UNL     1      -1.227   3.139   0.030  0.00  0.00    +0.018 A 
ATOM     30  C   UNL     1      -1.207   1.738   0.017  0.00  0.00    +0.011 A 
ATOM     31  C   UNL     1      -2.498   3.864   0.045  0.00  0.00    +0.027 A 
ATOM     32  C   UNL     1      -2.462   5.234   0.051  0.00  0.00    +0.067 A 
ATOM     33  C   UNL     1      -1.162   5.911   0.042  0.00  0.00    +0.345 A 
ATOM     34  O   UNL     1      -1.118   7.127   0.047  0.00  0.00    -0.245 OA
ATOM     35  O   UNL     1      -0.020   5.206   0.028  0.00  0.00    -0.422 OA
ENDBRANCH  19  32
ENDBRANCH   1  22
TORSDOF 4
