REMARK  Name = ZINC01835467
REMARK  13 active torsions:
REMARK  status: ('A' for Active; 'I' for Inactive)
REMARK    1  A    between atoms: C_1  and  O_2
REMARK    2  A    between atoms: O_2  and  C_3
REMARK    3  A    between atoms: C_5  and  C_10
REMARK    4  A    between atoms: C_8  and  O_9
REMARK    5  A    between atoms: C_16  and  C_33
REMARK    6  A    between atoms: C_17  and  C_24
REMARK    7  A    between atoms: C_19  and  C_22
REMARK    8  A    between atoms: C_20  and  N_21
REMARK    9  A    between atoms: C_27  and  O_32
REMARK   10  A    between atoms: C_28  and  O_30
REMARK   11  A    between atoms: O_30  and  C_31
REMARK   12  A    between atoms: C_33  and  O_35
REMARK   13  A    between atoms: O_35  and  C_36
REMARK                            x       y       z     vdW  Elec       q    Type
REMARK                         _______ _______ _______ _____ _____    ______ ____
ROOT
ATOM      1  C   UNL     1      -4.842   0.214  -0.573  0.00  0.00    +0.028 C 
ATOM      2  C   UNL     1      -6.042  -0.419  -0.505  0.00  0.00    +0.079 A 
ATOM      3  C   UNL     1      -7.393   0.149  -0.447  0.00  0.00    +0.271 A 
ATOM      4  O   UNL     1      -7.562   1.355  -0.457  0.00  0.00    -0.266 OA
ATOM      5  N   UNL     1      -8.443  -0.694  -0.387  0.00  0.00    -0.257 N 
ATOM      6  C   UNL     1      -8.176  -2.048  -0.373  0.00  0.00    +0.100 A 
ATOM      7  C   UNL     1      -9.137  -3.022  -0.309  0.00  0.00    +0.080 C 
ATOM      8  C   UNL     1     -10.590  -2.591  -0.248  0.00  0.00    +0.102 C 
ATOM      9  C   UNL     1     -10.833  -1.095  -0.266  0.00  0.00    +0.079 C 
ATOM     10  C   UNL     1      -9.773  -0.262  -0.333  0.00  0.00    +0.118 C 
ATOM     11  S   UNL     1      -6.400  -2.167  -0.454  0.00  0.00    -0.065 S 
ENDROOT
BRANCH   1  14
ATOM     12  C   UNL     1      -1.214  -0.722  -0.726  0.00  0.00    +0.162 A 
ATOM     13  C   UNL     1      -2.381   0.006  -0.850  0.00  0.00    +0.057 A 
ATOM     14  C   UNL     1      -3.598  -0.555  -0.445  0.00  0.00    -0.020 A 
ATOM     15  C   UNL     1      -3.625  -1.851   0.084  0.00  0.00    +0.012 A 
ATOM     16  C   UNL     1      -2.456  -2.570   0.203  0.00  0.00    +0.050 A 
ATOM     17  C   UNL     1      -1.251  -2.015  -0.204  0.00  0.00    +0.158 A 
BRANCH  12  19
ATOM     18  C   UNL     1      -0.067   1.145  -1.650  0.00  0.00    +0.277 C 
ATOM     19  O   UNL     1      -0.030  -0.181  -1.118  0.00  0.00    -0.491 OA
ENDBRANCH  12  19
BRANCH  17  20
ATOM     20  O   UNL     1      -0.102  -2.731  -0.088  0.00  0.00    -0.503 OA
ATOM     21  H   UNL     1       0.351  -2.613   0.758  0.00  0.00    +0.292 HD
ENDBRANCH  17  20
ENDBRANCH   1  14
BRANCH   8  22
ATOM     22  C   UNL     1     -11.312  -3.200  -1.423  0.00  0.00    -0.031 A 
ATOM     23  C   UNL     1     -10.992  -2.805  -2.709  0.00  0.00    +0.008 A 
ATOM     24  C   UNL     1     -11.651  -3.362  -3.789  0.00  0.00    +0.049 A 
ATOM     25  C   UNL     1     -12.634  -4.317  -3.585  0.00  0.00    +0.158 A 
ATOM     26  C   UNL     1     -12.955  -4.714  -2.291  0.00  0.00    +0.162 A 
ATOM     27  C   UNL     1     -12.287  -4.156  -1.212  0.00  0.00    +0.054 A 
BRANCH  26  28
ATOM     28  O   UNL     1     -13.919  -5.651  -2.085  0.00  0.00    -0.491 OA
ATOM     29  C   UNL     1     -14.197  -6.009  -0.730  0.00  0.00    +0.277 C 
ENDBRANCH  26  28
BRANCH  25  30
ATOM     30  O   UNL     1     -13.282  -4.866  -4.647  0.00  0.00    -0.503 OA
ATOM     31  H   UNL     1     -12.859  -5.662  -4.997  0.00  0.00    +0.292 HD
ENDBRANCH  25  30
ENDBRANCH   8  22
BRANCH  10  32
ATOM     32  N   UNL     1     -10.014   1.091  -0.347  0.00  0.00    -0.343 N 
ATOM     33  H   UNL     1      -9.386   1.690  -0.780  0.00  0.00    +0.144 HD
ATOM     34  H   UNL     1     -10.811   1.446   0.076  0.00  0.00    +0.144 HD
ENDBRANCH  10  32
BRANCH   9  35
ATOM     35  C   UNL     1     -12.166  -0.574  -0.213  0.00  0.00    +0.099 C 
ATOM     36  N   UNL     1     -13.223  -0.161  -0.170  0.00  0.00    -0.191 NA
ENDBRANCH   9  35
BRANCH   7  37
ATOM     37  C   UNL     1      -8.788  -4.378  -0.299  0.00  0.00    +0.338 C 
ATOM     38  O   UNL     1      -7.615  -4.706  -0.347  0.00  0.00    -0.245 OA
BRANCH  37  39
ATOM     39  O   UNL     1      -9.752  -5.324  -0.235  0.00  0.00    -0.465 OA
ATOM     40  C   UNL     1      -9.323  -6.687  -0.228  0.00  0.00    +0.280 C 
ENDBRANCH  37  39
ENDBRANCH   7  37
TORSDOF 10
