REMARK  Name = ZINC13942893
REMARK  9 active torsions:
REMARK  status: ('A' for Active; 'I' for Inactive)
REMARK    1  A    between atoms: C_1  and  O_2
REMARK    2  A    between atoms: O_2  and  C_3
REMARK    3  A    between atoms: C_7  and  C_9
REMARK    4  A    between atoms: C_12  and  C_32
REMARK    5  A    between atoms: C_13  and  C_24
REMARK    6  A    between atoms: C_15  and  C_22
REMARK    7  A    between atoms: C_16  and  N_21
REMARK    8  A    between atoms: C_28  and  O_30
REMARK    9  A    between atoms: O_30  and  C_31
REMARK                            x       y       z     vdW  Elec       q    Type
REMARK                         _______ _______ _______ _____ _____    ______ ____
ROOT
ATOM      1  C   UNL     1       0.204   6.854  -0.500  0.00  0.00    +0.025 C 
ATOM      2  C   UNL     1      -0.602   5.763  -0.554  0.00  0.00    +0.043 A 
ATOM      3  C   UNL     1      -0.246   4.324  -0.409  0.00  0.00    +0.080 A 
ATOM      4  C   UNL     1       1.050   3.897  -0.182  0.00  0.00    +0.067 C 
ATOM      5  C   UNL     1       1.333   2.422  -0.045  0.00  0.00    +0.105 C 
ATOM      6  C   UNL     1       0.139   1.497  -0.170  0.00  0.00    +0.080 C 
ATOM      7  C   UNL     1      -1.070   2.054  -0.397  0.00  0.00    +0.119 C 
ATOM      8  N   UNL     1      -1.284   3.433  -0.511  0.00  0.00    -0.256 N 
ATOM      9  C   UNL     1      -2.549   3.914  -0.736  0.00  0.00    +0.297 A 
ATOM     10  O   UNL     1      -3.576   3.273  -0.853  0.00  0.00    -0.259 OA
ATOM     11  S   UNL     1      -2.360   5.678  -0.819  0.00  0.00    -0.026 S 
ENDROOT
BRANCH   1  16
ATOM     12  C   UNL     1      -0.161  10.580  -0.763  0.00  0.00    +0.121 A 
ATOM     13  C   UNL     1      -1.346  10.681  -1.481  0.00  0.00    +0.045 A 
ATOM     14  C   UNL     1      -2.022   9.541  -1.876  0.00  0.00    +0.004 A 
ATOM     15  C   UNL     1      -1.522   8.294  -1.565  0.00  0.00    +0.008 A 
ATOM     16  C   UNL     1      -0.331   8.181  -0.838  0.00  0.00    -0.020 A 
ATOM     17  C   UNL     1       0.350   9.336  -0.440  0.00  0.00    +0.053 A 
BRANCH  12  19
ATOM     18  C   UNL     1      -0.086  12.956  -0.746  0.00  0.00    +0.277 C 
ATOM     19  O   UNL     1       0.498  11.705  -0.379  0.00  0.00    -0.495 OA
ENDBRANCH  12  19
ENDBRANCH   1  16
BRANCH   5  20
ATOM     20  C   UNL     1       1.967   2.189   1.302  0.00  0.00    -0.031 A 
ATOM     21  C   UNL     1       1.235   2.399   2.456  0.00  0.00    +0.005 A 
ATOM     22  C   UNL     1       1.814   2.186   3.693  0.00  0.00    +0.004 A 
ATOM     23  C   UNL     1       3.127   1.763   3.779  0.00  0.00    +0.045 A 
ATOM     24  C   UNL     1       3.864   1.552   2.623  0.00  0.00    +0.120 A 
ATOM     25  C   UNL     1       3.278   1.762   1.383  0.00  0.00    +0.050 A 
BRANCH  24  26
ATOM     26  O   UNL     1       5.155   1.136   2.705  0.00  0.00    -0.495 OA
ATOM     27  C   UNL     1       5.689   0.934   4.015  0.00  0.00    +0.277 C 
ENDBRANCH  24  26
ENDBRANCH   5  20
BRANCH   7  28
ATOM     28  N   UNL     1      -2.154   1.220  -0.517  0.00  0.00    -0.343 N 
ATOM     29  H   UNL     1      -2.147   0.351  -0.085  0.00  0.00    +0.144 HD
ATOM     30  H   UNL     1      -2.926   1.498  -1.033  0.00  0.00    +0.144 HD
ENDBRANCH   7  28
BRANCH   6  31
ATOM     31  C   UNL     1       0.289   0.077  -0.056  0.00  0.00    +0.099 C 
ATOM     32  N   UNL     1       0.408  -1.049   0.034  0.00  0.00    -0.191 NA
ENDBRANCH   6  31
BRANCH   4  33
ATOM     33  C   UNL     1       2.115   4.848  -0.079  0.00  0.00    +0.098 C 
ATOM     34  N   UNL     1       2.960   5.603   0.002  0.00  0.00    -0.191 NA
ENDBRANCH   4  33
TORSDOF 7
