REMARK  Name = ZINC28524061
REMARK  11 active torsions:
REMARK  status: ('A' for Active; 'I' for Inactive)
REMARK    1  A    between atoms: C_1  and  C_2
REMARK    2  A    between atoms: C_2  and  C_4
REMARK    3  A    between atoms: C_2  and  N_13
REMARK    4  A    between atoms: C_9  and  C_10
REMARK    5  A    between atoms: C_10  and  N_11
REMARK    6  A    between atoms: C_14  and  C_16
REMARK    7  A    between atoms: C_16  and  C_17
REMARK    8  A    between atoms: C_21  and  N_24
REMARK    9  A    between atoms: N_24  and  C_25
REMARK   10  A    between atoms: C_25  and  C_26
REMARK   11  A    between atoms: C_26  and  C_27
REMARK                            x       y       z     vdW  Elec       q    Type
REMARK                         _______ _______ _______ _____ _____    ______ ____
ROOT
ATOM      1  C   UNL     1      -4.372  -6.536   0.941  0.00  0.00    +0.091 A 
ATOM      2  C   UNL     1      -3.264  -7.315   1.214  0.00  0.00    +0.064 A 
ATOM      3  C   UNL     1      -2.049  -6.698   1.483  0.00  0.00    +0.025 A 
ATOM      4  C   UNL     1      -1.992  -5.315   1.461  0.00  0.00    +0.046 A 
ATOM      5  C   UNL     1      -3.147  -4.594   1.184  0.00  0.00    +0.140 A 
ATOM      6  N   UNL     1      -4.288  -5.219   0.933  0.00  0.00    -0.121 N 
ATOM      7  O   UNL     1      -5.445  -4.454   0.649  0.00  0.00    -0.162 OA
ATOM      8 CL   UNL     1      -3.389  -9.047   1.222  0.00  0.00    -0.082 Cl
ENDROOT
BRANCH   5   9
ATOM      9  N   UNL     1      -3.103  -3.202   1.164  0.00  0.00    -0.322 N 
ATOM     10  H   UNL     1      -4.014  -2.626   0.941  0.00  0.00    +0.148 HD
BRANCH   9  11
ATOM     11  C   UNL     1      -1.845  -2.504   1.441  0.00  0.00    +0.185 C 
BRANCH  11  12
ATOM     12  C   UNL     1      -2.070  -0.993   1.356  0.00  0.00    +0.305 C 
ATOM     13  F   UNL     1      -3.032  -0.612   2.297  0.00  0.00    -0.197 F 
ATOM     14  F   UNL     1      -2.516  -0.660   0.072  0.00  0.00    -0.197 F 
BRANCH  12  15
ATOM     15  C   UNL     1      -0.776  -0.276   1.640  0.00  0.00    +0.111 A 
ATOM     16  C   UNL     1      -0.742   1.106   1.618  0.00  0.00    +0.029 A 
ATOM     17  C   UNL     1       0.454   1.756   1.881  0.00  0.00    +0.003 A 
ATOM     18  C   UNL     1       1.575   0.989   2.159  0.00  0.00    +0.020 A 
ATOM     19  C   UNL     1       1.465  -0.388   2.163  0.00  0.00    +0.111 A 
ATOM     20  N   UNL     1       0.311  -0.973   1.908  0.00  0.00    -0.254 NA
ENDBRANCH  12  15
ENDBRANCH  11  12
ENDBRANCH   9  11
ENDBRANCH   5   9
BRANCH   1  21
ATOM     21  C   UNL     1      -5.694  -7.199   0.648  0.00  0.00    +0.154 C 
BRANCH  21  23
ATOM     22  N   UNL     1      -6.919  -8.037  -1.331  0.00  0.00    -0.308 N 
ATOM     23  C   UNL     1      -5.813  -7.449  -0.833  0.00  0.00    +0.219 C 
ATOM     24  O   UNL     1      -4.913  -7.121  -1.578  0.00  0.00    -0.275 OA
ATOM     25  H   UNL     1      -7.735  -8.334  -0.656  0.00  0.00    +0.149 HD
BRANCH  22  27
ATOM     26  C   UNL     1      -6.377  -9.617  -3.117  0.00  0.00    +0.033 C 
ATOM     27  C   UNL     1      -7.035  -8.279  -2.771  0.00  0.00    +0.100 C 
BRANCH  27  28
ATOM     28  C   UNL     1      -8.491  -8.320  -3.158  0.00  0.00    -0.025 A 
ATOM     29  C   UNL     1      -9.105  -9.533  -3.409  0.00  0.00    +0.025 A 
ATOM     30  C   UNL     1     -10.441  -9.571  -3.765  0.00  0.00    +0.041 A 
ATOM     31  C   UNL     1     -11.162  -8.394  -3.868  0.00  0.00    +0.020 A 
ATOM     32  C   UNL     1     -10.547  -7.183  -3.616  0.00  0.00    +0.003 A 
ATOM     33  C   UNL     1      -9.213  -7.146  -3.256  0.00  0.00    -0.060 A 
ATOM     34 CL   UNL     1     -11.213 -11.093  -4.081  0.00  0.00    -0.084 Cl
BRANCH  33  35
ATOM     35  C   UNL     1      -8.544  -5.825  -2.975  0.00  0.00    -0.050 C 
BRANCH  35  36
ATOM     36  N   UNL     1      -7.772  -5.407  -4.153  0.00  0.00    +0.381 N 
ATOM     37  H   UNL     1      -7.284  -4.443  -3.948  0.00  0.00    -0.090 HD
ATOM     38  H   UNL     1      -8.447  -5.301  -5.015  0.00  0.00    -0.090 HD
ATOM     39  H   UNL     1      -7.007  -6.165  -4.377  0.00  0.00    -0.090 HD
ENDBRANCH  35  36
ENDBRANCH  33  35
ENDBRANCH  27  28
ENDBRANCH  22  27
ENDBRANCH  21  23
ENDBRANCH   1  21
TORSDOF 10
