REMARK  Name = ZINC28156039
REMARK  10 active torsions:
REMARK  status: ('A' for Active; 'I' for Inactive)
REMARK    1  A    between atoms: C_1  and  C_2
REMARK    2  A    between atoms: C_2  and  C_3
REMARK    3  A    between atoms: C_6  and  C_9
REMARK    4  A    between atoms: C_12  and  C_34
REMARK    5  A    between atoms: C_19  and  C_22
REMARK    6  A    between atoms: C_22  and  C_23
REMARK    7  A    between atoms: N_25  and  C_26
REMARK    8  A    between atoms: C_30  and  C_33
REMARK    9  A    between atoms: C_31  and  C_32
REMARK   10  A    between atoms: C_37  and  C_40
REMARK                            x       y       z     vdW  Elec       q    Type
REMARK                         _______ _______ _______ _____ _____    ______ ____
ROOT
ATOM      1  C   UNL     1      -3.443  -3.575  -3.681  0.00  0.00    +0.136 C 
ATOM      2  C   UNL     1      -4.206  -3.449  -5.015  0.00  0.00    +0.087 C 
ATOM      3  C   UNL     1      -4.348  -1.956  -5.214  0.00  0.00    +0.069 C 
ATOM      4  N   UNL     1      -3.801  -1.337  -4.225  0.00  0.00    -0.182 NA
ATOM      5  N   UNL     1      -3.242  -2.177  -3.265  0.00  0.00    -0.195 N 
ATOM      6  C   UNL     1      -2.607  -1.771  -2.127  0.00  0.00    +0.170 C 
ATOM      7  N   UNL     1      -2.058  -2.523  -1.182  0.00  0.00    -0.157 NA
ATOM      8  C   UNL     1      -1.466  -2.054  -0.118  0.00  0.00    +0.252 C 
ATOM      9  O   UNL     1      -0.974  -2.777   0.726  0.00  0.00    -0.272 OA
ATOM     10  C   UNL     1      -1.433  -0.534  -0.008  0.00  0.00    +0.150 C 
ATOM     11  S   UNL     1      -2.318  -0.101  -1.560  0.00  0.00    -0.078 S 
ENDROOT
BRANCH   3  12
ATOM     12  C   UNL     1      -5.010  -1.310  -6.362  0.00  0.00    -0.002 A 
ATOM     13  C   UNL     1      -5.564  -2.088  -7.381  0.00  0.00    +0.010 A 
ATOM     14  C   UNL     1      -6.187  -1.476  -8.450  0.00  0.00    +0.004 A 
ATOM     15  C   UNL     1      -6.254  -0.096  -8.518  0.00  0.00    -0.050 A 
ATOM     16  C   UNL     1      -5.702   0.681  -7.515  0.00  0.00    +0.004 A 
ATOM     17  C   UNL     1      -5.081   0.083  -6.438  0.00  0.00    +0.010 A 
ATOM     18  C   UNL     1      -6.930   0.564  -9.692  0.00  0.00    +0.044 C 
ENDBRANCH   3  12
BRANCH   1  22
ATOM     19  C   UNL     1       0.312  -5.524  -4.268  0.00  0.00    -0.048 A 
ATOM     20  C   UNL     1      -0.740  -6.210  -3.693  0.00  0.00    +0.004 A 
ATOM     21  C   UNL     1      -1.956  -5.580  -3.502  0.00  0.00    +0.006 A 
ATOM     22  C   UNL     1      -2.118  -4.262  -3.888  0.00  0.00    -0.025 A 
ATOM     23  C   UNL     1      -1.067  -3.577  -4.469  0.00  0.00    +0.006 A 
ATOM     24  C   UNL     1       0.150  -4.206  -4.653  0.00  0.00    +0.004 A 
BRANCH  19  26
ATOM     25  C   UNL     1       1.656  -6.880  -5.850  0.00  0.00    +0.009 C 
ATOM     26  C   UNL     1       1.637  -6.211  -4.474  0.00  0.00    +0.032 C 
ENDBRANCH  19  26
ENDBRANCH   1  22
BRANCH  10  27
ATOM     27  C   UNL     1       0.003  -0.004  -0.017  0.00  0.00    +0.120 C 
BRANCH  27  28
ATOM     28  C   UNL     1      -0.018   1.502   0.006  0.00  0.00    +0.219 C 
ATOM     29  O   UNL     1      -1.077   2.094   0.024  0.00  0.00    -0.275 OA
ATOM     30  N   UNL     1       1.139   2.192   0.003  0.00  0.00    -0.285 N 
ATOM     31  H   UNL     1       2.098   1.659   0.077  0.00  0.00    +0.155 HD
BRANCH  30  32
ATOM     32  C   UNL     1       1.122   3.588  -0.095  0.00  0.00    +0.037 A 
ATOM     33  C   UNL     1       0.042   4.231  -0.687  0.00  0.00    +0.023 A 
ATOM     34  C   UNL     1       0.028   5.608  -0.782  0.00  0.00    +0.002 A 
ATOM     35  C   UNL     1       1.087   6.348  -0.289  0.00  0.00    +0.004 A 
ATOM     36  C   UNL     1       2.163   5.712   0.301  0.00  0.00    -0.046 A 
ATOM     37  C   UNL     1       2.181   4.334   0.405  0.00  0.00    -0.026 A 
ATOM     38  C   UNL     1       3.352   3.642   1.054  0.00  0.00    +0.046 C 
ATOM     39  C   UNL     1       3.315   6.522   0.839  0.00  0.00    +0.044 C 
ENDBRANCH  30  32
ENDBRANCH  27  28
ENDBRANCH  10  27
TORSDOF 6
