REMARK  Name = ZINC22370094
REMARK  16 active torsions:
REMARK  status: ('A' for Active; 'I' for Inactive)
REMARK    1  A    between atoms: C_1  and  C_2
REMARK    2  A    between atoms: C_2  and  C_3
REMARK    3  A    between atoms: N_9  and  C_10
REMARK    4  A    between atoms: C_10  and  C_11
REMARK    5  A    between atoms: C_11  and  C_12
REMARK    6  A    between atoms: C_12  and  N_13
REMARK    7  A    between atoms: C_14  and  C_16
REMARK    8  A    between atoms: C_16  and  N_17
REMARK    9  A    between atoms: N_17  and  C_18
REMARK   10  A    between atoms: N_17  and  S_27
REMARK   11  A    between atoms: C_23  and  O_24
REMARK   12  A    between atoms: O_24  and  C_25
REMARK   13  A    between atoms: C_25  and  C_26
REMARK   14  A    between atoms: S_27  and  C_30
REMARK   15  A    between atoms: C_33  and  S_36
REMARK   16  A    between atoms: S_36  and  C_37
REMARK                            x       y       z     vdW  Elec       q    Type
REMARK                         _______ _______ _______ _____ _____    ______ ____
ROOT
ATOM      1  N   UNL     1       0.166  -3.487  -3.656  0.00  0.00    -0.191 N 
ENDROOT
BRANCH   1   2
ATOM      2  C   UNL     1      -0.856  -3.962  -4.487  0.00  0.00    +0.093 A 
ATOM      3  C   UNL     1      -1.229  -5.297  -4.437  0.00  0.00    +0.028 A 
ATOM      4  C   UNL     1      -2.238  -5.764  -5.258  0.00  0.00    +0.002 A 
ATOM      5  C   UNL     1      -2.878  -4.903  -6.131  0.00  0.00    +0.004 A 
ATOM      6  C   UNL     1      -2.511  -3.571  -6.186  0.00  0.00    +0.047 A 
ATOM      7  C   UNL     1      -1.505  -3.094  -5.362  0.00  0.00    +0.143 A 
BRANCH   7   8
ATOM      8  O   UNL     1      -1.147  -1.783  -5.412  0.00  0.00    -0.490 OA
BRANCH   8   9
ATOM      9  C   UNL     1      -1.855  -0.952  -6.334  0.00  0.00    +0.226 C 
ATOM     10  C   UNL     1      -1.317   0.478  -6.248  0.00  0.00    +0.048 C 
ENDBRANCH   8   9
ENDBRANCH   7   8
ENDBRANCH   1   2
BRANCH   1  11
ATOM     11  S   UNL     1      -0.208  -2.785  -2.204  0.00  0.00    +0.075 S 
ATOM     12  O   UNL     1       0.941  -2.922  -1.379  0.00  0.00    -0.150 OA
ATOM     13  O   UNL     1      -1.482  -3.287  -1.825  0.00  0.00    -0.150 OA
BRANCH  11  14
ATOM     14  C   UNL     1      -0.414  -1.060  -2.498  0.00  0.00    +0.109 A 
ATOM     15  C   UNL     1      -1.661  -0.560  -2.827  0.00  0.00    +0.030 A 
ATOM     16  C   UNL     1      -1.826   0.791  -3.058  0.00  0.00    +0.016 A 
ATOM     17  C   UNL     1      -0.738   1.650  -2.959  0.00  0.00    +0.008 A 
ATOM     18  C   UNL     1       0.514   1.144  -2.627  0.00  0.00    +0.016 A 
ATOM     19  C   UNL     1       0.672  -0.208  -2.398  0.00  0.00    +0.030 A 
BRANCH  17  20
ATOM     20  S   UNL     1      -0.944   3.375  -3.252  0.00  0.00    -0.129 S 
ATOM     21  C   UNL     1       0.717   4.063  -3.010  0.00  0.00    +0.090 C 
ENDBRANCH  17  20
ENDBRANCH  11  14
ENDBRANCH   1  11
BRANCH   1  22
ATOM     22  C   UNL     1       1.565  -3.612  -4.072  0.00  0.00    +0.227 C 
BRANCH  22  24
ATOM     23  N   UNL     1       3.356  -5.316  -3.973  0.00  0.00    -0.314 N 
ATOM     24  C   UNL     1       2.083  -4.974  -3.688  0.00  0.00    +0.232 C 
ATOM     25  O   UNL     1       1.355  -5.763  -3.123  0.00  0.00    -0.274 OA
ATOM     26  H   UNL     1       4.016  -4.600  -4.485  0.00  0.00    +0.149 HD
BRANCH  23  27
ATOM     27  C   UNL     1       3.860  -6.640  -3.600  0.00  0.00    +0.102 C 
BRANCH  27  28
ATOM     28  C   UNL     1       5.321  -6.770  -4.034  0.00  0.00    +0.000 C 
BRANCH  28  29
ATOM     29  C   UNL     1       5.847  -8.153  -3.644  0.00  0.00    -0.077 C 
BRANCH  29  35
ATOM     30  C   UNL     1       7.820  -9.555  -3.613  0.00  0.00    -0.069 C 
ATOM     31  C   UNL     1       9.230  -9.715  -4.186  0.00  0.00    -0.015 C 
ATOM     32  C   UNL     1      10.104  -8.551  -3.711  0.00  0.00    -0.003 C 
ATOM     33  C   UNL     1       9.463  -7.230  -4.148  0.00  0.00    -0.019 C 
ATOM     34  C   UNL     1       8.046  -7.143  -3.576  0.00  0.00    -0.078 C 
ATOM     35  N   UNL     1       7.250  -8.278  -4.061  0.00  0.00    +0.382 N 
ATOM     36  H   UNL     1       7.281  -8.264  -5.160  0.00  0.00    -0.081 HD
BRANCH  30  38
ATOM     37  C   UNL     1       7.457 -12.026  -3.527  0.00  0.00    +0.002 C 
ATOM     38  C   UNL     1       6.938 -10.706  -4.102  0.00  0.00    -0.019 C 
ENDBRANCH  30  38
ENDBRANCH  29  35
ENDBRANCH  28  29
ENDBRANCH  27  28
ENDBRANCH  23  27
ENDBRANCH  22  24
ENDBRANCH   1  22
TORSDOF 13
