REMARK  Name = ZINC00747804
REMARK  10 active torsions:
REMARK  status: ('A' for Active; 'I' for Inactive)
REMARK    1  A    between atoms: C_1  and  C_2
REMARK    2  A    between atoms: N_5  and  C_8
REMARK    3  A    between atoms: C_11  and  N_21
REMARK    4  A    between atoms: C_13  and  C_14
REMARK    5  A    between atoms: N_16  and  C_17
REMARK    6  A    between atoms: C_17  and  C_18
REMARK    7  A    between atoms: C_18  and  C_19
REMARK    8  A    between atoms: C_18  and  C_20
REMARK    9  A    between atoms: N_21  and  S_22
REMARK   10  A    between atoms: S_22  and  C_25
REMARK                            x       y       z     vdW  Elec       q    Type
REMARK                         _______ _______ _______ _____ _____    ______ ____
ROOT
ATOM      1  C   UNL     1       3.545   3.812  -0.561  0.00  0.00    +0.042 A 
ATOM      2  C   UNL     1       3.557   2.638   0.180  0.00  0.00    +0.026 A 
ATOM      3  C   UNL     1       2.389   1.931   0.379  0.00  0.00    +0.026 A 
ATOM      4  C   UNL     1       1.192   2.383  -0.169  0.00  0.00    +0.049 A 
ATOM      5  C   UNL     1       1.163   3.551  -0.910  0.00  0.00    +0.039 A 
ATOM      6  C   UNL     1       2.341   4.276  -1.112  0.00  0.00    +0.059 A 
ENDROOT
BRANCH   1  11
ATOM      7  C   UNL     1       8.736   5.992  -0.879  0.00  0.00    +0.007 C 
ATOM      8  C   UNL     1       7.552   5.074  -0.570  0.00  0.00    -0.011 C 
ATOM      9  C   UNL     1       6.897   4.625  -1.880  0.00  0.00    +0.022 C 
ATOM     10  C   UNL     1       5.678   3.756  -1.563  0.00  0.00    +0.105 C 
ATOM     11  N   UNL     1       4.723   4.527  -0.756  0.00  0.00    -0.329 N 
ATOM     12  C   UNL     1       5.314   4.928   0.526  0.00  0.00    +0.105 C 
ATOM     13  C   UNL     1       6.522   5.832   0.272  0.00  0.00    +0.022 C 
ENDBRANCH   1  11
BRANCH   6  14
ATOM     14  C   UNL     1       2.318   5.522  -1.899  0.00  0.00    +0.246 C 
ATOM     15  O   UNL     1       3.321   6.204  -1.989  0.00  0.00    -0.270 OA
ATOM     16  N   UNL     1       1.185   5.907  -2.520  0.00  0.00    -0.311 N 
ATOM     17  H   UNL     1       0.385   5.363  -2.449  0.00  0.00    +0.149 HD
BRANCH  16  18
ATOM     18  C   UNL     1       1.162   7.145  -3.303  0.00  0.00    +0.107 C 
BRANCH  18  19
ATOM     19  C   UNL     1      -0.233   7.347  -3.897  0.00  0.00    -0.000 C 
ATOM     20  C   UNL     1      -1.242   7.563  -2.768  0.00  0.00    +0.009 C 
ATOM     21  C   UNL     1      -0.224   8.571  -4.815  0.00  0.00    +0.009 C 
ENDBRANCH  18  19
ENDBRANCH  16  18
ENDBRANCH   6  14
BRANCH   4  22
ATOM     22  N   UNL     1       0.013   1.656   0.034  0.00  0.00    -0.216 N 
ATOM     23  H   UNL     1      -0.804   2.116   0.282  0.00  0.00    +0.174 HD
BRANCH  22  24
ATOM     24  S   UNL     1       0.012   0.011  -0.156  0.00  0.00    +0.072 S 
ATOM     25  O   UNL     1       1.092  -0.489   0.621  0.00  0.00    -0.150 OA
ATOM     26  O   UNL     1      -1.328  -0.420   0.038  0.00  0.00    -0.150 OA
BRANCH  24  27
ATOM     27  C   UNL     1       0.409  -0.320  -1.841  0.00  0.00    +0.109 A 
ATOM     28  C   UNL     1      -0.587  -0.311  -2.800  0.00  0.00    +0.030 A 
ATOM     29  C   UNL     1      -0.276  -0.566  -4.122  0.00  0.00    +0.017 A 
ATOM     30  C   UNL     1       1.030  -0.839  -4.484  0.00  0.00    +0.018 A 
ATOM     31  C   UNL     1       2.026  -0.853  -3.524  0.00  0.00    +0.017 A 
ATOM     32  C   UNL     1       1.714  -0.593  -2.203  0.00  0.00    +0.030 A 
ATOM     33 BR   UNL     1       1.456  -1.194  -6.293  0.00  0.00    -0.050 Br
ENDBRANCH  24  27
ENDBRANCH  22  24
ENDBRANCH   4  22
TORSDOF 7
