REMARK  Name = ZINC36500231
REMARK  13 active torsions:
REMARK  status: ('A' for Active; 'I' for Inactive)
REMARK    1  A    between atoms: C_1  and  C_2
REMARK    2  A    between atoms: C_2  and  C_3
REMARK    3  A    between atoms: C_2  and  C_4
REMARK    4  A    between atoms: C_2  and  N_5
REMARK    5  A    between atoms: C_6  and  C_8
REMARK    6  A    between atoms: C_8  and  C_10
REMARK    7  A    between atoms: C_8  and  N_23
REMARK    8  A    between atoms: C_10  and  C_11
REMARK    9  A    between atoms: C_10  and  C_17
REMARK   10  A    between atoms: N_23  and  C_24
REMARK   11  A    between atoms: C_24  and  C_25
REMARK   12  A    between atoms: C_30  and  C_32
REMARK   13  A    between atoms: C_35  and  O_38
REMARK                            x       y       z     vdW  Elec       q    Type
REMARK                         _______ _______ _______ _____ _____    ______ ____
ROOT
ATOM      1  C   UNL     1       2.777  -0.982  -3.056  0.00  0.00    +0.174 C 
ENDROOT
BRANCH   1   3
ATOM      2  N   UNL     1       1.056  -2.753  -3.179  0.00  0.00    -0.309 N 
ATOM      3  C   UNL     1       1.685  -1.818  -2.440  0.00  0.00    +0.235 C 
ATOM      4  O   UNL     1       1.373  -1.649  -1.281  0.00  0.00    -0.274 OA
ATOM      5  H   UNL     1       1.305  -2.888  -4.106  0.00  0.00    +0.149 HD
BRANCH   2   7
ATOM      6  C   UNL     1      -1.136  -2.655  -2.097  0.00  0.00    +0.031 C 
ATOM      7  C   UNL     1      -0.006  -3.567  -2.580  0.00  0.00    +0.026 C 
ATOM      8  C   UNL     1       0.559  -4.351  -1.394  0.00  0.00    +0.031 C 
ATOM      9  C   UNL     1      -0.550  -4.543  -3.624  0.00  0.00    +0.031 C 
ENDBRANCH   2   7
ENDBRANCH   1   3
BRANCH   1  10
ATOM     10  N   UNL     1       3.380  -0.131  -2.027  0.00  0.00    -0.278 N 
ATOM     11  C   UNL     1       4.714  -0.143  -1.839  0.00  0.00    +0.248 C 
ATOM     12  O   UNL     1       5.430  -0.767  -2.598  0.00  0.00    -0.270 OA
BRANCH  11  13
ATOM     13  C   UNL     1       5.307   0.601  -0.710  0.00  0.00    +0.037 A 
ATOM     14  C   UNL     1       4.968   1.940  -0.499  0.00  0.00    +0.016 A 
ATOM     15  C   UNL     1       5.523   2.631   0.555  0.00  0.00    +0.046 A 
ATOM     16  C   UNL     1       6.420   1.998   1.408  0.00  0.00    +0.117 A 
ATOM     17  C   UNL     1       6.760   0.666   1.201  0.00  0.00    +0.046 A 
ATOM     18  C   UNL     1       6.205  -0.033   0.153  0.00  0.00    +0.016 A 
BRANCH  16  19
ATOM     19  O   UNL     1       6.966   2.683   2.445  0.00  0.00    -0.507 OA
ATOM     20  H   UNL     1       6.454   2.630   3.264  0.00  0.00    +0.292 HD
ENDBRANCH  16  19
ENDBRANCH  11  13
BRANCH  10  21
ATOM     21  C   UNL     1       2.532   0.734  -1.202  0.00  0.00    +0.183 C 
BRANCH  21  22
ATOM     22  C   UNL     1       2.140   1.955  -1.994  0.00  0.00    +0.122 A 
ATOM     23  C   UNL     1       0.969   2.138  -2.630  0.00  0.00    +0.046 A 
ATOM     24  C   UNL     1       1.028   3.413  -3.238  0.00  0.00    +0.041 A 
ATOM     25  C   UNL     1       2.232   3.933  -2.937  0.00  0.00    +0.195 A 
ATOM     26  O   UNL     1       2.898   3.048  -2.178  0.00  0.00    -0.466 OA
ENDBRANCH  21  22
ENDBRANCH  10  21
ENDBRANCH   1  10
BRANCH   1  27
ATOM     27  C   UNL     1       2.186  -0.104  -4.161  0.00  0.00    +0.078 C 
BRANCH  27  28
ATOM     28  C   UNL     1       3.278   0.732  -4.777  0.00  0.00    -0.038 A 
ATOM     29  C   UNL     1       4.535   0.192  -4.972  0.00  0.00    +0.004 A 
ATOM     30  C   UNL     1       5.537   0.959  -5.537  0.00  0.00    +0.000 A 
ATOM     31  C   UNL     1       5.281   2.266  -5.907  0.00  0.00    +0.000 A 
ATOM     32  C   UNL     1       4.023   2.806  -5.713  0.00  0.00    +0.000 A 
ATOM     33  C   UNL     1       3.021   2.038  -5.152  0.00  0.00    +0.004 A 
ENDBRANCH  27  28
BRANCH  27  34
ATOM     34  C   UNL     1       1.566  -0.980  -5.220  0.00  0.00    -0.038 A 
ATOM     35  C   UNL     1       2.358  -1.845  -5.952  0.00  0.00    +0.004 A 
ATOM     36  C   UNL     1       1.789  -2.648  -6.923  0.00  0.00    +0.000 A 
ATOM     37  C   UNL     1       0.429  -2.586  -7.162  0.00  0.00    +0.000 A 
ATOM     38  C   UNL     1      -0.362  -1.721  -6.429  0.00  0.00    +0.000 A 
ATOM     39  C   UNL     1       0.205  -0.921  -5.455  0.00  0.00    +0.004 A 
ENDBRANCH  27  34
ENDBRANCH   1  27
TORSDOF 10
