REMARK  Name = ZINC08958341
REMARK  11 active torsions:
REMARK  status: ('A' for Active; 'I' for Inactive)
REMARK    1  A    between atoms: C_1  and  C_2
REMARK    2  A    between atoms: C_2  and  O_3
REMARK    3  A    between atoms: O_3  and  C_4
REMARK    4  A    between atoms: N_10  and  C_30
REMARK    5  A    between atoms: N_12  and  C_13
REMARK    6  A    between atoms: C_13  and  C_15
REMARK    7  A    between atoms: C_18  and  C_21
REMARK    8  A    between atoms: C_21  and  C_23
REMARK    9  A    between atoms: C_30  and  C_31
REMARK   10  A    between atoms: C_31  and  O_32
REMARK   11  A    between atoms: O_32  and  C_33
REMARK                            x       y       z     vdW  Elec       q    Type
REMARK                         _______ _______ _______ _____ _____    ______ ____
ROOT
ATOM      1  C   UNL     1      -2.247   2.688   1.550  0.00  0.00    +0.145 A 
ATOM      2  C   UNL     1      -3.239   3.611   1.807  0.00  0.00    +0.048 A 
ATOM      3  C   UNL     1      -2.943   4.952   1.977  0.00  0.00    +0.005 A 
ATOM      4  C   UNL     1      -1.628   5.372   1.887  0.00  0.00    +0.017 A 
ATOM      5  C   UNL     1      -0.636   4.454   1.631  0.00  0.00    +0.042 A 
ATOM      6  C   UNL     1      -0.901   3.090   1.449  0.00  0.00    +0.100 A 
ATOM      7  N   UNL     1       0.213   2.307   1.204  0.00  0.00    -0.316 N 
ATOM      8  C   UNL     1       1.446   2.877   1.147  0.00  0.00    +0.167 A 
ATOM      9  N   UNL     1       2.617   2.288   0.921  0.00  0.00    -0.152 NA
ATOM     10  S   UNL     1       1.126   4.556   1.440  0.00  0.00    -0.052 S 
ENDROOT
BRANCH   9  11
ATOM     11  C   UNL     1       3.737   3.015   0.900  0.00  0.00    +0.269 C 
ATOM     12  O   UNL     1       3.687   4.218   1.089  0.00  0.00    -0.268 OA
BRANCH  11  13
ATOM     13  C   UNL     1       5.042   2.358   0.648  0.00  0.00    +0.039 A 
ATOM     14  C   UNL     1       5.100   0.980   0.438  0.00  0.00    +0.014 A 
ATOM     15  C   UNL     1       6.312   0.370   0.198  0.00  0.00    +0.012 A 
ATOM     16  C   UNL     1       7.484   1.130   0.176  0.00  0.00    +0.022 A 
ATOM     17  C   UNL     1       7.426   2.509   0.393  0.00  0.00    +0.012 A 
ATOM     18  C   UNL     1       6.212   3.118   0.627  0.00  0.00    +0.014 A 
BRANCH  16  19
ATOM     19  C   UNL     1       8.786   0.475  -0.076  0.00  0.00    +0.193 C 
ATOM     20  O   UNL     1       8.986  -0.654   0.326  0.00  0.00    -0.287 OA
BRANCH  19  21
ATOM     21  C   UNL     1       9.843   1.194  -0.816  0.00  0.00    +0.022 A 
ATOM     22  C   UNL     1       9.565   2.422  -1.420  0.00  0.00    +0.012 A 
ATOM     23  C   UNL     1      10.559   3.091  -2.105  0.00  0.00    +0.001 A 
ATOM     24  C   UNL     1      11.825   2.541  -2.205  0.00  0.00    +0.000 A 
ATOM     25  C   UNL     1      12.105   1.321  -1.614  0.00  0.00    +0.001 A 
ATOM     26  C   UNL     1      11.123   0.645  -0.921  0.00  0.00    +0.012 A 
ENDBRANCH  19  21
ENDBRANCH  16  19
ENDBRANCH  11  13
ENDBRANCH   9  11
BRANCH   1  27
ATOM     27  O   UNL     1      -2.571   1.378   1.387  0.00  0.00    -0.490 OA
BRANCH  27  29
ATOM     28  C   UNL     1      -4.123  -0.473   1.286  0.00  0.00    +0.048 C 
ATOM     29  C   UNL     1      -3.954   1.033   1.497  0.00  0.00    +0.226 C 
ENDBRANCH  27  29
ENDBRANCH   1  27
BRANCH   7  30
ATOM     30  C   UNL     1       0.064   0.864   1.001  0.00  0.00    +0.152 C 
BRANCH  30  31
ATOM     31  C   UNL     1       0.177   0.145   2.347  0.00  0.00    +0.181 C 
BRANCH  31  32
ATOM     32  O   UNL     1       0.030  -1.262   2.150  0.00  0.00    -0.381 OA
ATOM     33  C   UNL     1       0.121  -2.031   3.351  0.00  0.00    +0.194 C 
ENDBRANCH  31  32
ENDBRANCH  30  31
ENDBRANCH   7  30
TORSDOF 9
