REMARK  Name = ZINC15049494
REMARK  11 active torsions:
REMARK  status: ('A' for Active; 'I' for Inactive)
REMARK    1  A    between atoms: C_1  and  C_2
REMARK    2  A    between atoms: C_2  and  C_4
REMARK    3  A    between atoms: C_2  and  C_10
REMARK    4  A    between atoms: C_4  and  C_5
REMARK    5  A    between atoms: C_5  and  C_6
REMARK    6  A    between atoms: C_6  and  O_8
REMARK    7  A    between atoms: O_8  and  C_9
REMARK    8  A    between atoms: C_16  and  C_37
REMARK    9  A    between atoms: C_17  and  O_36
REMARK   10  A    between atoms: C_28  and  C_35
REMARK   11  A    between atoms: C_31  and  O_34
REMARK                            x       y       z     vdW  Elec       q    Type
REMARK                         _______ _______ _______ _____ _____    ______ ____
ROOT
ATOM      1  C   UNL     1      -5.033   0.772   0.140  0.00  0.00    +0.001 C 
ATOM      2  C   UNL     1      -6.333   1.618   0.194  0.00  0.00    +0.005 C 
ATOM      3  C   UNL     1      -7.149   1.257  -1.078  0.00  0.00    +0.005 C 
ATOM      4  C   UNL     1      -6.067   0.712  -2.022  0.00  0.00    +0.001 C 
ATOM      5  C   UNL     1      -5.216  -0.148  -1.069  0.00  0.00    +0.000 C 
ATOM      6  C   UNL     1      -3.993  -0.629  -1.811  0.00  0.00    +0.121 C 
ATOM      7  C   UNL     1      -4.482  -1.537  -2.966  0.00  0.00    +0.036 C 
ATOM      8  C   UNL     1      -5.376  -0.755  -3.911  0.00  0.00    +0.001 C 
ATOM      9  C   UNL     1      -6.535  -0.033  -3.245  0.00  0.00    -0.004 C 
ATOM     10  C   UNL     1      -7.796  -0.839  -3.014  0.00  0.00    +0.004 C 
ATOM     11  C   UNL     1      -7.859  -2.065  -3.936  0.00  0.00    +0.004 C 
ATOM     12  C   UNL     1      -7.286  -1.616  -5.274  0.00  0.00    -0.002 C 
ATOM     13  C   UNL     1      -5.764  -1.523  -5.162  0.00  0.00    -0.026 C 
ATOM     14  C   UNL     1      -5.253  -0.828  -6.428  0.00  0.00    +0.010 C 
ATOM     15  C   UNL     1      -5.647  -1.641  -7.661  0.00  0.00    +0.032 C 
ATOM     16  C   UNL     1      -7.152  -1.873  -7.736  0.00  0.00    +0.115 C 
ATOM     17  C   UNL     1      -7.689  -2.497  -6.443  0.00  0.00    +0.035 C 
ATOM     18  C   UNL     1      -5.164  -2.929  -5.109  0.00  0.00    +0.012 C 
ATOM     19  C   UNL     1      -5.984  -1.373  -0.544  0.00  0.00    +0.014 C 
ENDROOT
BRANCH   1  21
ATOM     20  C   UNL     1      -4.015   2.664  -1.122  0.00  0.00    +0.008 C 
ATOM     21  C   UNL     1      -3.814   1.677   0.029  0.00  0.00    -0.010 C 
BRANCH  21  22
ATOM     22  C   UNL     1      -3.632   2.449   1.337  0.00  0.00    +0.014 C 
BRANCH  22  23
ATOM     23  C   UNL     1      -2.327   3.246   1.281  0.00  0.00    +0.121 C 
BRANCH  23  24
ATOM     24  C   UNL     1      -2.147   4.007   2.569  0.00  0.00    +0.307 C 
ATOM     25  O   UNL     1      -2.977   3.921   3.443  0.00  0.00    -0.251 OA
BRANCH  24  26
ATOM     26  O   UNL     1      -1.062   4.776   2.749  0.00  0.00    -0.468 OA
ATOM     27  C   UNL     1      -0.951   5.476   4.016  0.00  0.00    +0.280 C 
ENDBRANCH  24  26
ENDBRANCH  23  24
ENDBRANCH  22  23
ENDBRANCH  21  22
ENDBRANCH   1  21
BRANCH  16  28
ATOM     28  O   UNL     1      -7.816  -0.629  -7.973  0.00  0.00    -0.392 OA
ATOM     29  H   UNL     1      -7.526  -0.176  -8.776  0.00  0.00    +0.210 HD
ENDBRANCH  16  28
BRANCH   6  30
ATOM     30  O   UNL     1      -3.258   0.454  -2.388  0.00  0.00    -0.391 OA
ATOM     31  H   UNL     1      -2.486   0.177  -2.901  0.00  0.00    +0.210 HD
ENDBRANCH   6  30
TORSDOF 7
