REMARK  Name = ZINC63386850
REMARK  7 active torsions:
REMARK  status: ('A' for Active; 'I' for Inactive)
REMARK    1  A    between atoms: C_6  and  C_11
REMARK    2  A    between atoms: C_11  and  C_12
REMARK    3  A    between atoms: C_12  and  N_13
REMARK    4  A    between atoms: C_16  and  C_21
REMARK    5  A    between atoms: C_21  and  C_22
REMARK    6  A    between atoms: C_22  and  C_23
REMARK    7  A    between atoms: N_25  and  C_26
REMARK                            x       y       z     vdW  Elec       q    Type
REMARK                         _______ _______ _______ _____ _____    ______ ____
ROOT
ATOM      1  N   UNL     1       5.000  -3.595  -1.503  0.00  0.00    -0.224 N 
ATOM      2  C   UNL     1       6.301  -3.935  -1.415  0.00  0.00    +0.243 C 
ATOM      3  O   UNL     1       7.249  -3.185  -1.314  0.00  0.00    -0.273 OA
ATOM      4  C   UNL     1       6.333  -5.449  -1.467  0.00  0.00    +0.161 C 
ATOM      5  N   UNL     1       4.914  -5.822  -1.590  0.00  0.00    -0.288 N 
ATOM      6  C   UNL     1       4.214  -4.673  -1.598  0.00  0.00    +0.309 C 
ATOM      7  O   UNL     1       3.003  -4.620  -1.684  0.00  0.00    -0.252 OA
ATOM      8  H   UNL     1       4.553  -6.721  -1.650  0.00  0.00    +0.151 HD
ENDROOT
BRANCH   1   9
ATOM      9  C   UNL     1       4.508  -2.215  -1.491  0.00  0.00    +0.122 C 
BRANCH   9  10
ATOM     10  C   UNL     1       4.231  -1.785  -0.049  0.00  0.00    +0.052 C 
BRANCH  10  16
ATOM     11  C   UNL     1      -0.017   1.399   0.010  0.00  0.00    +0.022 A 
ATOM     12  C   UNL     1       1.109   2.143   0.003  0.00  0.00    +0.027 A 
ATOM     13  C   UNL     1       2.385   1.516  -0.013  0.00  0.00    +0.043 A 
ATOM     14  N   UNL     1       3.600   2.009  -0.022  0.00  0.00    -0.380 N 
ATOM     15  C   UNL     1       4.557   0.897  -0.038  0.00  0.00    +0.144 C 
ATOM     16  C   UNL     1       3.724  -0.366  -0.036  0.00  0.00    -0.040 C 
ATOM     17  C   UNL     1       2.433   0.036  -0.021  0.00  0.00    +0.000 A 
ATOM     18  C   UNL     1       1.163  -0.699  -0.013  0.00  0.00    +0.030 A 
ATOM     19  C   UNL     1       0.002  -0.004   0.002  0.00  0.00    +0.042 A 
ATOM     20 CL   UNL     1      -1.502  -0.870   0.012  0.00  0.00    -0.084 Cl
ATOM     21  H   UNL     1       3.828   2.952  -0.020  0.00  0.00    +0.160 HD
ENDBRANCH  10  16
ENDBRANCH   9  10
ENDBRANCH   1   9
BRANCH   4  22
ATOM     22  C   UNL     1       7.127  -5.930  -2.684  0.00  0.00    +0.041 C 
BRANCH  22  23
ATOM     23  C   UNL     1       7.249  -7.454  -2.644  0.00  0.00    +0.098 C 
BRANCH  23  24
ATOM     24  C   UNL     1       8.030  -7.927  -3.842  0.00  0.00    +0.213 C 
ATOM     25  O   UNL     1       8.448  -7.124  -4.649  0.00  0.00    -0.276 OA
ATOM     26  N   UNL     1       8.265  -9.243  -4.018  0.00  0.00    -0.312 N 
ATOM     27  H   UNL     1       7.931  -9.885  -3.372  0.00  0.00    +0.149 HD
BRANCH  26  28
ATOM     28  C   UNL     1       9.024  -9.703  -5.183  0.00  0.00    +0.073 C 
ATOM     29  C   UNL     1       8.073  -9.935  -6.375  0.00  0.00    +0.022 C 
ATOM     30  C   UNL     1       8.651 -11.186  -7.083  0.00  0.00    +0.002 C 
ATOM     31  C   UNL     1       9.117 -12.066  -5.897  0.00  0.00    +0.002 C 
ATOM     32  C   UNL     1       9.687 -11.057  -4.879  0.00  0.00    +0.022 C 
ENDBRANCH  26  28
ENDBRANCH  23  24
ENDBRANCH  22  23
ENDBRANCH   4  22
TORSDOF 7
