REMARK  Name = ZINC16923645
REMARK  6 active torsions:
REMARK  status: ('A' for Active; 'I' for Inactive)
REMARK    1  A    between atoms: C_1  and  C_2
REMARK    2  A    between atoms: C_2  and  N_14
REMARK    3  A    between atoms: C_3  and  C_4
REMARK    4  A    between atoms: C_8  and  O_11
REMARK    5  A    between atoms: C_9  and  O_10
REMARK    6  A    between atoms: O_11  and  C_12
REMARK                            x       y       z     vdW  Elec       q    Type
REMARK                         _______ _______ _______ _____ _____    ______ ____
ROOT
ATOM      1  C   UNL     1      -4.157   0.691   2.809  0.00  0.00    +0.023 A 
ATOM      2  C   UNL     1      -4.865  -0.317   2.152  0.00  0.00    +0.027 A 
ATOM      3  C   UNL     1      -4.249  -1.063   1.168  0.00  0.00    +0.022 A 
ATOM      4  C   UNL     1      -2.931  -0.812   0.823  0.00  0.00    +0.064 A 
ATOM      5  C   UNL     1      -2.216   0.182   1.472  0.00  0.00    +0.163 A 
ATOM      6  C   UNL     1      -2.825   0.941   2.465  0.00  0.00    +0.166 A 
ATOM      7 BR   UNL     1      -5.211  -2.427   0.279  0.00  0.00    -0.050 Br
ENDROOT
BRANCH   1  10
ATOM      8  C   UNL     1      -6.793   1.621   2.417  0.00  0.00    +0.071 C 
ATOM      9  C   UNL     1      -6.075   1.873   3.718  0.00  0.00    +0.101 C 
ATOM     10  C   UNL     1      -4.814   1.492   3.863  0.00  0.00    +0.039 C 
BRANCH   9  11
ATOM     11  N   UNL     1      -6.779   2.546   4.833  0.00  0.00    +0.052 N 
ATOM     12  O   UNL     1      -6.199   2.750   5.884  0.00  0.00    -0.126 OA
ATOM     13  O   UNL     1      -7.938   2.896   4.699  0.00  0.00    -0.126 OA
ENDBRANCH   9  11
ENDBRANCH   1  10
BRANCH   6  14
ATOM     14  O   UNL     1      -2.128   1.920   3.100  0.00  0.00    -0.503 OA
ATOM     15  H   UNL     1      -2.192   2.787   2.676  0.00  0.00    +0.292 HD
ENDBRANCH   6  14
BRANCH   5  16
ATOM     16  O   UNL     1      -0.921   0.420   1.133  0.00  0.00    -0.491 OA
ATOM     17  C   UNL     1      -0.359  -0.397   0.104  0.00  0.00    +0.277 C 
ENDBRANCH   5  16
TORSDOF 4
