REMARK  Name = ZINC39324805
REMARK  9 active torsions:
REMARK  status: ('A' for Active; 'I' for Inactive)
REMARK    1  A    between atoms: C_1  and  C_2
REMARK    2  A    between atoms: C_7  and  C_14
REMARK    3  A    between atoms: C_14  and  N_15
REMARK    4  A    between atoms: N_15  and  C_16
REMARK    5  A    between atoms: N_15  and  S_25
REMARK    6  A    between atoms: C_16  and  C_17
REMARK    7  A    between atoms: C_20  and  O_23
REMARK    8  A    between atoms: O_23  and  C_24
REMARK    9  A    between atoms: S_25  and  C_28
REMARK                            x       y       z     vdW  Elec       q    Type
REMARK                         _______ _______ _______ _____ _____    ______ ____
ROOT
ATOM      1  N   UNL     1       1.340  -6.499   2.603  0.00  0.00    -0.171 NA
ENDROOT
BRANCH   1   2
ATOM      2  S   UNL     1       2.077  -5.776   3.898  0.00  0.00    +0.063 S 
ATOM      3  O   UNL     1       1.439  -4.519   4.079  0.00  0.00    -0.153 OA
ATOM      4  O   UNL     1       2.140  -6.754   4.927  0.00  0.00    -0.153 OA
BRANCH   2   5
ATOM      5  C   UNL     1       3.740  -5.434   3.426  0.00  0.00    +0.134 A 
ATOM      6  C   UNL     1       4.147  -4.152   3.270  0.00  0.00    +0.031 A 
ATOM      7  C   UNL     1       5.456  -3.844   2.898  0.00  0.00    +0.004 A 
ATOM      8  C   UNL     1       6.375  -4.812   2.676  0.00  0.00    +0.031 A 
ATOM      9  C   UNL     1       6.019  -6.181   2.821  0.00  0.00    +0.102 A 
ATOM     10  C   UNL     1       4.652  -6.503   3.216  0.00  0.00    +0.126 A 
ATOM     11  N   UNL     1       4.433  -7.814   3.326  0.00  0.00    -0.189 NA
ATOM     12  S   UNL     1       5.834  -8.519   2.968  0.00  0.00    +0.117 S 
ATOM     13  N   UNL     1       6.782  -7.260   2.647  0.00  0.00    -0.191 NA
ENDBRANCH   2   5
ENDBRANCH   1   2
BRANCH   1  14
ATOM     14  C   UNL     1       1.301  -5.817   1.307  0.00  0.00    +0.126 C 
BRANCH  14  21
ATOM     15  C   UNL     1      -2.445   0.275  -0.941  0.00  0.00    +0.044 C 
ATOM     16  C   UNL     1      -1.839  -1.097  -0.794  0.00  0.00    -0.049 A 
ATOM     17  C   UNL     1      -1.312  -1.720  -1.925  0.00  0.00    +0.004 A 
ATOM     18  C   UNL     1      -0.753  -2.956  -1.855  0.00  0.00    +0.010 A 
ATOM     19  C   UNL     1      -0.708  -3.638  -0.561  0.00  0.00    -0.007 A 
ATOM     20  C   UNL     1      -0.156  -4.879  -0.443  0.00  0.00    -0.003 C 
ATOM     21  C   UNL     1      -0.151  -5.509   0.936  0.00  0.00    +0.114 C 
ATOM     22  C   UNL     1      -0.759  -4.711   2.067  0.00  0.00    +0.225 C 
ATOM     23  O   UNL     1      -0.782  -5.169   3.194  0.00  0.00    -0.275 OA
ATOM     24  N   UNL     1      -1.266  -3.513   1.827  0.00  0.00    -0.284 N 
ATOM     25  C   UNL     1      -1.272  -2.955   0.617  0.00  0.00    +0.041 A 
ATOM     26  C   UNL     1      -1.823  -1.673   0.436  0.00  0.00    +0.027 A 
ATOM     27  H   UNL     1      -1.651  -3.018   2.566  0.00  0.00    +0.155 HD
ENDBRANCH  14  21
ENDBRANCH   1  14
BRANCH   1  28
ATOM     28  C   UNL     1       0.726  -7.821   2.753  0.00  0.00    +0.144 C 
BRANCH  28  29
ATOM     29  C   UNL     1       1.709  -8.882   2.328  0.00  0.00    -0.031 A 
ATOM     30  C   UNL     1       1.747  -9.299   1.010  0.00  0.00    +0.008 A 
ATOM     31  C   UNL     1       2.646 -10.271   0.618  0.00  0.00    +0.046 A 
ATOM     32  C   UNL     1       3.512 -10.829   1.547  0.00  0.00    +0.120 A 
ATOM     33  C   UNL     1       3.472 -10.409   2.869  0.00  0.00    +0.046 A 
ATOM     34  C   UNL     1       2.574  -9.433   3.255  0.00  0.00    +0.008 A 
BRANCH  32  35
ATOM     35  O   UNL     1       4.397 -11.787   1.164  0.00  0.00    -0.495 OA
ATOM     36  C   UNL     1       5.257 -12.317   2.174  0.00  0.00    +0.277 C 
ENDBRANCH  32  35
ENDBRANCH  28  29
ENDBRANCH   1  28
TORSDOF 7
