REMARK  Name = ZINC22702497
REMARK  14 active torsions:
REMARK  status: ('A' for Active; 'I' for Inactive)
REMARK    1  A    between atoms: C_1  and  C_2
REMARK    2  A    between atoms: C_3  and  C_33
REMARK    3  A    between atoms: C_4  and  C_32
REMARK    4  A    between atoms: C_7  and  C_8
REMARK    5  A    between atoms: C_8  and  C_10
REMARK    6  A    between atoms: C_10  and  C_12
REMARK    7  A    between atoms: C_10  and  S_13
REMARK    8  A    between atoms: S_13  and  C_14
REMARK    9  A    between atoms: C_17  and  C_26
REMARK   10  A    between atoms: N_18  and  C_19
REMARK   11  A    between atoms: C_19  and  C_20
REMARK   12  A    between atoms: C_26  and  N_27
REMARK   13  A    between atoms: C_33  and  O_35
REMARK   14  A    between atoms: O_35  and  C_36
REMARK                            x       y       z     vdW  Elec       q    Type
REMARK                         _______ _______ _______ _____ _____    ______ ____
ROOT
ATOM      1  C   UNL     1       3.512   1.606   6.189  0.00  0.00    +0.193 A 
ATOM      2  N   UNL     1       2.749   2.393   6.912  0.00  0.00    -0.123 NA
ATOM      3  N   UNL     1       3.233   2.501   8.098  0.00  0.00    -0.135 NA
ATOM      4  C   UNL     1       4.327   1.802   8.200  0.00  0.00    +0.118 A 
ATOM      5  N   UNL     1       4.545   1.207   6.988  0.00  0.00    -0.303 N 
ENDROOT
BRANCH   1   6
ATOM      6  S   UNL     1       3.255   1.156   4.505  0.00  0.00    -0.075 S 
BRANCH   6   7
ATOM      7  C   UNL     1       1.724   2.061   4.168  0.00  0.00    +0.124 C 
ATOM      8  C   UNL     1       1.990   3.565   4.261  0.00  0.00    +0.028 C 
BRANCH   7   9
ATOM      9  C   UNL     1       1.235   1.722   2.783  0.00  0.00    +0.192 C 
ATOM     10  O   UNL     1       2.020   1.343   1.938  0.00  0.00    -0.289 OA
BRANCH   9  17
ATOM     11  C   UNL     1      -0.013   1.086   0.008  0.00  0.00    +0.047 C 
ATOM     12  C   UNL     1      -0.718   1.572   1.248  0.00  0.00    -0.008 A 
ATOM     13  C   UNL     1      -2.098   1.839   1.381  0.00  0.00    +0.083 A 
ATOM     14  C   UNL     1      -2.309   2.259   2.683  0.00  0.00    +0.028 A 
ATOM     15  N   UNL     1      -1.134   2.266   3.328  0.00  0.00    -0.355 N 
ATOM     16  H   UNL     1      -1.087   2.576   4.383  0.00  0.00    +0.166 HD
ATOM     17  C   UNL     1      -0.139   1.847   2.468  0.00  0.00    +0.087 A 
ATOM     18  C   UNL     1      -3.638   2.651   3.274  0.00  0.00    +0.064 C 
BRANCH  13  19
ATOM     19  C   UNL     1      -3.121   1.694   0.332  0.00  0.00    +0.341 C 
ATOM     20  O   UNL     1      -3.708   0.638   0.197  0.00  0.00    -0.245 OA
BRANCH  19  21
ATOM     21  O   UNL     1      -3.408   2.732  -0.478  0.00  0.00    -0.464 OA
ATOM     22  C   UNL     1      -4.427   2.518  -1.489  0.00  0.00    +0.280 C 
ENDBRANCH  19  21
ENDBRANCH  13  19
ENDBRANCH   9  17
ENDBRANCH   7   9
ENDBRANCH   6   7
ENDBRANCH   1   6
BRANCH   5  23
ATOM     23  C   UNL     1       5.655   0.324   6.622  0.00  0.00    +0.160 C 
BRANCH  23  24
ATOM     24  C   UNL     1       6.794   1.148   6.079  0.00  0.00    -0.028 A 
ATOM     25  C   UNL     1       6.871   1.414   4.725  0.00  0.00    +0.005 A 
ATOM     26  C   UNL     1       7.913   2.174   4.227  0.00  0.00    +0.000 A 
ATOM     27  C   UNL     1       8.884   2.659   5.083  0.00  0.00    +0.000 A 
ATOM     28  C   UNL     1       8.810   2.389   6.436  0.00  0.00    +0.000 A 
ATOM     29  C   UNL     1       7.766   1.634   6.935  0.00  0.00    +0.005 A 
ENDBRANCH  23  24
ENDBRANCH   5  23
BRANCH   4  30
ATOM     30  C   UNL     1       5.194   1.673   9.426  0.00  0.00    -0.001 C 
BRANCH  30  31
ATOM     31  N   UNL     1       6.214   2.730   9.418  0.00  0.00    +0.384 N 
ATOM     32  C   UNL     1       5.594   4.068   9.239  0.00  0.00    -0.078 C 
ATOM     33  C   UNL     1       6.680   5.036   9.771  0.00  0.00    -0.020 C 
ATOM     34  C   UNL     1       7.271   4.265  10.974  0.00  0.00    -0.020 C 
ATOM     35  C   UNL     1       6.929   2.787  10.712  0.00  0.00    -0.078 C 
ATOM     36  H   UNL     1       6.896   2.481   8.591  0.00  0.00    -0.081 HD
ENDBRANCH  30  31
ENDBRANCH   4  30
TORSDOF 10
