REMARK  Name = ZINC01244144
REMARK  6 active torsions:
REMARK  status: ('A' for Active; 'I' for Inactive)
REMARK    1  A    between atoms: C_4  and  C_7
REMARK    2  A    between atoms: C_7  and  C_8
REMARK    3  A    between atoms: C_7  and  C_14
REMARK    4  A    between atoms: N_16  and  C_17
REMARK    5  A    between atoms: C_17  and  C_18
REMARK    6  A    between atoms: N_20  and  N_21
REMARK                            x       y       z     vdW  Elec       q    Type
REMARK                         _______ _______ _______ _____ _____    ______ ____
ROOT
ATOM      1  C   UNL     1      -5.478   4.678   0.194  0.00  0.00    +0.201 C 
ENDROOT
BRANCH   1   4
ATOM      2  C   UNL     1      -7.336   6.254   0.155  0.00  0.00    +0.225 C 
ATOM      3  O   UNL     1      -8.099   5.311   0.181  0.00  0.00    -0.275 OA
ATOM      4  N   UNL     1      -6.005   6.045   0.159  0.00  0.00    -0.306 N 
ATOM      5  H   UNL     1      -5.395   6.799   0.138  0.00  0.00    +0.149 HD
BRANCH   2   6
ATOM      6  C   UNL     1      -7.878   7.660   0.119  0.00  0.00    +0.135 C 
BRANCH   6  10
ATOM      7  C   UNL     1     -12.148   7.541   0.128  0.00  0.00    +0.000 A 
ATOM      8  C   UNL     1     -11.478   8.239  -0.860  0.00  0.00    +0.000 A 
ATOM      9  C   UNL     1     -10.096   8.277  -0.863  0.00  0.00    +0.005 A 
ATOM     10  C   UNL     1      -9.384   7.618   0.122  0.00  0.00    -0.031 A 
ATOM     11  C   UNL     1     -10.054   6.916   1.107  0.00  0.00    +0.005 A 
ATOM     12  C   UNL     1     -11.436   6.882   1.113  0.00  0.00    +0.000 A 
ENDBRANCH   6  10
BRANCH   6  13
ATOM     13  C   UNL     1      -7.394   8.416   1.329  0.00  0.00    -0.031 A 
ATOM     14  C   UNL     1      -7.562   7.881   2.592  0.00  0.00    +0.005 A 
ATOM     15  C   UNL     1      -7.114   8.572   3.701  0.00  0.00    +0.000 A 
ATOM     16  C   UNL     1      -6.506   9.805   3.549  0.00  0.00    +0.000 A 
ATOM     17  C   UNL     1      -6.342  10.343   2.286  0.00  0.00    +0.000 A 
ATOM     18  C   UNL     1      -6.786   9.649   1.176  0.00  0.00    +0.005 A 
ENDBRANCH   6  13
ENDBRANCH   2   6
ENDBRANCH   1   4
BRANCH   1  19
ATOM     19  C   UNL     1      -3.972   4.720   0.190  0.00  0.00    +0.249 C 
ATOM     20  O   UNL     1      -3.395   5.786   0.161  0.00  0.00    -0.272 OA
ATOM     21  N   UNL     1      -3.266   3.572   0.220  0.00  0.00    -0.205 N 
ATOM     22  H   UNL     1      -3.727   2.720   0.243  0.00  0.00    +0.177 HD
BRANCH  21  23
ATOM     23  N   UNL     1      -1.865   3.611   0.216  0.00  0.00    -0.174 NA
ATOM     24  C   UNL     1      -1.179   2.495   0.245  0.00  0.00    +0.153 C 
ATOM     25  C   UNL     1       0.295   2.342   0.247  0.00  0.00    +0.029 A 
ATOM     26  C   UNL     1       1.346   3.252   0.222  0.00  0.00    +0.027 A 
ATOM     27  C   UNL     1       2.649   2.793   0.232  0.00  0.00    +0.019 A 
ATOM     28  C   UNL     1       2.905   1.432   0.267  0.00  0.00    +0.017 A 
ATOM     29  C   UNL     1       1.868   0.522   0.293  0.00  0.00    +0.025 A 
ATOM     30  C   UNL     1       0.549   0.966   0.283  0.00  0.00    +0.043 A 
ATOM     31  N   UNL     1      -0.658   0.275   0.303  0.00  0.00    -0.280 N 
ATOM     32  C   UNL     1      -1.706   1.115   0.277  0.00  0.00    +0.269 C 
ATOM     33  O   UNL     1      -2.880   0.797   0.281  0.00  0.00    -0.268 OA
ATOM     34 BR   UNL     1       4.084   4.024   0.197  0.00  0.00    -0.050 Br
ATOM     35  H   UNL     1      -0.733  -0.692   0.329  0.00  0.00    +0.155 HD
ENDBRANCH  21  23
ENDBRANCH   1  19
TORSDOF 6
