REMARK  Name = ZINC63295621
REMARK  10 active torsions:
REMARK  status: ('A' for Active; 'I' for Inactive)
REMARK    1  A    between atoms: C_1  and  O_2
REMARK    2  A    between atoms: O_2  and  C_3
REMARK    3  A    between atoms: C_7  and  C_9
REMARK    4  A    between atoms: C_13  and  C_35
REMARK    5  A    between atoms: N_15  and  C_22
REMARK    6  A    between atoms: C_22  and  C_23
REMARK    7  A    between atoms: C_23  and  C_24
REMARK    8  A    between atoms: C_27  and  O_33
REMARK    9  A    between atoms: O_33  and  C_34
REMARK   10  A    between atoms: C_38  and  O_41
REMARK                            x       y       z     vdW  Elec       q    Type
REMARK                         _______ _______ _______ _____ _____    ______ ____
ROOT
ATOM      1  C   UNL     1      -3.915  -4.811   0.573  0.00  0.00    +0.136 C 
ATOM      2  C   UNL     1      -3.071  -4.871  -0.721  0.00  0.00    +0.077 C 
ATOM      3  C   UNL     1      -2.809  -3.439  -1.225  0.00  0.00    +0.114 C 
ATOM      4  N   UNL     1      -4.011  -3.045  -1.965  0.00  0.00    -0.292 N 
ATOM      5  C   UNL     1      -4.768  -4.109  -2.274  0.00  0.00    +0.243 C 
ATOM      6  O   UNL     1      -5.801  -4.061  -2.906  0.00  0.00    -0.273 OA
ATOM      7  C   UNL     1      -4.150  -5.392  -1.721  0.00  0.00    +0.218 C 
ATOM      8  N   UNL     1      -5.125  -6.069  -0.853  0.00  0.00    -0.203 NA
ATOM      9  N   UNL     1      -5.005  -5.767   0.337  0.00  0.00    -0.305 N 
ATOM     10  H   UNL     1      -5.568  -6.122   1.042  0.00  0.00    +0.183 HD
ENDROOT
BRANCH   1  15
ATOM     11  C   UNL     1      -5.888  -1.627   0.078  0.00  0.00    +0.120 A 
ATOM     12  C   UNL     1      -5.472  -0.874   1.167  0.00  0.00    +0.045 A 
ATOM     13  C   UNL     1      -4.556  -1.398   2.058  0.00  0.00    +0.004 A 
ATOM     14  C   UNL     1      -4.053  -2.672   1.865  0.00  0.00    +0.006 A 
ATOM     15  C   UNL     1      -4.465  -3.424   0.780  0.00  0.00    -0.020 A 
ATOM     16  C   UNL     1      -5.386  -2.906  -0.111  0.00  0.00    +0.051 A 
BRANCH  11  18
ATOM     17  C   UNL     1      -7.363   0.154  -0.474  0.00  0.00    +0.277 C 
ATOM     18  O   UNL     1      -6.789  -1.113  -0.800  0.00  0.00    -0.495 OA
ENDBRANCH  11  18
ENDBRANCH   1  15
BRANCH   3  19
ATOM     19  C   UNL     1      -2.589  -2.511  -0.058  0.00  0.00    -0.026 A 
ATOM     20  C   UNL     1      -3.296  -1.326   0.025  0.00  0.00    +0.009 A 
ATOM     21  C   UNL     1      -3.095  -0.474   1.093  0.00  0.00    +0.046 A 
ATOM     22  C   UNL     1      -2.184  -0.808   2.084  0.00  0.00    +0.117 A 
ATOM     23  C   UNL     1      -1.476  -1.998   1.999  0.00  0.00    +0.046 A 
ATOM     24  C   UNL     1      -1.684  -2.849   0.931  0.00  0.00    +0.009 A 
BRANCH  22  25
ATOM     25  O   UNL     1      -1.984   0.029   3.136  0.00  0.00    -0.507 OA
ATOM     26  H   UNL     1      -2.566  -0.140   3.889  0.00  0.00    +0.292 HD
ENDBRANCH  22  25
ENDBRANCH   3  19
BRANCH   4  27
ATOM     27  C   UNL     1      -4.345  -1.664  -2.322  0.00  0.00    +0.113 C 
BRANCH  27  28
ATOM     28  C   UNL     1      -4.859  -1.620  -3.763  0.00  0.00    +0.052 C 
BRANCH  28  29
ATOM     29  C   UNL     1      -5.202  -0.199  -4.130  0.00  0.00    -0.040 C 
ATOM     30  C   UNL     1      -4.409   0.688  -4.774  0.00  0.00    +0.002 A 
ATOM     31  C   UNL     1      -3.044   0.602  -5.303  0.00  0.00    +0.055 A 
ATOM     32  C   UNL     1      -2.496   1.679  -5.914  0.00  0.00    +0.121 A 
ATOM     33  C   UNL     1      -3.191   2.892  -6.062  0.00  0.00    +0.047 A 
ATOM     34  C   UNL     1      -4.450   3.069  -5.608  0.00  0.00    +0.029 A 
ATOM     35  C   UNL     1      -5.141   1.966  -4.930  0.00  0.00    +0.043 A 
ATOM     36  N   UNL     1      -6.337   1.873  -4.405  0.00  0.00    -0.380 N 
ATOM     37  C   UNL     1      -6.504   0.521  -3.860  0.00  0.00    +0.144 C 
ATOM     38  H   UNL     1      -7.002   2.579  -4.384  0.00  0.00    +0.160 HD
BRANCH  32  39
ATOM     39  O   UNL     1      -1.230   1.585  -6.399  0.00  0.00    -0.495 OA
ATOM     40  C   UNL     1      -0.691   2.746  -7.036  0.00  0.00    +0.277 C 
ENDBRANCH  32  39
ENDBRANCH  28  29
ENDBRANCH  27  28
ENDBRANCH   4  27
TORSDOF 8
