REMARK  Name = ZINC64120853
REMARK  8 active torsions:
REMARK  status: ('A' for Active; 'I' for Inactive)
REMARK    1  A    between atoms: C_1  and  C_2
REMARK    2  A    between atoms: C_2  and  C_4
REMARK    3  A    between atoms: C_2  and  C_14
REMARK    4  A    between atoms: C_4  and  C_5
REMARK    5  A    between atoms: C_17  and  C_20
REMARK    6  A    between atoms: N_22  and  C_23
REMARK    7  A    between atoms: N_22  and  C_24
REMARK    8  A    between atoms: C_24  and  C_25
REMARK                            x       y       z     vdW  Elec       q    Type
REMARK                         _______ _______ _______ _____ _____    ______ ____
ROOT
ATOM      1  C   UNL     1      -1.412  -0.526   0.013  0.00  0.00    +0.065 C 
ATOM      2  N   UNL     1      -1.953  -1.195   0.955  0.00  0.00    -0.093 NA
ATOM      3  O   UNL     1      -3.292  -1.556   0.683  0.00  0.00    -0.381 OA
ATOM      4  C   UNL     1      -3.760  -0.713  -0.390  0.00  0.00    +0.295 C 
ATOM      5  C   UNL     1      -2.434  -0.339  -1.092  0.00  0.00    +0.111 C 
ENDROOT
BRANCH   4   6
ATOM      6  C   UNL     1      -4.671  -1.474  -1.318  0.00  0.00    +0.259 C 
ATOM      7  O   UNL     1      -4.867  -2.658  -1.139  0.00  0.00    -0.271 OA
ATOM      8  N   UNL     1      -5.270  -0.840  -2.345  0.00  0.00    -0.298 N 
ATOM      9  C   UNL     1      -5.034   0.590  -2.561  0.00  0.00    +0.132 C 
BRANCH   8  10
ATOM     10  C   UNL     1      -6.156  -1.580  -3.247  0.00  0.00    +0.154 C 
BRANCH  10  11
ATOM     11  C   UNL     1      -7.589  -1.525  -2.713  0.00  0.00    +0.192 C 
ATOM     12  N   UNL     1      -8.016  -0.128  -2.560  0.00  0.00    -0.362 N 
ATOM     13  C   UNL     1      -8.291   0.061  -1.302  0.00  0.00    +0.060 A 
ATOM     14  C   UNL     1      -8.759   1.231  -0.547  0.00  0.00    +0.027 A 
ATOM     15  C   UNL     1      -8.962   1.127   0.782  0.00  0.00    +0.002 A 
ATOM     16  C   UNL     1      -8.744  -0.068   1.491  0.00  0.00    +0.002 A 
ATOM     17  C   UNL     1      -8.315  -1.198   0.895  0.00  0.00    +0.027 A 
ATOM     18  C   UNL     1      -8.060  -1.204  -0.552  0.00  0.00    +0.060 A 
ATOM     19  N   UNL     1      -7.651  -2.126  -1.375  0.00  0.00    -0.362 N 
ATOM     20  H   UNL     1      -8.081   0.533  -3.268  0.00  0.00    +0.162 HD
ATOM     21  H   UNL     1      -7.429  -3.042  -1.146  0.00  0.00    +0.162 HD
ENDBRANCH  10  11
ENDBRANCH   8  10
ENDBRANCH   4   6
BRANCH   1  23
ATOM     22  C   UNL     1      -0.019   1.526   0.010  0.00  0.00    +0.014 C 
ATOM     23  C   UNL     1       0.002  -0.004   0.002  0.00  0.00    +0.038 C 
BRANCH  23  24
ATOM     24  C   UNL     1       0.742  -0.511   1.242  0.00  0.00    +0.044 C 
BRANCH  24  25
ATOM     25  C   UNL     1       2.188  -0.092   1.170  0.00  0.00    -0.043 A 
ATOM     26  C   UNL     1       3.115  -0.915   0.557  0.00  0.00    +0.007 A 
ATOM     27  C   UNL     1       4.442  -0.535   0.488  0.00  0.00    +0.050 A 
ATOM     28  C   UNL     1       4.847   0.672   1.034  0.00  0.00    +0.166 A 
ATOM     29  C   UNL     1       3.913   1.501   1.651  0.00  0.00    +0.166 A 
ATOM     30  C   UNL     1       2.584   1.117   1.711  0.00  0.00    +0.053 A 
ATOM     31  O   UNL     1       4.554   2.619   2.103  0.00  0.00    -0.453 OA
ATOM     32  C   UNL     1       5.953   2.280   2.119  0.00  0.00    +0.466 C 
ATOM     33  O   UNL     1       6.072   1.270   1.099  0.00  0.00    -0.453 OA
ENDBRANCH  24  25
ENDBRANCH  23  24
ENDBRANCH   1  23
TORSDOF 6
