REMARK  Name = ZINC12559683
REMARK  9 active torsions:
REMARK  status: ('A' for Active; 'I' for Inactive)
REMARK    1  A    between atoms: C_1  and  N_2
REMARK    2  A    between atoms: N_2  and  S_3
REMARK    3  A    between atoms: S_3  and  C_6
REMARK    4  A    between atoms: C_9  and  N_15
REMARK    5  A    between atoms: C_10  and  N_12
REMARK    6  A    between atoms: N_15  and  C_16
REMARK    7  A    between atoms: C_16  and  C_18
REMARK    8  A    between atoms: C_16  and  C_25
REMARK    9  A    between atoms: N_29  and  C_30
REMARK                            x       y       z     vdW  Elec       q    Type
REMARK                         _______ _______ _______ _____ _____    ______ ____
ROOT
ATOM      1  N   UNL     1       6.407   0.615  -0.606  0.00  0.00    -0.329 N 
ATOM      2  H   UNL     1       6.959   0.062  -0.031  0.00  0.00    +0.147 HD
ENDROOT
BRANCH   1   6
ATOM      3  C   UNL     1       2.486  -0.514  -1.439  0.00  0.00    +0.108 A 
ATOM      4  C   UNL     1       2.961   0.708  -1.879  0.00  0.00    +0.030 A 
ATOM      5  C   UNL     1       4.260   1.086  -1.604  0.00  0.00    +0.027 A 
ATOM      6  C   UNL     1       5.092   0.236  -0.885  0.00  0.00    +0.059 A 
ATOM      7  C   UNL     1       4.612  -0.991  -0.445  0.00  0.00    +0.149 A 
ATOM      8  C   UNL     1       3.309  -1.360  -0.718  0.00  0.00    +0.063 A 
BRANCH   3   9
ATOM      9  S   UNL     1       0.827  -0.992  -1.791  0.00  0.00    +0.058 S 
ATOM     10  O   UNL     1       0.793  -2.411  -1.735  0.00  0.00    -0.153 OA
ATOM     11  O   UNL     1       0.432  -0.265  -2.946  0.00  0.00    -0.153 OA
BRANCH   9  13
ATOM     12  C   UNL     1      -0.264   0.993  -0.312  0.00  0.00    +0.127 C 
ATOM     13  N   UNL     1      -0.115  -0.446  -0.543  0.00  0.00    -0.193 NA
ATOM     14  H   UNL     1      -0.568  -1.079   0.035  0.00  0.00    +0.148 HD
ENDBRANCH   9  13
ENDBRANCH   3   9
BRANCH   7  15
ATOM     15  N   UNL     1       5.494  -1.900   0.321  0.00  0.00    +0.058 N 
ATOM     16  O   UNL     1       6.665  -1.991   0.033  0.00  0.00    -0.126 OA
ATOM     17  O   UNL     1       5.044  -2.551   1.235  0.00  0.00    -0.126 OA
ENDBRANCH   7  15
ENDBRANCH   1   6
BRANCH   1  18
ATOM     18  C   UNL     1       6.952   1.847  -1.181  0.00  0.00    +0.165 C 
BRANCH  18  19
ATOM     19  C   UNL     1       8.453   1.739  -1.268  0.00  0.00    -0.020 A 
ATOM     20  C   UNL     1       9.164   1.144  -0.242  0.00  0.00    +0.009 A 
ATOM     21  C   UNL     1      10.540   1.044  -0.321  0.00  0.00    +0.038 A 
ATOM     22  C   UNL     1      11.207   1.540  -1.428  0.00  0.00    +0.123 A 
ATOM     23  C   UNL     1      10.494   2.135  -2.456  0.00  0.00    +0.038 A 
ATOM     24  C   UNL     1       9.117   2.229  -2.377  0.00  0.00    +0.009 A 
ATOM     25  F   UNL     1      12.552   1.443  -1.506  0.00  0.00    -0.205 F 
ENDBRANCH  18  19
BRANCH  18  26
ATOM     26  C   UNL     1       6.583   3.016  -0.306  0.00  0.00    +0.112 A 
ATOM     27  N   UNL     1       6.477   4.256  -0.698  0.00  0.00    -0.348 N 
ATOM     28  C   UNL     1       6.132   5.023   0.347  0.00  0.00    +0.102 A 
ATOM     29  C   UNL     1       6.020   4.228   1.428  0.00  0.00    +0.104 A 
ATOM     30  N   UNL     1       6.301   2.954   1.014  0.00  0.00    -0.337 N 
ATOM     31  C   UNL     1       6.299   1.749   1.846  0.00  0.00    +0.150 C 
ATOM     32  H   UNL     1       6.624   4.573  -1.603  0.00  0.00    +0.167 HD
ENDBRANCH  18  26
ENDBRANCH   1  18
TORSDOF 7
