REMARK  Name = ZINC09846163
REMARK  11 active torsions:
REMARK  status: ('A' for Active; 'I' for Inactive)
REMARK    1  A    between atoms: C_1  and  C_2
REMARK    2  A    between atoms: C_5  and  N_8
REMARK    3  A    between atoms: C_9  and  C_11
REMARK    4  A    between atoms: C_11  and  N_12
REMARK    5  A    between atoms: C_16  and  C_17
REMARK    6  A    between atoms: C_19  and  C_34
REMARK    7  A    between atoms: N_20  and  C_23
REMARK    8  A    between atoms: C_21  and  C_22
REMARK    9  A    between atoms: C_26  and  N_29
REMARK   10  A    between atoms: C_30  and  O_32
REMARK   11  A    between atoms: O_32  and  C_33
REMARK                            x       y       z     vdW  Elec       q    Type
REMARK                         _______ _______ _______ _____ _____    ______ ____
ROOT
ATOM      1  N   UNL     1      -4.702   1.821   0.837  0.00  0.00    -0.212 N 
ATOM      2  C   UNL     1      -4.603   2.752   1.807  0.00  0.00    +0.269 C 
ATOM      3  O   UNL     1      -4.481   2.552   3.002  0.00  0.00    -0.268 OA
ATOM      4  C   UNL     1      -4.669   4.055   1.135  0.00  0.00    +0.098 C 
ATOM      5  C   UNL     1      -4.607   5.284   1.710  0.00  0.00    +0.038 C 
ATOM      6  N   UNL     1      -4.817   3.758  -0.229  0.00  0.00    -0.265 N 
ATOM      7  C   UNL     1      -4.831   2.420  -0.358  0.00  0.00    +0.314 C 
ATOM      8  O   UNL     1      -4.945   1.830  -1.415  0.00  0.00    -0.252 OA
ATOM      9  H   UNL     1      -4.895   4.403  -0.950  0.00  0.00    +0.157 HD
ENDROOT
BRANCH   5  10
ATOM     10  C   UNL     1      -4.304   5.411   3.139  0.00  0.00    -0.002 A 
ATOM     11  C   UNL     1      -3.417   4.552   3.934  0.00  0.00    +0.031 A 
ATOM     12  C   UNL     1      -3.438   5.035   5.188  0.00  0.00    +0.022 A 
ATOM     13  N   UNL     1      -4.264   6.122   5.237  0.00  0.00    -0.317 N 
ATOM     14  C   UNL     1      -4.790   6.366   4.011  0.00  0.00    +0.028 A 
ATOM     15  C   UNL     1      -5.741   7.481   3.661  0.00  0.00    +0.064 C 
ATOM     16  C   UNL     1      -2.671   4.467   6.355  0.00  0.00    +0.064 C 
BRANCH  13  17
ATOM     17  C   UNL     1      -4.527   6.879   6.388  0.00  0.00    +0.047 A 
ATOM     18  C   UNL     1      -5.808   6.909   6.922  0.00  0.00    +0.028 A 
ATOM     19  C   UNL     1      -6.066   7.651   8.057  0.00  0.00    +0.025 A 
ATOM     20  C   UNL     1      -5.045   8.374   8.660  0.00  0.00    +0.037 A 
ATOM     21  C   UNL     1      -3.764   8.348   8.123  0.00  0.00    +0.025 A 
ATOM     22  C   UNL     1      -3.506   7.602   6.990  0.00  0.00    +0.028 A 
BRANCH  20  23
ATOM     23  N   UNL     1      -5.307   9.131   9.809  0.00  0.00    -0.251 N 
ATOM     24  C   UNL     1      -6.222   8.704  10.703  0.00  0.00    +0.404 C 
ATOM     25  O   UNL     1      -6.755   7.622  10.556  0.00  0.00    -0.226 OA
ATOM     26  H   UNL     1      -4.830   9.962   9.962  0.00  0.00    +0.158 HD
BRANCH  24  27
ATOM     27  O   UNL     1      -6.544   9.477  11.757  0.00  0.00    -0.453 OA
ATOM     28  C   UNL     1      -7.537   8.954  12.679  0.00  0.00    +0.282 C 
ENDBRANCH  24  27
ENDBRANCH  20  23
ENDBRANCH  13  17
ENDBRANCH   5  10
BRANCH   1  29
ATOM     29  C   UNL     1      -4.679   0.373   1.054  0.00  0.00    +0.214 C 
BRANCH  29  31
ATOM     30  N   UNL     1      -2.992  -1.434   1.147  0.00  0.00    -0.284 N 
ATOM     31  C   UNL     1      -3.258  -0.124   0.977  0.00  0.00    +0.235 C 
ATOM     32  O   UNL     1      -2.354   0.655   0.761  0.00  0.00    -0.274 OA
ATOM     33  H   UNL     1      -3.720  -2.069   1.240  0.00  0.00    +0.155 HD
BRANCH  30  38
ATOM     34  C   UNL     1       2.383  -3.241   1.302  0.00  0.00    +0.044 C 
ATOM     35  C   UNL     1       0.955  -2.761   1.260  0.00  0.00    -0.050 A 
ATOM     36  C   UNL     1       0.637  -1.501   1.733  0.00  0.00    +0.005 A 
ATOM     37  C   UNL     1      -0.670  -1.058   1.697  0.00  0.00    +0.023 A 
ATOM     38  C   UNL     1      -1.666  -1.880   1.185  0.00  0.00    +0.033 A 
ATOM     39  C   UNL     1      -1.345  -3.147   0.716  0.00  0.00    +0.023 A 
ATOM     40  C   UNL     1      -0.034  -3.582   0.750  0.00  0.00    +0.005 A 
ENDBRANCH  30  38
ENDBRANCH  29  31
ENDBRANCH   1  29
TORSDOF 7
