REMARK  Name = ZINC23125492
REMARK  6 active torsions:
REMARK  status: ('A' for Active; 'I' for Inactive)
REMARK    1  A    between atoms: C_1  and  C_2
REMARK    2  A    between atoms: N_14  and  C_17
REMARK    3  A    between atoms: C_17  and  C_18
REMARK    4  A    between atoms: N_20  and  C_21
REMARK    5  A    between atoms: C_21  and  C_22
REMARK    6  A    between atoms: C_25  and  C_27
REMARK                            x       y       z     vdW  Elec       q    Type
REMARK                         _______ _______ _______ _____ _____    ______ ____
ROOT
ATOM      1  C   UNL     1       7.026  14.607  -3.035  0.00  0.00    +0.044 C 
ATOM      2  C   UNL     1       7.089  13.101  -3.043  0.00  0.00    -0.050 A 
ATOM      3  C   UNL     1       8.322  12.463  -3.058  0.00  0.00    +0.005 A 
ATOM      4  C   UNL     1       8.400  11.088  -3.065  0.00  0.00    +0.026 A 
ATOM      5  C   UNL     1       7.234  10.327  -3.059  0.00  0.00    +0.049 A 
ATOM      6  C   UNL     1       5.989  10.979  -3.045  0.00  0.00    +0.026 A 
ATOM      7  C   UNL     1       5.933  12.373  -3.037  0.00  0.00    +0.015 A 
ATOM      8  C   UNL     1       4.966   9.924  -3.041  0.00  0.00    +0.103 A 
ATOM      9  C   UNL     1       5.651   8.711  -3.053  0.00  0.00    +0.131 A 
ATOM     10  N   UNL     1       7.008   8.967  -3.064  0.00  0.00    -0.349 N 
ATOM     11  H   UNL     1       7.858   8.268  -3.075  0.00  0.00    +0.166 HD
ATOM     12  C   UNL     1       4.894   7.516  -3.052  0.00  0.00    +0.278 A 
ATOM     13  O   UNL     1       5.445   6.428  -3.062  0.00  0.00    -0.265 OA
ATOM     14  N   UNL     1       3.546   7.608  -3.040  0.00  0.00    -0.289 N 
ATOM     15  C   UNL     1       2.940   8.822  -3.034  0.00  0.00    +0.203 A 
ATOM     16  N   UNL     1       3.622   9.932  -3.029  0.00  0.00    -0.235 NA
ENDROOT
BRANCH  14  17
ATOM     17  C   UNL     1       2.733   6.389  -3.039  0.00  0.00    +0.222 C 
BRANCH  17  18
ATOM     18  C   UNL     1       2.467   5.964  -1.618  0.00  0.00    +0.233 C 
ATOM     19  O   UNL     1       2.913   6.615  -0.696  0.00  0.00    -0.274 OA
ATOM     20  N   UNL     1       1.734   4.861  -1.370  0.00  0.00    -0.307 N 
ATOM     21  H   UNL     1       1.331   4.270  -2.206  0.00  0.00    +0.149 HD
BRANCH  20  22
ATOM     22  C   UNL     1       1.476   4.447   0.011  0.00  0.00    +0.178 C 
BRANCH  22  23
ATOM     23  C   UNL     1       0.640   3.193   0.012  0.00  0.00    +0.122 A 
ATOM     24  C   UNL     1       1.111   1.934   0.002  0.00  0.00    +0.046 A 
ATOM     25  C   UNL     1      -0.013   1.076   0.008  0.00  0.00    +0.045 A 
ATOM     26  C   UNL     1      -1.103   1.863   0.017  0.00  0.00    +0.102 A 
ATOM     27  O   UNL     1      -0.702   3.144   0.024  0.00  0.00    -0.463 OA
ATOM     28  C   UNL     1      -2.533   1.387   0.021  0.00  0.00    +0.086 C 
ENDBRANCH  22  23
ENDBRANCH  20  22
ENDBRANCH  17  18
ENDBRANCH  14  17
TORSDOF 4
