REMARK  Name = ZINC27550459
REMARK  9 active torsions:
REMARK  status: ('A' for Active; 'I' for Inactive)
REMARK    1  A    between atoms: C_1  and  C_2
REMARK    2  A    between atoms: C_4  and  C_8
REMARK    3  A    between atoms: C_5  and  C_7
REMARK    4  A    between atoms: C_10  and  C_33
REMARK    5  A    between atoms: C_11  and  N_32
REMARK    6  A    between atoms: N_12  and  C_22
REMARK    7  A    between atoms: C_18  and  C_20
REMARK    8  A    between atoms: C_18  and  C_21
REMARK    9  A    between atoms: C_26  and  N_28
REMARK                            x       y       z     vdW  Elec       q    Type
REMARK                         _______ _______ _______ _____ _____    ______ ____
ROOT
ATOM      1  C   UNL     1       1.197   6.182  -0.835  0.00  0.00    +0.098 C 
ATOM      2  C   UNL     1       2.406   5.480  -0.291  0.00  0.00    +0.077 C 
ATOM      3  C   UNL     1       2.345   4.182   0.106  0.00  0.00    +0.107 C 
ATOM      4  N   UNL     1       1.158   3.490   0.023  0.00  0.00    -0.260 N 
ATOM      5  C   UNL     1      -0.033   4.162  -0.072  0.00  0.00    +0.025 C 
ATOM      6  C   UNL     1      -0.069   5.449  -0.471  0.00  0.00    +0.025 C 
ATOM      7  C   UNL     1      -1.287   6.144  -0.568  0.00  0.00    +0.162 C 
ATOM      8  O   UNL     1      -1.283   7.307  -0.921  0.00  0.00    -0.292 OA
ATOM      9  C   UNL     1      -2.594   5.476  -0.260  0.00  0.00    +0.086 C 
ATOM     10  C   UNL     1      -2.466   3.974  -0.535  0.00  0.00    -0.023 C 
ATOM     11  C   UNL     1      -1.300   3.427   0.292  0.00  0.00    +0.058 C 
ATOM     12  C   UNL     1      -2.193   3.745  -2.023  0.00  0.00    +0.011 C 
ATOM     13  C   UNL     1      -3.760   3.262  -0.134  0.00  0.00    +0.011 C 
ENDROOT
BRANCH   1  17
ATOM     14  C   UNL     1       1.595   4.134  -5.480  0.00  0.00    +0.051 C 
ATOM     15  C   UNL     1       1.489   5.224  -4.444  0.00  0.00    -0.013 A 
ATOM     16  C   UNL     1       1.392   5.115  -3.097  0.00  0.00    +0.015 A 
ATOM     17  C   UNL     1       1.306   6.265  -2.335  0.00  0.00    -0.025 A 
ATOM     18  C   UNL     1       1.316   7.468  -2.959  0.00  0.00    -0.009 A 
ATOM     19  S   UNL     1       1.461   6.994  -4.674  0.00  0.00    -0.098 S 
ATOM     20  C   UNL     1       1.229   8.849  -2.360  0.00  0.00    +0.052 C 
ENDBRANCH   1  17
BRANCH   4  21
ATOM     21  C   UNL     1       1.168   2.090   0.030  0.00  0.00    +0.042 A 
ATOM     22  C   UNL     1       1.099   1.400   1.234  0.00  0.00    +0.025 A 
ATOM     23  C   UNL     1       1.108   0.020   1.238  0.00  0.00    +0.024 A 
ATOM     24  C   UNL     1       1.187  -0.677   0.044  0.00  0.00    +0.071 A 
ATOM     25  C   UNL     1       1.256   0.008  -1.156  0.00  0.00    +0.146 A 
ATOM     26  C   UNL     1       1.246   1.389  -1.166  0.00  0.00    +0.058 A 
ATOM     27 CL   UNL     1       1.198  -2.413   0.053  0.00  0.00    -0.081 Cl
BRANCH  25  28
ATOM     28  N   UNL     1       1.339  -0.740  -2.430  0.00  0.00    +0.058 N 
ATOM     29  O   UNL     1       1.399  -0.138  -3.487  0.00  0.00    -0.126 OA
ATOM     30  O   UNL     1       1.347  -1.958  -2.422  0.00  0.00    -0.126 OA
ENDBRANCH  25  28
ENDBRANCH   4  21
BRANCH   3  31
ATOM     31  N   UNL     1       3.470   3.559   0.591  0.00  0.00    -0.345 N 
ATOM     32  H   UNL     1       3.421   2.509   0.913  0.00  0.00    +0.144 HD
ATOM     33  H   UNL     1       4.419   4.112   0.657  0.00  0.00    +0.144 HD
ENDBRANCH   3  31
BRANCH   2  34
ATOM     34  C   UNL     1       3.646   6.189  -0.190  0.00  0.00    +0.099 C 
ATOM     35  N   UNL     1       4.630   6.752  -0.109  0.00  0.00    -0.191 NA
ENDBRANCH   2  34
TORSDOF 5
