REMARK  Name = ZINC02758140
REMARK  13 active torsions:
REMARK  status: ('A' for Active; 'I' for Inactive)
REMARK    1  A    between atoms: C_1  and  C_2
REMARK    2  A    between atoms: C_3  and  C_32
REMARK    3  A    between atoms: C_4  and  C_22
REMARK    4  A    between atoms: C_10  and  C_15
REMARK    5  A    between atoms: C_27  and  O_28
REMARK    6  A    between atoms: O_28  and  C_29
REMARK    7  A    between atoms: C_29  and  C_30
REMARK    8  A    between atoms: C_29  and  C_31
REMARK    9  A    between atoms: C_32  and  O_34
REMARK   10  A    between atoms: O_34  and  C_35
REMARK   11  A    between atoms: C_35  and  C_36
REMARK   12  A    between atoms: C_36  and  C_37
REMARK   13  A    between atoms: C_36  and  C_38
REMARK                            x       y       z     vdW  Elec       q    Type
REMARK                         _______ _______ _______ _____ _____    ______ ____
ROOT
ATOM      1  C   UNL     1      -2.733   7.337  -1.965  0.00  0.00    +0.061 C 
ATOM      2  C   UNL     1      -1.939   6.683  -0.864  0.00  0.00    +0.016 C 
ATOM      3  C   UNL     1      -0.716   6.191  -1.124  0.00  0.00    +0.065 C 
ATOM      4  C   UNL     1       0.100   5.527  -0.054  0.00  0.00    +0.096 C 
ATOM      5  C   UNL     1      -0.416   5.881   1.318  0.00  0.00    +0.024 C 
ATOM      6  C   UNL     1      -1.659   6.383   1.478  0.00  0.00    +0.016 C 
ATOM      7  N   UNL     1      -2.468   6.594   0.394  0.00  0.00    -0.321 N 
ATOM      8  C   UNL     1      -2.187   6.728   2.848  0.00  0.00    +0.059 C 
ATOM      9  C   UNL     1      -1.030   7.160   3.751  0.00  0.00    +0.032 C 
ATOM     10  C   UNL     1      -0.012   6.017   3.817  0.00  0.00    +0.088 C 
ATOM     11  C   UNL     1       0.430   5.674   2.421  0.00  0.00    +0.162 C 
ATOM     12  O   UNL     1       1.540   5.211   2.243  0.00  0.00    -0.292 OA
ATOM     13  H   UNL     1      -3.554   6.693   0.542  0.00  0.00    +0.152 HD
ENDROOT
BRANCH   9  14
ATOM     14  C   UNL     1      -1.550   7.455   5.135  0.00  0.00    -0.043 A 
ATOM     15  C   UNL     1      -2.208   6.472   5.850  0.00  0.00    +0.005 A 
ATOM     16  C   UNL     1      -2.680   6.740   7.121  0.00  0.00    +0.020 A 
ATOM     17  C   UNL     1      -2.505   7.997   7.673  0.00  0.00    +0.041 A 
ATOM     18  C   UNL     1      -1.851   8.982   6.954  0.00  0.00    +0.020 A 
ATOM     19  C   UNL     1      -1.374   8.711   5.685  0.00  0.00    +0.005 A 
ATOM     20 CL   UNL     1      -3.104   8.337   9.266  0.00  0.00    -0.084 Cl
ENDBRANCH   9  14
BRANCH   4  21
ATOM     21  C   UNL     1       0.036   4.033  -0.237  0.00  0.00    +0.006 A 
ATOM     22  C   UNL     1      -1.186   3.387  -0.226  0.00  0.00    +0.008 A 
ATOM     23  C   UNL     1      -1.246   2.017  -0.400  0.00  0.00    +0.001 A 
ATOM     24  C   UNL     1      -0.084   1.288  -0.575  0.00  0.00    +0.004 A 
ATOM     25  C   UNL     1       1.139   1.929  -0.587  0.00  0.00    +0.046 A 
ATOM     26  C   UNL     1       1.202   3.304  -0.418  0.00  0.00    +0.125 A 
BRANCH  26  27
ATOM     27  O   UNL     1       2.405   3.937  -0.429  0.00  0.00    -0.489 OA
BRANCH  27  28
ATOM     28  C   UNL     1       3.571   3.114  -0.502  0.00  0.00    +0.167 C 
ATOM     29  C   UNL     1       3.890   2.811  -1.967  0.00  0.00    +0.051 C 
ATOM     30  C   UNL     1       4.753   3.846   0.137  0.00  0.00    +0.051 C 
ENDBRANCH  27  28
ENDBRANCH  26  27
ENDBRANCH   4  21
BRANCH   3  31
ATOM     31  C   UNL     1      -0.188   6.301  -2.432  0.00  0.00    +0.338 C 
ATOM     32  O   UNL     1       0.859   5.748  -2.714  0.00  0.00    -0.245 OA
BRANCH  31  33
ATOM     33  O   UNL     1      -0.844   7.020  -3.366  0.00  0.00    -0.461 OA
BRANCH  33  34
ATOM     34  C   UNL     1      -0.203   7.175  -4.634  0.00  0.00    +0.235 C 
BRANCH  34  35
ATOM     35  C   UNL     1      -1.031   8.115  -5.512  0.00  0.00    +0.020 C 
ATOM     36  C   UNL     1      -1.040   9.515  -4.894  0.00  0.00    +0.010 C 
ATOM     37  C   UNL     1      -0.415   8.180  -6.912  0.00  0.00    +0.010 C 
ENDBRANCH  34  35
ENDBRANCH  33  34
ENDBRANCH  31  33
ENDBRANCH   3  31
TORSDOF 8
