REMARK  Name = ZINC39693421
REMARK  12 active torsions:
REMARK  status: ('A' for Active; 'I' for Inactive)
REMARK    1  A    between atoms: C_1  and  C_2
REMARK    2  A    between atoms: C_2  and  C_3
REMARK    3  A    between atoms: C_2  and  C_4
REMARK    4  A    between atoms: C_2  and  O_5
REMARK    5  A    between atoms: O_5  and  C_6
REMARK    6  A    between atoms: N_8  and  C_9
REMARK    7  A    between atoms: C_9  and  C_10
REMARK    8  A    between atoms: C_10  and  N_11
REMARK    9  A    between atoms: C_12  and  C_14
REMARK   10  A    between atoms: C_25  and  C_27
REMARK   11  A    between atoms: C_30  and  O_33
REMARK   12  A    between atoms: O_33  and  C_34
REMARK                            x       y       z     vdW  Elec       q    Type
REMARK                         _______ _______ _______ _____ _____    ______ ____
ROOT
ATOM      1  C   UNL     1       8.683   0.105  -5.217  0.00  0.00    +0.100 C 
ATOM      2  C   UNL     1       9.267  -0.583  -3.963  0.00  0.00    +0.121 C 
ATOM      3  N   UNL     1       9.784  -1.882  -4.456  0.00  0.00    -0.296 N 
ATOM      4  C   UNL     1      10.386  -1.563  -5.772  0.00  0.00    +0.115 C 
ATOM      5  C   UNL     1       9.422  -0.538  -6.402  0.00  0.00    -0.004 C 
ATOM      6  C   UNL     1      10.206   0.519  -7.173  0.00  0.00    -0.010 C 
ATOM      7  C   UNL     1      10.886  -0.134  -8.380  0.00  0.00    -0.082 C 
ATOM      8  N   UNL     1       9.869  -0.746  -9.244  0.00  0.00    +0.379 N 
ATOM      9  C   UNL     1       9.183  -1.825  -8.524  0.00  0.00    -0.082 C 
ATOM     10  C   UNL     1       8.432  -1.243  -7.323  0.00  0.00    -0.010 C 
ATOM     11  C   UNL     1       9.721  -3.081  -3.844  0.00  0.00    +0.247 C 
ATOM     12  O   UNL     1       9.081  -3.208  -2.818  0.00  0.00    -0.270 OA
ATOM     13  H   UNL     1       9.196  -0.045  -9.518  0.00  0.00    -0.086 HD
ATOM     14  H   UNL     1      10.313  -1.122 -10.069  0.00  0.00    -0.086 HD
ENDROOT
BRANCH  11  15
ATOM     15  C   UNL     1      10.428  -4.241  -4.421  0.00  0.00    +0.037 A 
ATOM     16  C   UNL     1      11.490  -4.045  -5.307  0.00  0.00    +0.016 A 
ATOM     17  C   UNL     1      12.148  -5.130  -5.842  0.00  0.00    +0.047 A 
ATOM     18  C   UNL     1      11.757  -6.419  -5.502  0.00  0.00    +0.130 A 
ATOM     19  C   UNL     1      10.701  -6.619  -4.620  0.00  0.00    +0.047 A 
ATOM     20  C   UNL     1      10.042  -5.539  -4.077  0.00  0.00    +0.016 A 
BRANCH  18  21
ATOM     21  O   UNL     1      12.407  -7.486  -6.032  0.00  0.00    -0.406 OA
BRANCH  21  22
ATOM     22  C   UNL     1      11.953  -8.783  -5.639  0.00  0.00    +0.575 C 
ATOM     23  F   UNL     1      10.613  -8.939  -6.008  0.00  0.00    -0.133 F 
ATOM     24  F   UNL     1      12.728  -9.760  -6.274  0.00  0.00    -0.133 F 
ATOM     25  F   UNL     1      12.075  -8.920  -4.253  0.00  0.00    -0.133 F 
ENDBRANCH  21  22
ENDBRANCH  18  21
ENDBRANCH  11  15
BRANCH   1  27
ATOM     26  N   UNL     1       6.413   0.689  -6.009  0.00  0.00    -0.314 N 
ATOM     27  C   UNL     1       7.202  -0.157  -5.318  0.00  0.00    +0.218 C 
ATOM     28  O   UNL     1       6.721  -1.130  -4.777  0.00  0.00    -0.275 OA
ATOM     29  H   UNL     1       6.798   1.467  -6.442  0.00  0.00    +0.149 HD
BRANCH  26  30
ATOM     30  C   UNL     1       4.974   0.433  -6.107  0.00  0.00    +0.123 C 
BRANCH  30  31
ATOM     31  C   UNL     1       4.316   1.535  -6.940  0.00  0.00    +0.126 C 
BRANCH  31  34
ATOM     32  C   UNL     1       2.088   2.126  -7.729  0.00  0.00    +0.401 C 
ATOM     33  O   UNL     1       2.570   3.101  -8.271  0.00  0.00    -0.226 OA
ATOM     34  N   UNL     1       2.877   1.280  -7.037  0.00  0.00    -0.280 N 
ATOM     35  H   UNL     1       2.492   0.502  -6.604  0.00  0.00    +0.152 HD
BRANCH  32  36
ATOM     36  O   UNL     1       0.765   1.891  -7.819  0.00  0.00    -0.445 OA
BRANCH  36  38
ATOM     37  C   UNL     1       0.497   2.876 -10.009  0.00  0.00    +0.055 C 
ATOM     38  C   UNL     1      -0.011   2.829  -8.567  0.00  0.00    +0.107 C 
ATOM     39  C   UNL     1       0.118   4.217  -7.936  0.00  0.00    +0.055 C 
ATOM     40  C   UNL     1      -1.480   2.400  -8.557  0.00  0.00    +0.055 C 
ENDBRANCH  36  38
ENDBRANCH  32  36
ENDBRANCH  31  34
ENDBRANCH  30  31
ENDBRANCH  26  30
ENDBRANCH   1  27
TORSDOF 9
