REMARK  Name = ZINC63740205
REMARK  5 active torsions:
REMARK  status: ('A' for Active; 'I' for Inactive)
REMARK    1  A    between atoms: C_5  and  S_12
REMARK    2  A    between atoms: S_12  and  C_13
REMARK    3  A    between atoms: C_13  and  C_14
REMARK    4  A    between atoms: N_16  and  C_17
REMARK    5  A    between atoms: N_16  and  C_25
REMARK                            x       y       z     vdW  Elec       q    Type
REMARK                         _______ _______ _______ _____ _____    ______ ____
ROOT
ATOM      1  C   UNL     1       5.087   0.745  -4.210  0.00  0.00    +0.226 C 
ATOM      2  O   UNL     1       6.292   0.877  -4.235  0.00  0.00    -0.275 OA
ATOM      3  N   UNL     1       4.400   0.608  -5.362  0.00  0.00    -0.293 N 
ENDROOT
BRANCH   3   4
ATOM      4  C   UNL     1       5.118   0.511  -6.635  0.00  0.00    +0.099 C 
ATOM      5  C   UNL     1       5.962   1.779  -6.843  0.00  0.00    +0.046 C 
ATOM      6  C   UNL     1       6.941   1.522  -8.024  0.00  0.00    +0.168 C 
ATOM      7  S   UNL     1       7.450  -0.213  -7.667  0.00  0.00    -0.029 S 
ATOM      8  O   UNL     1       8.631  -0.196  -6.877  0.00  0.00    -0.174 OA
ATOM      9  O   UNL     1       7.428  -0.959  -8.877  0.00  0.00    -0.174 OA
ATOM     10  C   UNL     1       6.035  -0.735  -6.615  0.00  0.00    +0.188 C 
ENDBRANCH   3   4
BRANCH   3  11
ATOM     11  C   UNL     1       2.936   0.555  -5.340  0.00  0.00    +0.076 C 
ATOM     12  C   UNL     1       2.448  -0.804  -5.882  0.00  0.00    +0.022 C 
ATOM     13  C   UNL     1       1.168  -0.457  -6.681  0.00  0.00    +0.002 C 
ATOM     14  C   UNL     1       1.535   0.892  -7.346  0.00  0.00    +0.002 C 
ATOM     15  C   UNL     1       2.356   1.634  -6.271  0.00  0.00    +0.022 C 
ENDBRANCH   3  11
BRANCH   1  16
ATOM     16  C   UNL     1       4.357   0.734  -2.892  0.00  0.00    +0.168 C 
BRANCH  16  17
ATOM     17  S   UNL     1       5.560   0.788  -1.535  0.00  0.00    -0.106 S 
BRANCH  17  22
ATOM     18  C   UNL     1      -0.017   1.421   0.008  0.00  0.00    +0.022 A 
ATOM     19  C   UNL     1       1.110   2.160   0.000  0.00  0.00    +0.029 A 
ATOM     20  C   UNL     1       2.418   1.489  -0.015  0.00  0.00    +0.061 A 
ATOM     21  N   UNL     1       3.641   1.934  -0.025  0.00  0.00    -0.355 N 
ATOM     22  C   UNL     1       4.534   0.769  -0.038  0.00  0.00    +0.236 C 
ATOM     23  N   UNL     1       3.669  -0.417  -0.035  0.00  0.00    -0.355 N 
ATOM     24  C   UNL     1       2.435   0.000  -0.021  0.00  0.00    +0.062 A 
ATOM     25  C   UNL     1       1.145  -0.701  -0.011  0.00  0.00    +0.047 A 
ATOM     26  C   UNL     1      -0.001   0.013   0.002  0.00  0.00    +0.043 A 
ATOM     27 CL   UNL     1      -1.514  -0.838   0.012  0.00  0.00    -0.083 Cl
ATOM     28  H   UNL     1       3.912   2.865  -0.024  0.00  0.00    +0.162 HD
ATOM     29  H   UNL     1       3.962  -1.341  -0.041  0.00  0.00    +0.162 HD
ENDBRANCH  17  22
ENDBRANCH  16  17
ENDBRANCH   1  16
TORSDOF 5
