REMARK  Name = ZINC14185096
REMARK  9 active torsions:
REMARK  status: ('A' for Active; 'I' for Inactive)
REMARK    1  A    between atoms: C_1  and  C_2
REMARK    2  A    between atoms: C_2  and  C_3
REMARK    3  A    between atoms: C_2  and  C_4
REMARK    4  A    between atoms: C_4  and  C_6
REMARK    5  A    between atoms: C_4  and  N_16
REMARK    6  A    between atoms: N_16  and  C_17
REMARK    7  A    between atoms: C_17  and  C_18
REMARK    8  A    between atoms: N_20  and  C_21
REMARK    9  A    between atoms: C_22  and  C_29
REMARK                            x       y       z     vdW  Elec       q    Type
REMARK                         _______ _______ _______ _____ _____    ______ ____
ROOT
ATOM      1  C   UNL     1      -1.417  -2.419   1.527  0.00  0.00    +0.178 C 
ENDROOT
BRANCH   1   2
ATOM      2  C   UNL     1      -1.519  -3.921   1.605  0.00  0.00    +0.231 C 
ATOM      3  O   UNL     1      -1.560  -4.579   0.587  0.00  0.00    -0.274 OA
ATOM      4  N   UNL     1      -1.566  -4.532   2.805  0.00  0.00    -0.278 N 
ATOM      5  H   UNL     1      -1.534  -4.005   3.619  0.00  0.00    +0.155 HD
BRANCH   4   6
ATOM      6  C   UNL     1      -1.660  -5.913   2.877  0.00  0.00    +0.084 A 
ATOM      7  C   UNL     1      -1.724  -6.703   4.010  0.00  0.00    +0.068 A 
ATOM      8  C   UNL     1      -1.821  -8.149   3.813  0.00  0.00    -0.023 A 
ATOM      9  C   UNL     1      -1.833  -8.527   2.522  0.00  0.00    -0.004 A 
ATOM     10  S   UNL     1      -1.729  -7.009   1.609  0.00  0.00    -0.077 S 
ATOM     11  C   UNL     1      -1.929 -10.022   2.377  0.00  0.00    +0.043 C 
ATOM     12  C   UNL     1      -1.544 -10.575   3.768  0.00  0.00    +0.010 C 
ATOM     13  C   UNL     1      -1.917  -9.396   4.689  0.00  0.00    +0.037 C 
BRANCH   7  14
ATOM     14  C   UNL     1      -1.696  -6.116   5.353  0.00  0.00    +0.244 C 
ATOM     15  O   UNL     1      -2.736  -5.801   5.901  0.00  0.00    -0.270 OA
ATOM     16  N   UNL     1      -0.519  -5.925   5.980  0.00  0.00    -0.325 N 
ATOM     17  H   UNL     1       0.310  -6.176   5.543  0.00  0.00    +0.145 HD
ATOM     18  H   UNL     1      -0.500  -5.536   6.869  0.00  0.00    +0.145 HD
ENDBRANCH   7  14
ENDBRANCH   4   6
ENDBRANCH   1   2
BRANCH   1  19
ATOM     19  N   UNL     1      -1.383  -2.003   0.119  0.00  0.00    -0.301 NA
ATOM     20  H   UNL     1      -2.228  -2.278  -0.360  0.00  0.00    +0.123 HD
BRANCH  19  21
ATOM     21  C   UNL     1      -1.159  -0.556   0.003  0.00  0.00    +0.087 C 
BRANCH  21  22
ATOM     22  C   UNL     1      -1.715  -0.065  -1.309  0.00  0.00    -0.027 A 
ATOM     23  C   UNL     1      -1.563  -0.828  -2.452  0.00  0.00    +0.009 A 
ATOM     24  C   UNL     1      -2.071  -0.381  -3.657  0.00  0.00    +0.050 A 
ATOM     25  C   UNL     1      -2.734   0.835  -3.723  0.00  0.00    +0.162 A 
ATOM     26  C   UNL     1      -2.889   1.601  -2.574  0.00  0.00    +0.162 A 
ATOM     27  C   UNL     1      -2.381   1.145  -1.367  0.00  0.00    +0.054 A 
ATOM     28  O   UNL     1      -3.544   2.794  -2.615  0.00  0.00    -0.485 OA
ATOM     29  C   UNL     1      -3.716   3.389  -3.906  0.00  0.00    +0.270 C 
ATOM     30  C   UNL     1      -4.208   2.304  -4.873  0.00  0.00    +0.270 C 
ATOM     31  O   UNL     1      -3.225   1.264  -4.918  0.00  0.00    -0.485 OA
ENDBRANCH  21  22
BRANCH  21  33
ATOM     32  C   UNL     1       1.047  -0.994  -1.085  0.00  0.00    +0.009 C 
ATOM     33  C   UNL     1       0.342  -0.265   0.061  0.00  0.00    +0.004 C 
ATOM     34  C   UNL     1       0.576   1.241  -0.072  0.00  0.00    +0.009 C 
ENDBRANCH  21  33
ENDBRANCH  19  21
ENDBRANCH   1  19
TORSDOF 7
