REMARK  Name = ZINC33087924
REMARK  6 active torsions:
REMARK  status: ('A' for Active; 'I' for Inactive)
REMARK    1  A    between atoms: C_1  and  C_2
REMARK    2  A    between atoms: N_4  and  C_5
REMARK    3  A    between atoms: C_10  and  C_11
REMARK    4  A    between atoms: N_14  and  C_22
REMARK    5  A    between atoms: C_22  and  C_23
REMARK    6  A    between atoms: N_25  and  C_26
REMARK                            x       y       z     vdW  Elec       q    Type
REMARK                         _______ _______ _______ _____ _____    ______ ____
ROOT
ATOM      1  C   UNL     1      -7.789   3.246  -0.603  0.00  0.00    +0.138 A 
ATOM      2  C   UNL     1      -6.726   2.232  -0.730  0.00  0.00    +0.278 A 
ATOM      3  O   UNL     1      -6.417   1.795  -1.824  0.00  0.00    -0.265 OA
ATOM      4  N   UNL     1      -6.098   1.794   0.383  0.00  0.00    -0.296 N 
ATOM      5  C   UNL     1      -6.475   2.305   1.611  0.00  0.00    +0.071 A 
ATOM      6  C   UNL     1      -5.841   1.875   2.772  0.00  0.00    +0.028 A 
ATOM      7  C   UNL     1      -6.218   2.393   3.992  0.00  0.00    +0.002 A 
ATOM      8  C   UNL     1      -7.225   3.347   4.072  0.00  0.00    +0.002 A 
ATOM      9  C   UNL     1      -7.856   3.787   2.946  0.00  0.00    +0.030 A 
ATOM     10  C   UNL     1      -7.491   3.276   1.691  0.00  0.00    +0.088 A 
ATOM     11  N   UNL     1      -8.114   3.710   0.580  0.00  0.00    -0.240 NA
ENDROOT
BRANCH   1  17
ATOM     12  C   UNL     1      -9.292   2.870  -2.561  0.00  0.00    +0.043 A 
ATOM     13  C   UNL     1      -9.944   3.344  -3.690  0.00  0.00    +0.024 A 
ATOM     14  C   UNL     1      -9.801   4.664  -4.070  0.00  0.00    +0.002 A 
ATOM     15  C   UNL     1      -9.008   5.524  -3.328  0.00  0.00    +0.001 A 
ATOM     16  C   UNL     1      -8.357   5.072  -2.200  0.00  0.00    +0.012 A 
ATOM     17  C   UNL     1      -8.489   3.738  -1.808  0.00  0.00    +0.027 A 
BRANCH  12  21
ATOM     18  C   UNL     1     -10.030  -0.815  -2.658  0.00  0.00    +0.109 C 
ATOM     19  C   UNL     1      -9.762   0.603  -3.091  0.00  0.00    +0.214 C 
ATOM     20  O   UNL     1      -9.841   0.904  -4.263  0.00  0.00    -0.276 OA
ATOM     21  N   UNL     1      -9.435   1.537  -2.176  0.00  0.00    -0.285 N 
ATOM     22  H   UNL     1      -9.281   1.248  -1.126  0.00  0.00    +0.155 HD
ENDBRANCH  12  21
ENDBRANCH   1  17
BRANCH   4  23
ATOM     23  C   UNL     1      -5.038   0.787   0.291  0.00  0.00    +0.221 C 
BRANCH  23  24
ATOM     24  C   UNL     1      -3.707   1.473   0.120  0.00  0.00    +0.237 C 
ATOM     25  O   UNL     1      -3.650   2.684   0.080  0.00  0.00    -0.274 OA
ATOM     26  N   UNL     1      -2.581   0.741   0.013  0.00  0.00    -0.284 N 
ATOM     27  H   UNL     1      -2.640  -0.356  -0.034  0.00  0.00    +0.155 HD
BRANCH  26  28
ATOM     28  C   UNL     1      -1.335   1.377  -0.038  0.00  0.00    +0.034 A 
ATOM     29  C   UNL     1      -1.165   2.623   0.552  0.00  0.00    +0.023 A 
ATOM     30  C   UNL     1       0.066   3.246   0.505  0.00  0.00    +0.003 A 
ATOM     31  C   UNL     1       1.129   2.633  -0.134  0.00  0.00    +0.015 A 
ATOM     32  C   UNL     1       0.962   1.395  -0.728  0.00  0.00    +0.020 A 
ATOM     33  C   UNL     1      -0.269   0.767  -0.684  0.00  0.00    +0.038 A 
ATOM     34 BR   UNL     1       2.418   0.561  -1.599  0.00  0.00    -0.050 Br
ENDBRANCH  26  28
ENDBRANCH  23  24
ENDBRANCH   4  23
TORSDOF 5
