REMARK  Name = ZINC28060607
REMARK  5 active torsions:
REMARK  status: ('A' for Active; 'I' for Inactive)
REMARK    1  A    between atoms: C_1  and  O_2
REMARK    2  A    between atoms: O_2  and  C_3
REMARK    3  A    between atoms: C_3  and  C_5
REMARK    4  A    between atoms: C_8  and  C_11
REMARK    5  A    between atoms: C_28  and  C_30
REMARK                            x       y       z     vdW  Elec       q    Type
REMARK                         _______ _______ _______ _____ _____    ______ ____
ROOT
ATOM      1  C   UNL     1       1.397   7.825   0.029  0.00  0.00    +0.234 C 
ATOM      2  C   UNL     1       1.293   8.335  -1.391  0.00  0.00    +0.026 C 
ATOM      3  C   UNL     1       0.086   8.555  -1.915  0.00  0.00    +0.050 C 
ATOM      4  C   UNL     1      -1.106   8.321  -1.066  0.00  0.00    +0.038 A 
ATOM      5  C   UNL     1      -2.377   8.203  -1.614  0.00  0.00    +0.013 A 
ATOM      6  C   UNL     1      -3.460   7.986  -0.783  0.00  0.00    +0.001 A 
ATOM      7  C   UNL     1      -3.281   7.885   0.585  0.00  0.00    +0.004 A 
ATOM      8  C   UNL     1      -2.019   8.001   1.139  0.00  0.00    +0.046 A 
ATOM      9  C   UNL     1      -0.927   8.218   0.320  0.00  0.00    +0.131 A 
ATOM     10  O   UNL     1       0.327   8.334   0.824  0.00  0.00    -0.479 OA
ATOM     11  N   UNL     1      -0.088   9.009  -3.228  0.00  0.00    -0.282 N 
ATOM     12  C   UNL     1       1.016   8.969  -4.065  0.00  0.00    +0.240 A 
ATOM     13  N   UNL     1       1.119   9.098  -5.356  0.00  0.00    -0.092 NA
ATOM     14  N   UNL     1       2.351   8.980  -5.719  0.00  0.00    -0.021 NA
ATOM     15  N   UNL     1       3.106   8.771  -4.689  0.00  0.00    -0.042 NA
ATOM     16  N   UNL     1       2.266   8.761  -3.576  0.00  0.00    -0.201 N 
ATOM     17  C   UNL     1       2.566   8.579  -2.163  0.00  0.00    +0.181 C 
ATOM     18  H   UNL     1      -1.071   9.377  -3.558  0.00  0.00    +0.155 HD
ENDROOT
BRANCH   1  22
ATOM     19  C   UNL     1       1.231   3.552   0.009  0.00  0.00    +0.059 A 
ATOM     20  C   UNL     1       0.069   4.300  -0.189  0.00  0.00    +0.015 A 
ATOM     21  C   UNL     1       0.129   5.678  -0.177  0.00  0.00    +0.008 A 
ATOM     22  C   UNL     1       1.339   6.319   0.022  0.00  0.00    -0.003 A 
ATOM     23  C   UNL     1       2.495   5.584   0.214  0.00  0.00    +0.008 A 
ATOM     24  C   UNL     1       2.449   4.205   0.209  0.00  0.00    +0.015 A 
BRANCH  19  25
ATOM     25  C   UNL     1       1.174   2.076   0.002  0.00  0.00    +0.339 C 
ATOM     26  O   UNL     1       2.188   1.428   0.170  0.00  0.00    -0.245 OA
BRANCH  25  28
ATOM     27  C   UNL     1       0.017  -0.004  -0.186  0.00  0.00    +0.280 C 
ATOM     28  O   UNL     1      -0.002   1.448  -0.191  0.00  0.00    -0.464 OA
ENDBRANCH  25  28
ENDBRANCH  19  25
ENDBRANCH   1  22
BRANCH  17  29
ATOM     29  C   UNL     1       3.241   9.817  -1.634  0.00  0.00    +0.019 A 
ATOM     30  C   UNL     1       4.472   9.948  -1.080  0.00  0.00    +0.013 A 
ATOM     31  C   UNL     1       4.890  11.198  -0.664  0.00  0.00    +0.008 A 
ATOM     32  C   UNL     1       4.053  12.254  -0.812  0.00  0.00    +0.045 A 
ATOM     33  S   UNL     1       2.627  11.492  -1.567  0.00  0.00    -0.099 S 
ENDBRANCH  17  29
TORSDOF 4
