REMARK  Name = ZINC12287860
REMARK  8 active torsions:
REMARK  status: ('A' for Active; 'I' for Inactive)
REMARK    1  A    between atoms: C_1  and  N_2
REMARK    2  A    between atoms: C_5  and  N_27
REMARK    3  A    between atoms: N_11  and  C_12
REMARK    4  A    between atoms: C_12  and  C_14
REMARK    5  A    between atoms: C_14  and  C_15
REMARK    6  A    between atoms: C_15  and  C_16
REMARK    7  A    between atoms: C_16  and  S_17
REMARK    8  A    between atoms: S_17  and  C_20
REMARK                            x       y       z     vdW  Elec       q    Type
REMARK                         _______ _______ _______ _____ _____    ______ ____
ROOT
ATOM      1  C   UNL     1      -0.014   1.212   0.009  0.00  0.00    +0.238 C 
ATOM      2  O   UNL     1       0.002  -0.004   0.002  0.00  0.00    -0.274 OA
ENDROOT
BRANCH   1  13
ATOM      3  C   UNL     1      -3.818   3.111   0.038  0.00  0.00    +0.151 C 
ATOM      4  N   UNL     1      -3.588   1.664   0.028  0.00  0.00    -0.324 N 
ATOM      5  C   UNL     1      -4.662   0.794   0.028  0.00  0.00    +0.059 A 
ATOM      6  C   UNL     1      -6.032   1.102   0.035  0.00  0.00    +0.059 A 
ATOM      7  C   UNL     1      -6.976   0.103   0.034  0.00  0.00    +0.128 A 
ATOM      8  C   UNL     1      -6.609  -1.232   0.024  0.00  0.00    +0.034 A 
ATOM      9  C   UNL     1      -5.266  -1.564   0.016  0.00  0.00    +0.019 A 
ATOM     10  C   UNL     1      -4.321  -0.566   0.018  0.00  0.00    +0.039 A 
ATOM     11  S   UNL     1      -2.546  -0.540   0.004  0.00  0.00    -0.052 S 
ATOM     12  C   UNL     1      -2.318   1.179   0.019  0.00  0.00    +0.166 A 
ATOM     13  N   UNL     1      -1.174   1.861   0.018  0.00  0.00    -0.156 NA
BRANCH   7  14
ATOM     14  N   UNL     1      -8.412   0.462   0.042  0.00  0.00    +0.056 N 
ATOM     15  O   UNL     1      -9.259  -0.414   0.040  0.00  0.00    -0.126 OA
ATOM     16  O   UNL     1      -8.748   1.633   0.051  0.00  0.00    -0.126 OA
ENDBRANCH   7  14
ENDBRANCH   1  13
BRANCH   1  17
ATOM     17  C   UNL     1       1.280   1.983   0.001  0.00  0.00    +0.099 C 
BRANCH  17  18
ATOM     18  C   UNL     1       2.457   1.005  -0.016  0.00  0.00    +0.032 C 
BRANCH  18  19
ATOM     19  C   UNL     1       3.771   1.788  -0.024  0.00  0.00    +0.172 C 
BRANCH  19  20
ATOM     20  S   UNL     1       5.166   0.628  -0.044  0.00  0.00    -0.003 S 
ATOM     21  O   UNL     1       5.231  -0.080   1.186  0.00  0.00    -0.169 OA
ATOM     22  O   UNL     1       5.207  -0.067  -1.283  0.00  0.00    -0.169 OA
BRANCH  20  23
ATOM     23  C   UNL     1       6.603   1.647  -0.052  0.00  0.00    +0.088 A 
ATOM     24  C   UNL     1       7.158   2.049  -1.253  0.00  0.00    +0.028 A 
ATOM     25  C   UNL     1       8.282   2.854  -1.260  0.00  0.00    +0.022 A 
ATOM     26  C   UNL     1       8.857   3.248  -0.065  0.00  0.00    +0.041 A 
ATOM     27  C   UNL     1       8.305   2.841   1.136  0.00  0.00    +0.022 A 
ATOM     28  C   UNL     1       7.177   2.041   1.142  0.00  0.00    +0.028 A 
ATOM     29 CL   UNL     1      10.273   4.253  -0.073  0.00  0.00    -0.084 Cl
ENDBRANCH  20  23
ENDBRANCH  19  20
ENDBRANCH  18  19
ENDBRANCH  17  18
ENDBRANCH   1  17
TORSDOF 7
