REMARK  Name = ZINC21096900
REMARK  10 active torsions:
REMARK  status: ('A' for Active; 'I' for Inactive)
REMARK    1  A    between atoms: C_3  and  C_6
REMARK    2  A    between atoms: C_6  and  N_7
REMARK    3  A    between atoms: N_7  and  C_8
REMARK    4  A    between atoms: N_7  and  C_29
REMARK    5  A    between atoms: C_8  and  C_9
REMARK    6  A    between atoms: C_9  and  N_10
REMARK    7  A    between atoms: C_11  and  C_13
REMARK    8  A    between atoms: C_15  and  C_18
REMARK    9  A    between atoms: C_18  and  S_19
REMARK   10  A    between atoms: S_19  and  C_22
REMARK                            x       y       z     vdW  Elec       q    Type
REMARK                         _______ _______ _______ _____ _____    ______ ____
ROOT
ATOM      1  N   UNL     1      -2.067   4.171  -4.800  0.00  0.00    -0.309 N 
ATOM      2  C   UNL     1      -1.106   4.476  -3.906  0.00  0.00    +0.302 C 
ATOM      3  O   UNL     1      -0.562   5.562  -3.944  0.00  0.00    -0.265 OA
ATOM      4  H   UNL     1      -2.558   3.188  -4.765  0.00  0.00    +0.149 HD
ENDROOT
BRANCH   2   5
ATOM      5  C   UNL     1      -0.712   3.487  -2.874  0.00  0.00    +0.313 A 
ATOM      6  N   UNL     1       0.205   3.646  -1.941  0.00  0.00    -0.186 NA
ATOM      7  C   UNL     1       0.216   2.499  -1.246  0.00  0.00    +0.193 A 
ATOM      8  N   UNL     1      -0.671   1.709  -1.777  0.00  0.00    -0.059 NA
ATOM      9  O   UNL     1      -1.220   2.256  -2.710  0.00  0.00    -0.328 OA
BRANCH   7  10
ATOM     10  C   UNL     1       1.099   2.181  -0.068  0.00  0.00    +0.251 C 
BRANCH  10  11
ATOM     11  S   UNL     1       0.269   2.684   1.464  0.00  0.00    +0.004 S 
ATOM     12  O   UNL     1       0.166   4.100   1.523  0.00  0.00    -0.169 OA
ATOM     13  O   UNL     1      -0.869   1.865   1.696  0.00  0.00    -0.169 OA
BRANCH  11  14
ATOM     14  C   UNL     1       1.396   2.261   2.751  0.00  0.00    +0.089 A 
ATOM     15  C   UNL     1       1.333   1.014   3.343  0.00  0.00    +0.028 A 
ATOM     16  C   UNL     1       2.220   0.679   4.348  0.00  0.00    +0.022 A 
ATOM     17  C   UNL     1       3.166   1.598   4.769  0.00  0.00    +0.041 A 
ATOM     18  C   UNL     1       3.225   2.848   4.180  0.00  0.00    +0.022 A 
ATOM     19  C   UNL     1       2.341   3.179   3.171  0.00  0.00    +0.028 A 
ATOM     20 CL   UNL     1       4.277   1.181   6.036  0.00  0.00    -0.084 Cl
ENDBRANCH  11  14
ENDBRANCH  10  11
ENDBRANCH   7  10
ENDBRANCH   2   5
BRANCH   1  21
ATOM     21  C   UNL     1      -2.456   5.149  -5.819  0.00  0.00    +0.086 C 
BRANCH  21  22
ATOM     22  C   UNL     1      -3.557   4.556  -6.700  0.00  0.00    -0.059 C 
BRANCH  22  23
ATOM     23  N   UNL     1      -3.917   5.520  -7.749  0.00  0.00    +0.387 N 
ATOM     24  H   UNL     1      -4.051   6.503  -7.274  0.00  0.00    -0.081 HD
BRANCH  23  25
ATOM     25  C   UNL     1      -2.841   5.642  -8.743  0.00  0.00    -0.068 C 
ATOM     26  C   UNL     1      -2.263   4.249  -9.069  0.00  0.00    -0.015 C 
ATOM     27  C   UNL     1      -0.746   4.502  -9.252  0.00  0.00    -0.002 C 
ATOM     28  C   UNL     1      -0.441   5.559  -8.163  0.00  0.00    -0.002 C 
ATOM     29  C   UNL     1      -1.683   6.475  -8.166  0.00  0.00    -0.015 C 
ENDBRANCH  23  25
BRANCH  23  30
ATOM     30  C   UNL     1      -5.186   5.151  -8.390  0.00  0.00    -0.003 C 
BRANCH  30  33
ATOM     31  C   UNL     1      -6.118   7.699 -10.884  0.00  0.00    +0.041 A 
ATOM     32  C   UNL     1      -5.466   6.497 -10.526  0.00  0.00    +0.042 A 
ATOM     33  C   UNL     1      -5.689   6.310  -9.213  0.00  0.00    +0.089 A 
ATOM     34  O   UNL     1      -6.430   7.333  -8.758  0.00  0.00    -0.470 OA
ATOM     35  C   UNL     1      -6.693   8.179  -9.767  0.00  0.00    +0.195 A 
ENDBRANCH  30  33
ENDBRANCH  23  30
ENDBRANCH  22  23
ENDBRANCH  21  22
ENDBRANCH   1  21
TORSDOF 10
