REMARK  Name = ZINC15941279
REMARK  12 active torsions:
REMARK  status: ('A' for Active; 'I' for Inactive)
REMARK    1  A    between atoms: C_1  and  C_2
REMARK    2  A    between atoms: N_6  and  C_21
REMARK    3  A    between atoms: C_10  and  C_20
REMARK    4  A    between atoms: N_11  and  C_12
REMARK    5  A    between atoms: C_12  and  C_13
REMARK    6  A    between atoms: C_21  and  C_22
REMARK    7  A    between atoms: N_24  and  C_25
REMARK    8  A    between atoms: C_25  and  C_26
REMARK    9  A    between atoms: C_26  and  C_27
REMARK   10  A    between atoms: C_27  and  N_28
REMARK   11  A    between atoms: C_30  and  C_37
REMARK   12  A    between atoms: C_33  and  C_36
REMARK                            x       y       z     vdW  Elec       q    Type
REMARK                         _______ _______ _______ _____ _____    ______ ____
ROOT
ATOM      1  C   UNL     1      -0.018   1.503   0.010  0.00  0.00    +0.064 C 
ATOM      2  C   UNL     1       0.002  -0.004   0.002  0.00  0.00    +0.026 A 
ATOM      3  C   UNL     1       0.008  -0.790  -1.102  0.00  0.00    +0.028 A 
ATOM      4  C   UNL     1      -0.001  -0.577  -2.551  0.00  0.00    +0.143 A 
ATOM      5  N   UNL     1       0.009  -1.598  -3.353  0.00  0.00    -0.176 NA
ATOM      6  N   UNL     1       0.029  -2.920  -2.916  0.00  0.00    -0.220 N 
ATOM      7  C   UNL     1       0.039  -3.256  -1.609  0.00  0.00    +0.277 A 
ATOM      8  O   UNL     1       0.057  -4.425  -1.268  0.00  0.00    -0.265 OA
ATOM      9  C   UNL     1       0.030  -2.186  -0.609  0.00  0.00    +0.070 A 
ATOM     10  C   UNL     1       0.035  -2.107   0.746  0.00  0.00    +0.029 A 
ATOM     11  N   UNL     1       0.023  -0.805   1.102  0.00  0.00    -0.343 N 
ATOM     12  C   UNL     1       0.054  -3.278   1.694  0.00  0.00    +0.064 C 
ENDROOT
BRANCH  11  13
ATOM     13  C   UNL     1       0.030  -0.321   2.485  0.00  0.00    +0.157 C 
BRANCH  13  14
ATOM     14  C   UNL     1      -1.389  -0.174   2.973  0.00  0.00    -0.028 A 
ATOM     15  C   UNL     1      -2.060   1.020   2.795  0.00  0.00    +0.007 A 
ATOM     16  C   UNL     1      -3.361   1.155   3.242  0.00  0.00    +0.020 A 
ATOM     17  C   UNL     1      -3.991   0.094   3.867  0.00  0.00    +0.041 A 
ATOM     18  C   UNL     1      -3.318  -1.102   4.045  0.00  0.00    +0.020 A 
ATOM     19  C   UNL     1      -2.019  -1.237   3.592  0.00  0.00    +0.007 A 
ATOM     20 CL   UNL     1      -5.625   0.262   4.430  0.00  0.00    -0.084 Cl
ENDBRANCH  13  14
ENDBRANCH  11  13
BRANCH   6  21
ATOM     21  C   UNL     1       0.039  -3.991  -3.916  0.00  0.00    +0.243 C 
BRANCH  21  22
ATOM     22  C   UNL     1      -1.378  -4.377  -4.253  0.00  0.00    +0.235 C 
ATOM     23  O   UNL     1      -2.305  -3.814  -3.710  0.00  0.00    -0.274 OA
ATOM     24  N   UNL     1      -1.615  -5.349  -5.156  0.00  0.00    -0.314 N 
ATOM     25  H   UNL     1      -0.873  -5.799  -5.590  0.00  0.00    +0.149 HD
BRANCH  24  26
ATOM     26  C   UNL     1      -2.993  -5.725  -5.483  0.00  0.00    +0.102 C 
BRANCH  26  27
ATOM     27  C   UNL     1      -2.982  -6.843  -6.528  0.00  0.00    +0.000 C 
BRANCH  27  28
ATOM     28  C   UNL     1      -4.421  -7.235  -6.869  0.00  0.00    -0.077 C 
BRANCH  28  29
ATOM     29  N   UNL     1      -4.411  -8.308  -7.872  0.00  0.00    +0.380 N 
ATOM     30  C   UNL     1      -3.830  -7.803  -9.122  0.00  0.00    -0.076 C 
ATOM     31  C   UNL     1      -3.743  -8.938 -10.144  0.00  0.00    -0.031 C 
ATOM     32  C   UNL     1      -5.148  -9.482 -10.416  0.00  0.00    +0.003 C 
ATOM     33  C   UNL     1      -5.772  -9.939  -9.094  0.00  0.00    -0.031 C 
ATOM     34  C   UNL     1      -5.785  -8.766  -8.111  0.00  0.00    -0.076 C 
ATOM     35  C   UNL     1      -7.206 -10.413  -9.343  0.00  0.00    +0.005 C 
ATOM     36  C   UNL     1      -3.139  -8.408 -11.446  0.00  0.00    +0.005 C 
ATOM     37  H   UNL     1      -3.855  -9.079  -7.533  0.00  0.00    -0.082 HD
ENDBRANCH  28  29
ENDBRANCH  27  28
ENDBRANCH  26  27
ENDBRANCH  24  26
ENDBRANCH  21  22
ENDBRANCH   6  21
TORSDOF 8
