REMARK  Name = ZINC29169818
REMARK  5 active torsions:
REMARK  status: ('A' for Active; 'I' for Inactive)
REMARK    1  A    between atoms: N_6  and  C_8
REMARK    2  A    between atoms: C_8  and  N_9
REMARK    3  A    between atoms: N_12  and  C_15
REMARK    4  A    between atoms: C_16  and  C_23
REMARK    5  A    between atoms: C_18  and  C_20
REMARK                            x       y       z     vdW  Elec       q    Type
REMARK                         _______ _______ _______ _____ _____    ______ ____
ROOT
ATOM      1  N   UNL     1       2.043  -4.329  -1.103  0.00  0.00    +0.395 N 
ATOM      2  C   UNL     1       1.161  -4.090   0.048  0.00  0.00    -0.057 C 
ATOM      3  C   UNL     1       0.617  -2.660  -0.019  0.00  0.00    +0.089 C 
ATOM      4  N   UNL     1       1.739  -1.712  -0.024  0.00  0.00    -0.303 N 
ATOM      5  C   UNL     1       2.622  -1.951  -1.175  0.00  0.00    +0.089 C 
ATOM      6  C   UNL     1       3.166  -3.380  -1.108  0.00  0.00    -0.057 C 
ATOM      7  H   UNL     1       1.458  -4.168  -2.020  0.00  0.00    -0.079 HD
ENDROOT
BRANCH   4   8
ATOM      8  C   UNL     1       1.285  -0.409  -0.012  0.00  0.00    +0.227 A 
ATOM      9  C   UNL     1       2.061   0.738  -0.014  0.00  0.00    +0.201 A 
ATOM     10  N   UNL     1       1.199   1.794   0.000  0.00  0.00    -0.200 NA
ATOM     11  C   UNL     1      -0.016   1.339   0.009  0.00  0.00    +0.202 A 
ATOM     12  O   UNL     1       0.002  -0.004   0.002  0.00  0.00    -0.425 OA
BRANCH  11  13
ATOM     13  C   UNL     1      -1.260   2.189   0.020  0.00  0.00    +0.075 C 
ATOM     14  C   UNL     1      -1.088   3.696  -0.176  0.00  0.00    +0.013 C 
ATOM     15  C   UNL     1      -1.455   3.141   1.202  0.00  0.00    +0.013 C 
ENDBRANCH  11  13
BRANCH   9  16
ATOM     16  C   UNL     1       3.491   0.802  -0.026  0.00  0.00    +0.124 C 
ATOM     17  N   UNL     1       4.626   0.853  -0.037  0.00  0.00    -0.189 NA
ENDBRANCH   9  16
ENDBRANCH   4   8
BRANCH   1  18
ATOM     18  C   UNL     1       2.526  -5.716  -1.115  0.00  0.00    +0.073 C 
BRANCH  18  24
ATOM     19  C   UNL     1       6.027  -5.378  -1.868  0.00  0.00    +0.154 A 
ATOM     20  C   UNL     1       6.156  -5.900  -3.167  0.00  0.00    +0.084 A 
ATOM     21  C   UNL     1       5.033  -6.372  -3.791  0.00  0.00    +0.126 A 
ATOM     22  C   UNL     1       3.813  -6.308  -3.084  0.00  0.00    +0.285 A 
ATOM     23  O   UNL     1       2.783  -6.720  -3.594  0.00  0.00    -0.265 OA
ATOM     24  N   UNL     1       3.796  -5.785  -1.844  0.00  0.00    -0.245 N 
ATOM     25  N   UNL     1       4.864  -5.348  -1.280  0.00  0.00    -0.177 NA
ATOM     26 CL   UNL     1       5.107  -7.032  -5.394  0.00  0.00    -0.076 Cl
ATOM     27 CL   UNL     1       7.700  -5.945  -3.960  0.00  0.00    -0.080 Cl
ENDBRANCH  18  24
ENDBRANCH   1  18
TORSDOF 5
