REMARK  Name = ZINC07020693
REMARK  8 active torsions:
REMARK  status: ('A' for Active; 'I' for Inactive)
REMARK    1  A    between atoms: C_1  and  N_2
REMARK    2  A    between atoms: N_2  and  C_3
REMARK    3  A    between atoms: C_3  and  C_4
REMARK    4  A    between atoms: C_7  and  S_10
REMARK    5  A    between atoms: S_10  and  C_11
REMARK    6  A    between atoms: C_12  and  C_14
REMARK    7  A    between atoms: C_14  and  S_15
REMARK    8  A    between atoms: S_15  and  C_16
REMARK                            x       y       z     vdW  Elec       q    Type
REMARK                         _______ _______ _______ _____ _____    ______ ____
ROOT
ATOM      1  C   UNL     1       0.038  -3.398  -3.453  0.00  0.00    +0.173 C 
ENDROOT
BRANCH   1   4
ATOM      2  C   UNL     1       2.481  -2.896  -2.108  0.00  0.00    +0.132 C 
ATOM      3  N   UNL     1       1.217  -2.669  -1.404  0.00  0.00    -0.300 N 
ATOM      4  C   UNL     1       0.046  -2.903  -2.030  0.00  0.00    +0.226 C 
ATOM      5  O   UNL     1      -1.001  -2.715  -1.447  0.00  0.00    -0.275 OA
BRANCH   3   6
ATOM      6  C   UNL     1       1.224  -2.188  -0.020  0.00  0.00    +0.142 C 
BRANCH   6   7
ATOM      7  C   UNL     1       1.208  -0.681  -0.013  0.00  0.00    -0.030 A 
ATOM      8  C   UNL     1       0.002  -0.004   0.002  0.00  0.00    +0.006 A 
ATOM      9  C   UNL     1      -0.017   1.377   0.010  0.00  0.00    +0.015 A 
ATOM     10  C   UNL     1       1.178   2.086   0.002  0.00  0.00    +0.008 A 
ATOM     11  C   UNL     1       2.388   1.403  -0.012  0.00  0.00    +0.015 A 
ATOM     12  C   UNL     1       2.399   0.022  -0.020  0.00  0.00    +0.006 A 
BRANCH  10  13
ATOM     13  S   UNL     1       1.159   3.848   0.012  0.00  0.00    -0.129 S 
ATOM     14  C   UNL     1       2.915   4.306  -0.003  0.00  0.00    +0.090 C 
ENDBRANCH  10  13
ENDBRANCH   6   7
ENDBRANCH   3   6
ENDBRANCH   1   4
BRANCH   1  15
ATOM     15  S   UNL     1      -1.671  -3.615  -4.007  0.00  0.00    -0.077 S 
BRANCH  15  16
ATOM     16  C   UNL     1      -1.391  -4.183  -5.651  0.00  0.00    +0.195 A 
ATOM     17  N   UNL     1      -0.148  -4.317  -6.105  0.00  0.00    -0.189 NA
ATOM     18  C   UNL     1       0.064  -4.751  -7.344  0.00  0.00    +0.218 A 
ATOM     19  N   UNL     1      -0.967  -5.040  -8.132  0.00  0.00    -0.181 NA
ATOM     20  C   UNL     1      -2.209  -4.900  -7.680  0.00  0.00    +0.218 A 
ATOM     21  N   UNL     1      -2.421  -4.472  -6.440  0.00  0.00    -0.189 NA
ATOM     22  N   UNL     1      -3.279  -5.200  -8.499  0.00  0.00    -0.327 N 
ATOM     23  N   UNL     1       1.354  -4.896  -7.813  0.00  0.00    -0.327 N 
ATOM     24  H   UNL     1      -4.186  -5.098  -8.170  0.00  0.00    +0.145 HD
ATOM     25  H   UNL     1      -3.124  -5.513  -9.405  0.00  0.00    +0.145 HD
ATOM     26  H   UNL     1       1.508  -5.208  -8.719  0.00  0.00    +0.145 HD
ATOM     27  H   UNL     1       2.106  -4.685  -7.238  0.00  0.00    +0.145 HD
ENDBRANCH  15  16
ENDBRANCH   1  15
TORSDOF 6
