REMARK  Name = ZINC08857298
REMARK  15 active torsions:
REMARK  status: ('A' for Active; 'I' for Inactive)
REMARK    1  A    between atoms: C_1  and  C_2
REMARK    2  A    between atoms: C_5  and  N_9
REMARK    3  A    between atoms: C_6  and  C_8
REMARK    4  A    between atoms: C_10  and  C_12
REMARK    5  A    between atoms: C_12  and  S_13
REMARK    6  A    between atoms: S_13  and  C_14
REMARK    7  A    between atoms: C_15  and  C_36
REMARK    8  A    between atoms: C_16  and  C_29
REMARK    9  A    between atoms: C_18  and  C_22
REMARK   10  A    between atoms: C_19  and  C_21
REMARK   11  A    between atoms: C_22  and  O_24
REMARK   12  A    between atoms: O_24  and  C_25
REMARK   13  A    between atoms: C_25  and  C_26
REMARK   14  A    between atoms: C_25  and  C_27
REMARK   15  A    between atoms: C_25  and  C_28
REMARK                            x       y       z     vdW  Elec       q    Type
REMARK                         _______ _______ _______ _____ _____    ______ ____
ROOT
ATOM      1  C   UNL     1      -5.074   2.295  -1.186  0.00  0.00    +0.093 C 
ATOM      2  C   UNL     1      -4.067   3.188  -0.997  0.00  0.00    +0.158 C 
ATOM      3  C   UNL     1      -3.480   3.427   0.366  0.00  0.00    +0.081 C 
ATOM      4  C   UNL     1      -4.382   2.885   1.437  0.00  0.00    +0.066 C 
ATOM      5  C   UNL     1      -5.363   2.010   1.158  0.00  0.00    +0.050 C 
ATOM      6  N   UNL     1      -5.587   1.587  -0.122  0.00  0.00    -0.248 NA
ATOM      7  C   UNL     1      -6.232   1.490   2.275  0.00  0.00    +0.066 C 
ENDROOT
BRANCH   3   8
ATOM      8  C   UNL     1      -2.139   2.746   0.455  0.00  0.00    -0.038 A 
ATOM      9  C   UNL     1      -2.047   1.376   0.290  0.00  0.00    +0.006 A 
ATOM     10  C   UNL     1      -0.818   0.750   0.377  0.00  0.00    +0.020 A 
ATOM     11  C   UNL     1       0.322   1.496   0.618  0.00  0.00    +0.041 A 
ATOM     12  C   UNL     1       0.231   2.867   0.778  0.00  0.00    +0.020 A 
ATOM     13  C   UNL     1      -1.000   3.491   0.696  0.00  0.00    +0.006 A 
ATOM     14 CL   UNL     1       1.867   0.711   0.721  0.00  0.00    -0.084 Cl
ENDBRANCH   3   8
BRANCH   4  15
ATOM     15  C   UNL     1      -4.193   3.304   2.773  0.00  0.00    +0.338 C 
ATOM     16  O   UNL     1      -4.976   2.955   3.637  0.00  0.00    -0.245 OA
BRANCH  15  17
ATOM     17  O   UNL     1      -3.144   4.092   3.091  0.00  0.00    -0.456 OA
BRANCH  17  18
ATOM     18  C   UNL     1      -3.015   4.478   4.461  0.00  0.00    +0.106 C 
ATOM     19  C   UNL     1      -2.869   3.228   5.332  0.00  0.00    +0.055 C 
ATOM     20  C   UNL     1      -1.777   5.362   4.627  0.00  0.00    +0.055 C 
ATOM     21  C   UNL     1      -4.260   5.257   4.891  0.00  0.00    +0.055 C 
ENDBRANCH  17  18
ENDBRANCH  15  17
ENDBRANCH   4  15
BRANCH   2  22
ATOM     22  C   UNL     1      -3.557   3.917  -2.119  0.00  0.00    +0.074 C 
ATOM     23  N   UNL     1      -3.152   4.495  -3.009  0.00  0.00    -0.196 NA
ENDBRANCH   2  22
BRANCH   1  24
ATOM     24  S   UNL     1      -5.726   2.040  -2.803  0.00  0.00    -0.100 S 
BRANCH  24  25
ATOM     25  C   UNL     1      -6.985   0.792  -2.440  0.00  0.00    +0.171 C 
BRANCH  25  27
ATOM     26  N   UNL     1      -8.679  -0.511  -3.687  0.00  0.00    -0.285 N 
ATOM     27  C   UNL     1      -7.695   0.409  -3.714  0.00  0.00    +0.227 C 
ATOM     28  O   UNL     1      -7.380   0.930  -4.763  0.00  0.00    -0.275 OA
ATOM     29  H   UNL     1      -8.974  -0.881  -2.840  0.00  0.00    +0.155 HD
BRANCH  26  34
ATOM     30  C   UNL     1     -11.098  -2.220  -8.526  0.00  0.00    +0.044 C 
ATOM     31  C   UNL     1     -10.455  -1.766  -7.240  0.00  0.00    -0.050 A 
ATOM     32  C   UNL     1     -10.029  -0.457  -7.106  0.00  0.00    +0.005 A 
ATOM     33  C   UNL     1      -9.446  -0.036  -5.928  0.00  0.00    +0.024 A 
ATOM     34  C   UNL     1      -9.276  -0.932  -4.880  0.00  0.00    +0.036 A 
ATOM     35  C   UNL     1      -9.704  -2.246  -5.018  0.00  0.00    -0.029 A 
ATOM     36  C   UNL     1     -10.293  -2.659  -6.197  0.00  0.00    +0.008 A 
ATOM     37  C   UNL     1      -9.527  -3.220  -3.882  0.00  0.00    +0.045 C 
ENDBRANCH  26  34
ENDBRANCH  25  27
ENDBRANCH  24  25
ENDBRANCH   1  24
TORSDOF 9
