REMARK  Name = ZINC45615422
REMARK  6 active torsions:
REMARK  status: ('A' for Active; 'I' for Inactive)
REMARK    1  A    between atoms: C_1  and  C_2
REMARK    2  A    between atoms: C_2  and  C_4
REMARK    3  A    between atoms: C_7  and  N_13
REMARK    4  A    between atoms: C_8  and  N_10
REMARK    5  A    between atoms: C_19  and  N_23
REMARK    6  A    between atoms: C_20  and  C_21
REMARK                            x       y       z     vdW  Elec       q    Type
REMARK                         _______ _______ _______ _____ _____    ______ ____
ROOT
ATOM      1  N   UNL     1      -4.825  -2.880   0.034  0.00  0.00    -0.323 N 
ATOM      2  C   UNL     1      -5.474  -3.265   1.296  0.00  0.00    +0.110 C 
ATOM      3  C   UNL     1      -6.826  -2.558   1.415  0.00  0.00    +0.056 C 
ATOM      4  C   UNL     1      -7.586  -2.711   0.106  0.00  0.00    -0.015 A 
ATOM      5  C   UNL     1      -6.956  -3.027  -1.046  0.00  0.00    +0.013 A 
ATOM      6  S   UNL     1      -8.239  -3.084  -2.261  0.00  0.00    -0.076 S 
ATOM      7  C   UNL     1      -9.563  -2.710  -1.298  0.00  0.00    +0.081 A 
ATOM      8  C   UNL     1      -9.023  -2.538  -0.033  0.00  0.00    +0.083 A 
ATOM      9  C   UNL     1      -5.492  -3.270  -1.225  0.00  0.00    +0.147 C 
ENDROOT
BRANCH   1  13
ATOM     10  C   UNL     1      -1.259  -0.755   0.010  0.00  0.00    +0.019 A 
ATOM     11  C   UNL     1      -2.483  -0.073   0.020  0.00  0.00    +0.013 A 
ATOM     12  C   UNL     1      -3.653  -0.776   0.027  0.00  0.00    +0.026 A 
ATOM     13  C   UNL     1      -3.632  -2.169   0.026  0.00  0.00    +0.061 A 
ATOM     14  C   UNL     1      -2.418  -2.851   0.017  0.00  0.00    +0.148 A 
ATOM     15  C   UNL     1      -1.242  -2.156   0.002  0.00  0.00    +0.046 A 
BRANCH  10  17
ATOM     16  C   UNL     1      -0.018   1.503   0.010  0.00  0.00    +0.091 C 
ATOM     17  C   UNL     1       0.002  -0.004   0.002  0.00  0.00    +0.160 C 
ATOM     18  O   UNL     1       1.061  -0.596  -0.011  0.00  0.00    -0.292 OA
ENDBRANCH  10  17
BRANCH  14  19
ATOM     19  N   UNL     1      -2.401  -4.331   0.016  0.00  0.00    +0.058 N 
ATOM     20  O   UNL     1      -1.347  -4.924   0.008  0.00  0.00    -0.126 OA
ATOM     21  O   UNL     1      -3.441  -4.947   0.023  0.00  0.00    -0.126 OA
ENDBRANCH  14  19
ENDBRANCH   1  13
BRANCH   7  22
ATOM     22  N   UNL     1     -10.888  -2.599  -1.680  0.00  0.00    -0.352 N 
ATOM     23  H   UNL     1     -11.140  -2.745  -2.605  0.00  0.00    +0.143 HD
ATOM     24  H   UNL     1     -11.565  -2.375  -1.022  0.00  0.00    +0.143 HD
ENDBRANCH   7  22
BRANCH   8  25
ATOM     25  C   UNL     1      -9.846  -2.203   1.090  0.00  0.00    +0.102 C 
ATOM     26  N   UNL     1     -10.499  -1.938   1.980  0.00  0.00    -0.191 NA
ENDBRANCH   8  25
TORSDOF 5
