REMARK  Name = ZINC35965721
REMARK  9 active torsions:
REMARK  status: ('A' for Active; 'I' for Inactive)
REMARK    1  A    between atoms: C_1  and  C_2
REMARK    2  A    between atoms: C_2  and  N_3
REMARK    3  A    between atoms: C_6  and  C_11
REMARK    4  A    between atoms: C_14  and  C_17
REMARK    5  A    between atoms: N_20  and  C_22
REMARK    6  A    between atoms: C_22  and  C_24
REMARK    7  A    between atoms: C_22  and  C_30
REMARK    8  A    between atoms: N_32  and  C_33
REMARK    9  A    between atoms: C_33  and  C_34
REMARK                            x       y       z     vdW  Elec       q    Type
REMARK                         _______ _______ _______ _____ _____    ______ ____
ROOT
ATOM      1  N   UNL     1      -2.635  -1.660  -0.135  0.00  0.00    -0.257 N 
ATOM      2  C   UNL     1      -2.835  -1.279   1.161  0.00  0.00    +0.042 C 
ATOM      3  C   UNL     1      -3.697  -0.289   1.473  0.00  0.00    +0.058 C 
ATOM      4  C   UNL     1      -4.436   0.386   0.336  0.00  0.00    +0.142 C 
ATOM      5  N   UNL     1      -4.150  -0.098  -1.026  0.00  0.00    -0.288 N 
ATOM      6  C   UNL     1      -3.256  -1.095  -1.178  0.00  0.00    +0.307 C 
ATOM      7  O   UNL     1      -3.010  -1.498  -2.298  0.00  0.00    -0.252 OA
ATOM      8  C   UNL     1      -3.726  -0.086   2.868  0.00  0.00    +0.247 C 
ATOM      9  O   UNL     1      -4.417   0.745   3.428  0.00  0.00    -0.270 OA
ATOM     10  N   UNL     1      -2.890  -0.931   3.499  0.00  0.00    -0.277 N 
ATOM     11  C   UNL     1      -2.251  -1.763   2.469  0.00  0.00    +0.160 C 
ATOM     12  H   UNL     1      -4.592   0.295  -1.795  0.00  0.00    +0.151 HD
ENDROOT
BRANCH   4  13
ATOM     13  C   UNL     1      -4.116   1.857   0.382  0.00  0.00    -0.023 A 
ATOM     14  C   UNL     1      -2.925   2.323  -0.143  0.00  0.00    +0.006 A 
ATOM     15  C   UNL     1      -2.631   3.673  -0.101  0.00  0.00    +0.004 A 
ATOM     16  C   UNL     1      -3.528   4.558   0.467  0.00  0.00    -0.050 A 
ATOM     17  C   UNL     1      -4.720   4.093   0.992  0.00  0.00    +0.004 A 
ATOM     18  C   UNL     1      -5.016   2.743   0.945  0.00  0.00    +0.006 A 
ATOM     19  C   UNL     1      -3.208   6.029   0.514  0.00  0.00    +0.044 C 
ENDBRANCH   4  13
BRANCH   1  21
ATOM     20  C   UNL     1      -0.285  -2.153  -0.604  0.00  0.00    +0.025 C 
ATOM     21  C   UNL     1      -1.683  -2.742  -0.399  0.00  0.00    +0.111 C 
ENDBRANCH   1  21
BRANCH  10  22
ATOM     22  C   UNL     1      -2.660  -1.007   4.944  0.00  0.00    +0.193 C 
BRANCH  22  23
ATOM     23  C   UNL     1      -2.914  -2.414   5.420  0.00  0.00    -0.018 A 
ATOM     24  C   UNL     1      -2.220  -3.469   4.860  0.00  0.00    +0.006 A 
ATOM     25  C   UNL     1      -2.453  -4.760   5.296  0.00  0.00    +0.000 A 
ATOM     26  C   UNL     1      -3.381  -4.995   6.293  0.00  0.00    +0.000 A 
ATOM     27  C   UNL     1      -4.075  -3.939   6.854  0.00  0.00    +0.000 A 
ATOM     28  C   UNL     1      -3.839  -2.648   6.421  0.00  0.00    +0.006 A 
ENDBRANCH  22  23
BRANCH  22  29
ATOM     29  C   UNL     1      -1.234  -0.625   5.246  0.00  0.00    +0.238 C 
ATOM     30  O   UNL     1      -0.483  -0.319   4.343  0.00  0.00    -0.273 OA
ATOM     31  N   UNL     1      -0.791  -0.623   6.519  0.00  0.00    -0.306 N 
ATOM     32  H   UNL     1      -1.391  -0.867   7.241  0.00  0.00    +0.149 HD
BRANCH  31  33
ATOM     33  C   UNL     1       0.595  -0.252   6.813  0.00  0.00    +0.178 C 
BRANCH  33  34
ATOM     34  C   UNL     1       0.832  -0.330   8.299  0.00  0.00    +0.122 A 
ATOM     35  C   UNL     1       1.262  -1.413   8.971  0.00  0.00    +0.046 A 
ATOM     36  C   UNL     1       1.344  -1.044  10.334  0.00  0.00    +0.041 A 
ATOM     37  C   UNL     1       0.958   0.242  10.413  0.00  0.00    +0.195 A 
ATOM     38  O   UNL     1       0.655   0.671   9.177  0.00  0.00    -0.466 OA
ENDBRANCH  33  34
ENDBRANCH  31  33
ENDBRANCH  22  29
ENDBRANCH  10  22
TORSDOF 7
