REMARK  Name = ZINC04875401
REMARK  7 active torsions:
REMARK  status: ('A' for Active; 'I' for Inactive)
REMARK    1  A    between atoms: C_4  and  C_7
REMARK    2  A    between atoms: C_7  and  C_8
REMARK    3  A    between atoms: C_8  and  N_9
REMARK    4  A    between atoms: C_10  and  C_14
REMARK    5  A    between atoms: C_14  and  C_16
REMARK    6  A    between atoms: C_14  and  N_55
REMARK    7  A    between atoms: C_25  and  C_28
REMARK                            x       y       z     vdW  Elec       q    Type
REMARK                         _______ _______ _______ _____ _____    ______ ____
ROOT
ATOM      1  C   UNL     1      -2.514   0.979   0.019  0.00  0.00    +0.033 C 
ENDROOT
BRANCH   1   2
ATOM      2  C   UNL     1      -1.208   1.731  -0.015  0.00  0.00    -0.054 A 
ATOM      3  C   UNL     1      -0.437   1.828   1.128  0.00  0.00    +0.004 A 
ATOM      4  C   UNL     1       0.764   2.512   1.095  0.00  0.00    +0.020 A 
ATOM      5  C   UNL     1       1.191   3.104  -0.080  0.00  0.00    +0.041 A 
ATOM      6  C   UNL     1       0.416   3.012  -1.222  0.00  0.00    +0.020 A 
ATOM      7  C   UNL     1      -0.785   2.327  -1.188  0.00  0.00    +0.004 A 
ATOM      8 CL   UNL     1       2.699   3.963  -0.121  0.00  0.00    -0.084 Cl
ENDBRANCH   1   2
BRANCH   1  14
ATOM      9  C   UNL     1      -3.692   3.075  -0.261  0.00  0.00    -0.077 C 
ATOM     10  C   UNL     1      -4.633   3.848  -1.188  0.00  0.00    -0.006 C 
ATOM     11  C   UNL     1      -5.985   3.130  -1.247  0.00  0.00    +0.071 C 
ATOM     12  C   UNL     1      -5.771   1.693  -1.730  0.00  0.00    -0.006 C 
ATOM     13  C   UNL     1      -4.796   0.983  -0.788  0.00  0.00    -0.077 C 
ATOM     14  N   UNL     1      -3.508   1.708  -0.795  0.00  0.00    +0.389 N 
ATOM     15  H   UNL     1      -3.167   1.771  -1.761  0.00  0.00    -0.080 HD
BRANCH  11  16
ATOM     16  C   UNL     1      -6.899   3.853  -2.203  0.00  0.00    +0.213 C 
ATOM     17  O   UNL     1      -7.336   3.276  -3.176  0.00  0.00    -0.276 OA
ATOM     18  N   UNL     1      -7.229   5.139  -1.978  0.00  0.00    -0.329 N 
ATOM     19  H   UNL     1      -6.880   5.601  -1.200  0.00  0.00    +0.145 HD
ATOM     20  H   UNL     1      -7.817   5.604  -2.594  0.00  0.00    +0.145 HD
ENDBRANCH  11  16
ENDBRANCH   1  14
BRANCH   1  22
ATOM     21  N   UNL     1      -2.941  -0.251   2.212  0.00  0.00    -0.230 N 
ATOM     22  C   UNL     1      -2.984   0.854   1.445  0.00  0.00    +0.142 A 
ATOM     23  N   UNL     1      -3.510   1.803   2.181  0.00  0.00    -0.115 NA
ATOM     24  N   UNL     1      -3.783   1.304   3.337  0.00  0.00    -0.023 NA
ATOM     25  N   UNL     1      -3.438   0.064   3.360  0.00  0.00    -0.044 NA
BRANCH  21  26
ATOM     26  C   UNL     1      -2.427  -1.565   1.817  0.00  0.00    +0.152 C 
BRANCH  26  27
ATOM     27  C   UNL     1      -0.935  -1.648   2.144  0.00  0.00    +0.058 C 
BRANCH  27  31
ATOM     28  C   UNL     1       0.564  -5.479   0.992  0.00  0.00    +0.000 A 
ATOM     29  C   UNL     1       0.584  -4.429   0.092  0.00  0.00    +0.000 A 
ATOM     30  C   UNL     1       0.099  -3.190   0.465  0.00  0.00    +0.004 A 
ATOM     31  C   UNL     1      -0.406  -2.999   1.738  0.00  0.00    -0.046 A 
ATOM     32  C   UNL     1      -0.421  -4.047   2.639  0.00  0.00    +0.004 A 
ATOM     33  C   UNL     1       0.059  -5.288   2.265  0.00  0.00    +0.000 A 
ENDBRANCH  27  31
ENDBRANCH  26  27
ENDBRANCH  21  26
ENDBRANCH   1  22
TORSDOF 7
