REMARK  Name = ZINC20700427
REMARK  5 active torsions:
REMARK  status: ('A' for Active; 'I' for Inactive)
REMARK    1  A    between atoms: C_2  and  C_3
REMARK    2  A    between atoms: C_3  and  N_4
REMARK    3  A    between atoms: N_4  and  S_5
REMARK    4  A    between atoms: S_5  and  C_8
REMARK    5  A    between atoms: C_21  and  C_24
REMARK                            x       y       z     vdW  Elec       q    Type
REMARK                         _______ _______ _______ _____ _____    ______ ____
ROOT
ATOM      1  C   UNL     1      -4.866  -0.306   1.647  0.00  0.00    +0.106 A 
ATOM      2  C   UNL     1      -5.104  -0.240   0.286  0.00  0.00    +0.030 A 
ATOM      3  C   UNL     1      -4.683   0.864  -0.429  0.00  0.00    +0.025 A 
ATOM      4  C   UNL     1      -4.024   1.901   0.218  0.00  0.00    +0.031 A 
ATOM      5  C   UNL     1      -3.784   1.840   1.582  0.00  0.00    -0.018 A 
ATOM      6  C   UNL     1      -4.212   0.725   2.290  0.00  0.00    +0.034 A 
ATOM      7  C   UNL     1      -3.079   2.933   2.321  0.00  0.00    +0.049 C 
ATOM      8  C   UNL     1      -1.661   2.542   2.663  0.00  0.00    -0.023 C 
ATOM      9  C   UNL     1      -0.870   3.583   2.573  0.00  0.00    -0.030 C 
ATOM     10  C   UNL     1      -1.655   4.813   2.163  0.00  0.00    +0.033 C 
ATOM     11  C   UNL     1      -2.927   4.220   1.488  0.00  0.00    +0.029 C 
ATOM     12  C   UNL     1      -2.554   3.868   0.045  0.00  0.00    +0.106 C 
ATOM     13  N   UNL     1      -3.602   3.012  -0.521  0.00  0.00    -0.336 N 
ATOM     14  H   UNL     1      -4.035   3.250  -1.504  0.00  0.00    +0.147 HD
ENDROOT
BRANCH  12  15
ATOM     15  C   UNL     1      -1.238   3.132   0.030  0.00  0.00    -0.009 A 
ATOM     16  C   UNL     1      -1.209   1.764   0.219  0.00  0.00    +0.007 A 
ATOM     17  C   UNL     1      -0.002   1.090   0.210  0.00  0.00    +0.000 A 
ATOM     18  C   UNL     1       1.175   1.783   0.001  0.00  0.00    +0.001 A 
ATOM     19  C   UNL     1       1.147   3.151  -0.194  0.00  0.00    +0.020 A 
ATOM     20  C   UNL     1      -0.060   3.827  -0.179  0.00  0.00    +0.046 A 
ATOM     21 CL   UNL     1      -0.097   5.545  -0.424  0.00  0.00    -0.083 Cl
ENDBRANCH  12  15
BRANCH   1  22
ATOM     22  S   UNL     1      -5.400  -1.713   2.563  0.00  0.00    +0.059 S 
ATOM     23  O   UNL     1      -5.543  -1.289   3.912  0.00  0.00    -0.153 OA
ATOM     24  O   UNL     1      -6.470  -2.293   1.830  0.00  0.00    -0.153 OA
BRANCH  22  25
ATOM     25  N   UNL     1      -4.161  -2.811   2.541  0.00  0.00    -0.186 NA
ATOM     26  H   UNL     1      -4.241  -3.699   1.895  0.00  0.00    +0.148 HD
BRANCH  25  27
ATOM     27  C   UNL     1      -2.890  -2.495   3.198  0.00  0.00    +0.132 C 
BRANCH  27  29
ATOM     28  C   UNL     1      -0.862  -3.817   2.884  0.00  0.00    +0.005 C 
ATOM     29  C   UNL     1      -2.081  -3.757   3.359  0.00  0.00    -0.018 C 
ENDBRANCH  27  29
ENDBRANCH  25  27
ENDBRANCH  22  25
ENDBRANCH   1  22
TORSDOF 5
