REMARK  Name = ZINC08743041
REMARK  5 active torsions:
REMARK  status: ('A' for Active; 'I' for Inactive)
REMARK    1  A    between atoms: C_1  and  N_53
REMARK    2  A    between atoms: C_3  and  C_26
REMARK    3  A    between atoms: C_5  and  C_17
REMARK    4  A    between atoms: C_17  and  C_19
REMARK    5  A    between atoms: C_29  and  N_32
REMARK                            x       y       z     vdW  Elec       q    Type
REMARK                         _______ _______ _______ _____ _____    ______ ____
ROOT
ATOM      1  C   UNL     1      -6.580   5.430   0.595  0.00  0.00    -0.094 C 
ATOM      2  C   UNL     1      -5.215   3.869   1.873  0.00  0.00    -0.068 C 
ATOM      3  C   UNL     1      -4.215   2.744   1.504  0.00  0.00    +0.012 C 
ATOM      4  C   UNL     1      -3.811   3.102   0.054  0.00  0.00    +0.068 C 
ATOM      5  C   UNL     1      -4.953   3.983  -0.467  0.00  0.00    +0.050 C 
ATOM      6  C   UNL     1      -5.558   3.400  -1.716  0.00  0.00    -0.027 A 
ATOM      7  C   UNL     1      -6.185   2.206  -1.993  0.00  0.00    +0.004 A 
ATOM      8  C   UNL     1      -6.647   1.948  -3.272  0.00  0.00    +0.000 A 
ATOM      9  C   UNL     1      -6.477   2.892  -4.268  0.00  0.00    +0.002 A 
ATOM     10  C   UNL     1      -5.850   4.089  -3.994  0.00  0.00    +0.023 A 
ATOM     11  C   UNL     1      -5.382   4.357  -2.709  0.00  0.00    +0.036 A 
ATOM     12  N   UNL     1      -4.727   5.476  -2.192  0.00  0.00    -0.286 N 
ATOM     13  C   UNL     1      -4.442   5.338  -0.883  0.00  0.00    +0.212 C 
ATOM     14  O   UNL     1      -3.881   6.147  -0.176  0.00  0.00    -0.277 OA
ATOM     15  H   UNL     1      -4.505   6.263  -2.714  0.00  0.00    +0.155 HD
ATOM     16  N   UNL     1      -5.932   4.083   0.610  0.00  0.00    +0.391 N 
ATOM     17  H   UNL     1      -6.653   3.361   0.494  0.00  0.00    -0.080 HD
ENDROOT
BRANCH   3  18
ATOM     18  C   UNL     1      -3.016   2.775   2.416  0.00  0.00    -0.045 A 
ATOM     19  C   UNL     1      -2.292   3.943   2.565  0.00  0.00    +0.006 A 
ATOM     20  C   UNL     1      -1.195   3.974   3.405  0.00  0.00    +0.033 A 
ATOM     21  C   UNL     1      -0.815   2.833   4.088  0.00  0.00    +0.126 A 
ATOM     22  C   UNL     1      -1.536   1.664   3.934  0.00  0.00    +0.033 A 
ATOM     23  C   UNL     1      -2.636   1.635   3.098  0.00  0.00    +0.006 A 
BRANCH  21  24
ATOM     24  N   UNL     1       0.363   2.864   4.984  0.00  0.00    +0.056 N 
ATOM     25  O   UNL     1       0.697   1.860   5.585  0.00  0.00    -0.126 OA
ATOM     26  O   UNL     1       0.998   3.895   5.119  0.00  0.00    -0.126 OA
ENDBRANCH  21  24
ENDBRANCH   3  18
BRANCH   4  27
ATOM     27  C   UNL     1      -2.513   3.869   0.046  0.00  0.00    +0.166 C 
ATOM     28  O   UNL     1      -2.488   5.023   0.417  0.00  0.00    -0.292 OA
BRANCH  27  29
ATOM     29  C   UNL     1      -1.277   3.217  -0.412  0.00  0.00    +0.018 A 
ATOM     30  C   UNL     1      -1.303   1.887  -0.846  0.00  0.00    +0.014 A 
ATOM     31  C   UNL     1      -0.141   1.280  -1.269  0.00  0.00    +0.039 A 
ATOM     32  C   UNL     1       1.052   1.989  -1.275  0.00  0.00    +0.123 A 
ATOM     33  C   UNL     1       1.084   3.309  -0.851  0.00  0.00    +0.039 A 
ATOM     34  C   UNL     1      -0.070   3.925  -0.420  0.00  0.00    +0.014 A 
ATOM     35  F   UNL     1       2.187   1.390  -1.697  0.00  0.00    -0.205 F 
ENDBRANCH  27  29
ENDBRANCH   4  27
TORSDOF 4
