REMARK  Name = ZINC07942399
REMARK  8 active torsions:
REMARK  status: ('A' for Active; 'I' for Inactive)
REMARK    1  A    between atoms: C_1  and  C_2
REMARK    2  A    between atoms: C_3  and  C_13
REMARK    3  A    between atoms: C_4  and  C_12
REMARK    4  A    between atoms: C_9  and  C_10
REMARK    5  A    between atoms: C_13  and  C_14
REMARK    6  A    between atoms: C_14  and  C_15
REMARK    7  A    between atoms: N_17  and  N_18
REMARK    8  A    between atoms: N_20  and  C_28
REMARK                            x       y       z     vdW  Elec       q    Type
REMARK                         _______ _______ _______ _____ _____    ______ ____
ROOT
ATOM      1  C   UNL     1      -3.846   8.512   0.081  0.00  0.00    +0.233 C 
ATOM      2  O   UNL     1      -5.013   8.180   0.090  0.00  0.00    -0.274 OA
ATOM      3  N   UNL     1      -2.880   7.576   0.068  0.00  0.00    -0.205 N 
ATOM      4  H   UNL     1      -1.947   7.842   0.060  0.00  0.00    +0.177 HD
ENDROOT
BRANCH   3   5
ATOM      5  N   UNL     1      -3.222   6.218   0.064  0.00  0.00    -0.154 NA
ATOM      6  C   UNL     1      -2.284   5.309   0.051  0.00  0.00    +0.191 A 
ATOM      7  N   UNL     1      -2.412   3.934   0.045  0.00  0.00    -0.321 N 
ATOM      8  C   UNL     1      -1.276   3.138   0.030  0.00  0.00    +0.057 A 
ATOM      9  C   UNL     1      -1.220   1.734   0.017  0.00  0.00    +0.027 A 
ATOM     10  C   UNL     1      -0.013   1.076   0.008  0.00  0.00    +0.002 A 
ATOM     11  C   UNL     1       1.184   1.771   0.000  0.00  0.00    +0.001 A 
ATOM     12  C   UNL     1       1.158   3.156   0.007  0.00  0.00    +0.017 A 
ATOM     13  C   UNL     1      -0.049   3.814   0.022  0.00  0.00    +0.039 A 
ATOM     14  S   UNL     1      -0.513   5.529   0.035  0.00  0.00    -0.048 S 
ATOM     15  C   UNL     1      -3.741   3.318   0.055  0.00  0.00    +0.151 C 
ENDBRANCH   3   5
BRANCH   1  16
ATOM     16  C   UNL     1      -3.478   9.974   0.085  0.00  0.00    +0.102 C 
BRANCH  16  17
ATOM     17  C   UNL     1      -4.753  10.820   0.101  0.00  0.00    +0.046 C 
BRANCH  17  20
ATOM     18  C   UNL     1      -4.161  12.170   2.614  0.00  0.00    +0.045 C 
ATOM     19  C   UNL     1      -4.102  12.925   1.311  0.00  0.00    -0.023 A 
ATOM     20  C   UNL     1      -4.386  12.282   0.105  0.00  0.00    -0.024 A 
ATOM     21  C   UNL     1      -4.326  12.968  -1.064  0.00  0.00    +0.019 A 
ATOM     22  N   UNL     1      -4.003  14.284  -1.090  0.00  0.00    -0.325 N 
ATOM     23  H   UNL     1      -3.975  14.766  -1.966  0.00  0.00    +0.169 HD
ATOM     24  C   UNL     1      -3.721  14.953   0.044  0.00  0.00    +0.267 A 
ATOM     25  O   UNL     1      -3.429  16.136  -0.000  0.00  0.00    -0.266 OA
ATOM     26  C   UNL     1      -3.765  14.276   1.291  0.00  0.00    +0.119 A 
ATOM     27  C   UNL     1      -4.628  12.255  -2.356  0.00  0.00    +0.063 C 
BRANCH  26  28
ATOM     28  C   UNL     1      -3.468  14.971   2.508  0.00  0.00    +0.105 C 
ATOM     29  N   UNL     1      -3.231  15.522   3.473  0.00  0.00    -0.191 NA
ENDBRANCH  26  28
ENDBRANCH  17  20
ENDBRANCH  16  17
ENDBRANCH   1  16
TORSDOF 5
