REMARK  Name = ZINC03346212
REMARK  7 active torsions:
REMARK  status: ('A' for Active; 'I' for Inactive)
REMARK    1  A    between atoms: C_1  and  C_2
REMARK    2  A    between atoms: C_5  and  C_35
REMARK    3  A    between atoms: C_6  and  C_8
REMARK    4  A    between atoms: C_14  and  C_16
REMARK    5  A    between atoms: C_16  and  S_17
REMARK    6  A    between atoms: S_17  and  C_18
REMARK    7  A    between atoms: N_28  and  C_29
REMARK                            x       y       z     vdW  Elec       q    Type
REMARK                         _______ _______ _______ _____ _____    ______ ____
ROOT
ATOM      1  C   UNL     1       4.630  -1.222   1.254  0.00  0.00    +0.173 C 
ENDROOT
BRANCH   1   8
ATOM      2  C   UNL     1       5.831  -7.154   0.972  0.00  0.00    +0.080 A 
ATOM      3  C   UNL     1       4.503  -7.475   1.015  0.00  0.00    +0.076 A 
ATOM      4  S   UNL     1       3.771  -5.847   1.115  0.00  0.00    -0.060 S 
ATOM      5  C   UNL     1       5.296  -4.915   1.082  0.00  0.00    +0.165 A 
ATOM      6  N   UNL     1       6.193  -5.880   1.007  0.00  0.00    -0.225 NA
ATOM      7  N   UNL     1       5.486  -3.539   1.128  0.00  0.00    -0.264 N 
ATOM      8  C   UNL     1       4.423  -2.714   1.204  0.00  0.00    +0.229 C 
ATOM      9  O   UNL     1       3.300  -3.172   1.232  0.00  0.00    -0.275 OA
ATOM     10  H   UNL     1       6.384  -3.172   1.106  0.00  0.00    +0.157 HD
BRANCH   2  16
ATOM     11  C   UNL     1       7.674 -11.512   2.566  0.00  0.00    +0.044 C 
ATOM     12  C   UNL     1       7.747 -10.316   1.651  0.00  0.00    -0.050 A 
ATOM     13  C   UNL     1       8.773 -10.214   0.730  0.00  0.00    +0.003 A 
ATOM     14  C   UNL     1       8.846  -9.120  -0.114  0.00  0.00    +0.004 A 
ATOM     15  C   UNL     1       7.891  -8.125  -0.042  0.00  0.00    -0.041 A 
ATOM     16  C   UNL     1       6.858  -8.221   0.888  0.00  0.00    +0.004 A 
ATOM     17  C   UNL     1       6.789  -9.326   1.735  0.00  0.00    +0.013 A 
ATOM     18  C   UNL     1       7.969  -6.936  -0.965  0.00  0.00    +0.044 C 
ENDBRANCH   2  16
ENDBRANCH   1   8
BRANCH   1  19
ATOM     19  S   UNL     1       3.023  -0.393   1.352  0.00  0.00    -0.078 S 
BRANCH  19  20
ATOM     20  C   UNL     1       3.548   1.288   1.397  0.00  0.00    +0.173 A 
ATOM     21  N   UNL     1       4.833   1.543   1.354  0.00  0.00    -0.223 NA
ATOM     22  C   UNL     1       5.304   2.811   1.384  0.00  0.00    +0.080 A 
ATOM     23  C   UNL     1       6.674   3.085   1.338  0.00  0.00    +0.048 A 
ATOM     24  C   UNL     1       7.107   4.392   1.371  0.00  0.00    +0.043 A 
ATOM     25  C   UNL     1       6.198   5.441   1.450  0.00  0.00    +0.021 A 
ATOM     26  C   UNL     1       4.854   5.199   1.496  0.00  0.00    +0.017 A 
ATOM     27  C   UNL     1       4.388   3.885   1.464  0.00  0.00    +0.065 A 
ATOM     28  C   UNL     1       2.954   3.570   1.505  0.00  0.00    +0.263 A 
ATOM     29  O   UNL     1       2.116   4.451   1.568  0.00  0.00    -0.267 OA
ATOM     30  N   UNL     1       2.598   2.265   1.474  0.00  0.00    -0.284 N 
ATOM     31 CL   UNL     1       8.808   4.734   1.314  0.00  0.00    -0.083 Cl
BRANCH  30  32
ATOM     32  C   UNL     1       1.180   1.898   1.518  0.00  0.00    +0.093 C 
ATOM     33  C   UNL     1       0.573   2.296   2.880  0.00  0.00    +0.025 C 
ATOM     34  C   UNL     1      -0.074   3.679   2.616  0.00  0.00    +0.002 C 
ATOM     35  C   UNL     1      -0.655   3.519   1.189  0.00  0.00    +0.002 C 
ATOM     36  C   UNL     1       0.400   2.676   0.444  0.00  0.00    +0.025 C 
ENDBRANCH  30  32
ENDBRANCH  19  20
ENDBRANCH   1  19
TORSDOF 5
