REMARK  Name = ZINC20683031
REMARK  10 active torsions:
REMARK  status: ('A' for Active; 'I' for Inactive)
REMARK    1  A    between atoms: C_1  and  N_2
REMARK    2  A    between atoms: N_5  and  S_8
REMARK    3  A    between atoms: S_8  and  C_11
REMARK    4  A    between atoms: C_24  and  C_27
REMARK    5  A    between atoms: C_29  and  O_37
REMARK    6  A    between atoms: C_30  and  O_35
REMARK    7  A    between atoms: C_31  and  O_33
REMARK    8  A    between atoms: O_33  and  C_34
REMARK    9  A    between atoms: O_35  and  C_36
REMARK   10  A    between atoms: O_37  and  C_38
REMARK                            x       y       z     vdW  Elec       q    Type
REMARK                         _______ _______ _______ _____ _____    ______ ____
ROOT
ATOM      1  C   UNL     1       2.871  -1.756   1.968  0.00  0.00    +0.106 A 
ATOM      2  C   UNL     1       2.922  -2.575   0.855  0.00  0.00    +0.030 A 
ATOM      3  C   UNL     1       2.091  -2.324  -0.218  0.00  0.00    +0.025 A 
ATOM      4  C   UNL     1       1.208  -1.252  -0.178  0.00  0.00    +0.031 A 
ATOM      5  C   UNL     1       1.153  -0.428   0.936  0.00  0.00    -0.018 A 
ATOM      6  C   UNL     1       1.994  -0.691   2.009  0.00  0.00    +0.034 A 
ATOM      7  C   UNL     1       0.214   0.733   1.028  0.00  0.00    +0.049 C 
ATOM      8  C   UNL     1       0.940   2.044   0.846  0.00  0.00    -0.023 C 
ATOM      9  C   UNL     1       0.188   2.891   0.186  0.00  0.00    -0.030 C 
ATOM     10  C   UNL     1      -1.147   2.259  -0.159  0.00  0.00    +0.033 C 
ATOM     11  C   UNL     1      -0.853   0.732  -0.085  0.00  0.00    +0.029 C 
ATOM     12  C   UNL     1      -0.217   0.326  -1.417  0.00  0.00    +0.105 C 
ATOM     13  N   UNL     1       0.374  -1.009  -1.274  0.00  0.00    -0.336 N 
ATOM     14  H   UNL     1       0.158  -1.789  -2.019  0.00  0.00    +0.147 HD
ENDROOT
BRANCH  12  15
ATOM     15  C   UNL     1       0.858   1.317  -1.787  0.00  0.00    -0.020 A 
ATOM     16  C   UNL     1       0.527   2.465  -2.482  0.00  0.00    +0.055 A 
ATOM     17  C   UNL     1       1.512   3.381  -2.819  0.00  0.00    +0.165 A 
ATOM     18  C   UNL     1       2.834   3.138  -2.467  0.00  0.00    +0.204 A 
ATOM     19  C   UNL     1       3.163   1.980  -1.773  0.00  0.00    +0.165 A 
ATOM     20  C   UNL     1       2.171   1.072  -1.434  0.00  0.00    +0.055 A 
BRANCH  19  21
ATOM     21  O   UNL     1       4.455   1.738  -1.425  0.00  0.00    -0.491 OA
ATOM     22  C   UNL     1       4.739   0.477  -0.817  0.00  0.00    +0.277 C 
ENDBRANCH  19  21
BRANCH  18  23
ATOM     23  O   UNL     1       3.804   4.032  -2.801  0.00  0.00    -0.488 OA
ATOM     24  C   UNL     1       4.448   3.849  -4.064  0.00  0.00    +0.277 C 
ENDBRANCH  18  23
BRANCH  17  25
ATOM     25  O   UNL     1       1.185   4.513  -3.498  0.00  0.00    -0.491 OA
ATOM     26  C   UNL     1      -0.205   4.749  -3.735  0.00  0.00    +0.277 C 
ENDBRANCH  17  25
ENDBRANCH  12  15
BRANCH   1  27
ATOM     27  S   UNL     1       3.931  -2.072   3.340  0.00  0.00    +0.061 S 
ATOM     28  O   UNL     1       3.396  -1.350   4.441  0.00  0.00    -0.153 OA
ATOM     29  O   UNL     1       4.136  -3.478   3.379  0.00  0.00    -0.153 OA
BRANCH  27  34
ATOM     30  C   UNL     1       8.008   0.729   0.479  0.00  0.00    -0.096 C 
ATOM     31  N   UNL     1       7.360  -0.017   1.566  0.00  0.00    +0.380 N 
ATOM     32  C   UNL     1       6.218   0.731   2.110  0.00  0.00    -0.062 C 
ATOM     33  C   UNL     1       5.684   0.009   3.352  0.00  0.00    +0.091 C 
ATOM     34  N   UNL     1       5.399  -1.389   2.993  0.00  0.00    -0.180 NA
ATOM     35  C   UNL     1       6.453  -2.165   2.323  0.00  0.00    +0.091 C 
ATOM     36  C   UNL     1       6.955  -1.356   1.117  0.00  0.00    -0.062 C 
ATOM     37  H   UNL     1       8.093  -0.143   2.376  0.00  0.00    -0.082 HD
ENDBRANCH  27  34
ENDBRANCH   1  27
TORSDOF 6
