REMARK  Name = ZINC39607086
REMARK  7 active torsions:
REMARK  status: ('A' for Active; 'I' for Inactive)
REMARK    1  A    between atoms: C_1  and  C_2
REMARK    2  A    between atoms: C_5  and  N_9
REMARK    3  A    between atoms: C_10  and  C_12
REMARK    4  A    between atoms: C_12  and  O_13
REMARK    5  A    between atoms: O_13  and  C_14
REMARK    6  A    between atoms: C_14  and  C_16
REMARK    7  A    between atoms: C_25  and  C_28
REMARK                            x       y       z     vdW  Elec       q    Type
REMARK                         _______ _______ _______ _____ _____    ______ ____
ROOT
ATOM      1  C   UNL     1      -0.324  -8.146  -2.714  0.00  0.00    +0.340 C 
ATOM      2  O   UNL     1      -0.323  -8.889  -1.752  0.00  0.00    -0.245 OA
ENDROOT
BRANCH   1   3
ATOM      3  C   UNL     1      -0.425  -8.703  -4.074  0.00  0.00    +0.061 A 
ATOM      4  C   UNL     1      -0.420  -7.848  -5.181  0.00  0.00    +0.016 A 
ATOM      5  C   UNL     1      -0.513  -8.372  -6.451  0.00  0.00    +0.017 A 
ATOM      6  C   UNL     1      -0.613  -9.745  -6.632  0.00  0.00    +0.030 A 
ATOM      7  C   UNL     1      -0.623 -10.613  -5.534  0.00  0.00    +0.048 A 
ATOM      8  C   UNL     1      -0.520 -10.085  -4.257  0.00  0.00    +0.039 A 
ATOM      9  N   UNL     1      -0.732 -11.992  -5.697  0.00  0.00    -0.284 N 
ATOM     10  C   UNL     1      -0.438 -12.680  -6.796  0.00  0.00    +0.230 C 
ATOM     11  O   UNL     1      -0.579 -13.885  -6.772  0.00  0.00    -0.274 OA
ATOM     12  C   UNL     1       0.061 -12.048  -8.066  0.00  0.00    +0.134 C 
ATOM     13  S   UNL     1      -0.727 -10.421  -8.259  0.00  0.00    -0.111 S 
ATOM     14  C   UNL     1      -0.298 -12.939  -9.257  0.00  0.00    +0.029 C 
ATOM     15  H   UNL     1      -1.054 -12.498  -4.935  0.00  0.00    +0.155 HD
ENDBRANCH   1   3
BRANCH   1  16
ATOM     16  O   UNL     1      -0.232  -6.813  -2.537  0.00  0.00    -0.452 OA
BRANCH  16  17
ATOM     17  C   UNL     1      -0.136  -6.343  -1.191  0.00  0.00    +0.328 C 
BRANCH  17  19
ATOM     18  N   UNL     1       0.057  -4.171  -0.023  0.00  0.00    -0.281 N 
ATOM     19  C   UNL     1      -0.042  -4.839  -1.190  0.00  0.00    +0.255 C 
ATOM     20  O   UNL     1      -0.055  -4.230  -2.238  0.00  0.00    -0.272 OA
ATOM     21  H   UNL     1       0.149  -4.660   0.809  0.00  0.00    +0.155 HD
BRANCH  18  26
ATOM     22  C   UNL     1      -0.064   1.502   0.016  0.00  0.00    +0.044 C 
ATOM     23  C   UNL     1      -0.031  -0.005   0.006  0.00  0.00    -0.049 A 
ATOM     24  C   UNL     1      -0.622  -0.701  -1.033  0.00  0.00    +0.005 A 
ATOM     25  C   UNL     1      -0.594  -2.082  -1.045  0.00  0.00    +0.025 A 
ATOM     26  C   UNL     1       0.028  -2.772  -0.014  0.00  0.00    +0.052 A 
ATOM     27  C   UNL     1       0.621  -2.070   1.029  0.00  0.00    +0.062 A 
ATOM     28  C   UNL     1       0.595  -0.688   1.032  0.00  0.00    +0.025 A 
ATOM     29 CL   UNL     1       1.401  -2.928   2.321  0.00  0.00    -0.082 Cl
ENDBRANCH  18  26
ENDBRANCH  17  19
ENDBRANCH  16  17
ENDBRANCH   1  16
TORSDOF 5
