REMARK  Name = ZINC08655756
REMARK  7 active torsions:
REMARK  status: ('A' for Active; 'I' for Inactive)
REMARK    1  A    between atoms: C_1  and  C_2
REMARK    2  A    between atoms: C_2  and  O_3
REMARK    3  A    between atoms: O_3  and  C_4
REMARK    4  A    between atoms: C_4  and  C_6
REMARK    5  A    between atoms: N_19  and  C_29
REMARK    6  A    between atoms: N_21  and  C_22
REMARK    7  A    between atoms: C_22  and  C_24
REMARK                            x       y       z     vdW  Elec       q    Type
REMARK                         _______ _______ _______ _____ _____    ______ ____
ROOT
ATOM      1  C   UNL     1      -2.267  -2.825   0.118  0.00  0.00    +0.100 A 
ATOM      2  C   UNL     1      -2.208  -4.161  -0.278  0.00  0.00    +0.035 A 
ATOM      3  C   UNL     1      -0.966  -4.726  -0.576  0.00  0.00    +0.083 A 
ATOM      4  C   UNL     1       0.214  -3.947  -0.480  0.00  0.00    +0.149 A 
ATOM      5  N   UNL     1       1.380  -4.505  -0.767  0.00  0.00    -0.211 NA
ATOM      6  C   UNL     1       1.487  -5.778  -1.146  0.00  0.00    +0.143 A 
ATOM      7  C   UNL     1       2.767  -6.291  -1.432  0.00  0.00    +0.047 A 
ATOM      8  C   UNL     1       2.901  -7.590  -1.821  0.00  0.00    +0.005 A 
ATOM      9  C   UNL     1       1.763  -8.401  -1.931  0.00  0.00    +0.018 A 
ATOM     10  C   UNL     1       0.542  -7.893  -1.653  0.00  0.00    +0.096 A 
ATOM     11  N   UNL     1       0.397  -6.595  -1.263  0.00  0.00    -0.268 N 
ATOM     12  C   UNL     1      -0.842  -6.123  -0.993  0.00  0.00    +0.268 A 
ATOM     13  O   UNL     1      -1.823  -6.838  -1.094  0.00  0.00    -0.267 OA
ATOM     14  N   UNL     1       0.136  -2.634  -0.093  0.00  0.00    -0.314 N 
ATOM     15  C   UNL     1      -1.073  -2.065   0.202  0.00  0.00    +0.142 A 
ATOM     16  N   UNL     1      -1.128  -0.791   0.574  0.00  0.00    -0.156 NA
ATOM     17  C   UNL     1       1.359  -1.832   0.005  0.00  0.00    +0.152 C 
ENDROOT
BRANCH   1  18
ATOM     18  C   UNL     1      -3.559  -2.208   0.442  0.00  0.00    +0.343 C 
ATOM     19  O   UNL     1      -3.607  -1.041   0.783  0.00  0.00    -0.245 OA
BRANCH  18  20
ATOM     20  O   UNL     1      -4.693  -2.934   0.361  0.00  0.00    -0.461 OA
BRANCH  20  22
ATOM     21  C   UNL     1      -7.102  -3.235   0.548  0.00  0.00    +0.048 C 
ATOM     22  C   UNL     1      -5.934  -2.258   0.696  0.00  0.00    +0.229 C 
ENDBRANCH  20  22
ENDBRANCH  18  20
ENDBRANCH   1  18
BRANCH  16  23
ATOM     23  C   UNL     1      -0.042  -0.194   1.083  0.00  0.00    +0.304 C 
ATOM     24  O   UNL     1       0.498  -0.653   2.076  0.00  0.00    -0.265 OA
BRANCH  23  25
ATOM     25  C   UNL     1       0.500   1.015   0.444  0.00  0.00    +0.191 A 
ATOM     26  C   UNL     1       1.594   1.718   0.856  0.00  0.00    +0.054 A 
ATOM     27  C   UNL     1       1.748   2.789  -0.040  0.00  0.00    +0.042 A 
ATOM     28  C   UNL     1       0.752   2.693  -0.947  0.00  0.00    +0.196 A 
ATOM     29  O   UNL     1       0.006   1.619  -0.656  0.00  0.00    -0.458 OA
ENDBRANCH  23  25
ENDBRANCH  16  23
TORSDOF 5
