REMARK  Name = ZINC01421507
REMARK  9 active torsions:
REMARK  status: ('A' for Active; 'I' for Inactive)
REMARK    1  A    between atoms: C_1  and  C_2
REMARK    2  A    between atoms: C_2  and  O_3
REMARK    3  A    between atoms: O_3  and  C_4
REMARK    4  A    between atoms: C_7  and  N_10
REMARK    5  A    between atoms: C_11  and  C_12
REMARK    6  A    between atoms: N_32  and  C_35
REMARK    7  A    between atoms: C_38  and  O_41
REMARK    8  A    between atoms: O_41  and  C_42
REMARK    9  A    between atoms: C_42  and  C_43
REMARK                            x       y       z     vdW  Elec       q    Type
REMARK                         _______ _______ _______ _____ _____    ______ ____
ROOT
ATOM      1  C   UNL     1       4.978   3.823  -0.862  0.00  0.00    +0.068 C 
ATOM      2  C   UNL     1       4.731   5.296  -0.579  0.00  0.00    -0.027 A 
ATOM      3  C   UNL     1       3.499   5.865  -0.429  0.00  0.00    +0.005 A 
ATOM      4  C   UNL     1       3.418   7.228  -0.172  0.00  0.00    +0.000 A 
ATOM      5  C   UNL     1       4.567   7.991  -0.072  0.00  0.00    +0.000 A 
ATOM      6  C   UNL     1       5.817   7.405  -0.226  0.00  0.00    +0.004 A 
ATOM      7  C   UNL     1       5.889   6.065  -0.478  0.00  0.00    -0.035 A 
ATOM      8  C   UNL     1       7.180   5.285  -0.668  0.00  0.00    +0.062 C 
ATOM      9  C   UNL     1       7.102   4.133   0.321  0.00  0.00    -0.035 A 
ATOM     10  C   UNL     1       5.944   3.364   0.220  0.00  0.00    -0.027 A 
ATOM     11  C   UNL     1       5.739   2.298   1.048  0.00  0.00    +0.005 A 
ATOM     12  C   UNL     1       6.708   1.990   1.995  0.00  0.00    +0.000 A 
ATOM     13  C   UNL     1       7.857   2.753   2.095  0.00  0.00    +0.000 A 
ATOM     14  C   UNL     1       8.058   3.836   1.250  0.00  0.00    +0.004 A 
ATOM     15  C   UNL     1       7.066   4.635  -2.065  0.00  0.00    +0.101 C 
ATOM     16  C   UNL     1       5.780   3.763  -2.181  0.00  0.00    +0.109 C 
ATOM     17  C   UNL     1       4.984   4.461  -3.263  0.00  0.00    +0.232 C 
ATOM     18  O   UNL     1       3.889   4.123  -3.658  0.00  0.00    -0.274 OA
ATOM     19  N   UNL     1       5.683   5.510  -3.714  0.00  0.00    -0.210 N 
ATOM     20  C   UNL     1       6.860   5.727  -3.092  0.00  0.00    +0.231 C 
ATOM     21  O   UNL     1       7.642   6.622  -3.332  0.00  0.00    -0.274 OA
ENDROOT
BRANCH  19  22
ATOM     22  C   UNL     1       5.209   6.360  -4.726  0.00  0.00    +0.044 A 
ATOM     23  C   UNL     1       4.112   7.178  -4.488  0.00  0.00    +0.027 A 
ATOM     24  C   UNL     1       3.649   8.017  -5.481  0.00  0.00    +0.047 A 
ATOM     25  C   UNL     1       4.273   8.036  -6.721  0.00  0.00    +0.121 A 
ATOM     26  C   UNL     1       5.365   7.215  -6.960  0.00  0.00    +0.047 A 
ATOM     27  C   UNL     1       5.832   6.379  -5.966  0.00  0.00    +0.027 A 
BRANCH  25  28
ATOM     28  O   UNL     1       3.813   8.859  -7.700  0.00  0.00    -0.492 OA
BRANCH  28  29
ATOM     29  C   UNL     1       2.685   9.677  -7.384  0.00  0.00    +0.225 C 
ATOM     30  C   UNL     1       2.316  10.528  -8.600  0.00  0.00    +0.048 C 
ENDBRANCH  28  29
ENDBRANCH  25  28
ENDBRANCH  19  22
BRANCH   1  32
ATOM     31  N   UNL     1       3.461   2.256  -1.923  0.00  0.00    -0.259 NA
ATOM     32  C   UNL     1       3.711   3.009  -0.905  0.00  0.00    +0.101 C 
BRANCH  31  36
ATOM     33  C   UNL     1      -0.024   0.018  -2.041  0.00  0.00    +0.121 A 
ATOM     34  C   UNL     1       0.738   0.053  -0.881  0.00  0.00    +0.048 A 
ATOM     35  C   UNL     1       1.898   0.796  -0.838  0.00  0.00    +0.031 A 
ATOM     36  C   UNL     1       2.306   1.515  -1.962  0.00  0.00    +0.064 A 
ATOM     37  C   UNL     1       1.538   1.478  -3.126  0.00  0.00    +0.031 A 
ATOM     38  C   UNL     1       0.379   0.732  -3.162  0.00  0.00    +0.048 A 
BRANCH  33  39
ATOM     39  O   UNL     1      -1.167  -0.716  -2.080  0.00  0.00    -0.492 OA
BRANCH  39  41
ATOM     40  C   UNL     1      -3.149  -1.583  -3.158  0.00  0.00    +0.048 C 
ATOM     41  C   UNL     1      -1.903  -0.707  -3.305  0.00  0.00    +0.225 C 
ENDBRANCH  39  41
ENDBRANCH  33  39
ENDBRANCH  31  36
ENDBRANCH   1  32
TORSDOF 7
