REMARK  Name = ZINC54644380
REMARK  13 active torsions:
REMARK  status: ('A' for Active; 'I' for Inactive)
REMARK    1  A    between atoms: C_1  and  C_2
REMARK    2  A    between atoms: C_2  and  C_3
REMARK    3  A    between atoms: C_3  and  O_4
REMARK    4  A    between atoms: O_4  and  C_5
REMARK    5  A    between atoms: C_9  and  C_11
REMARK    6  A    between atoms: C_13  and  C_30
REMARK    7  A    between atoms: C_14  and  C_29
REMARK    8  A    between atoms: C_19  and  S_21
REMARK    9  A    between atoms: S_21  and  C_22
REMARK   10  A    between atoms: C_22  and  C_23
REMARK   11  A    between atoms: C_30  and  O_32
REMARK   12  A    between atoms: O_32  and  C_33
REMARK   13  A    between atoms: C_33  and  C_34
REMARK                            x       y       z     vdW  Elec       q    Type
REMARK                         _______ _______ _______ _____ _____    ______ ____
ROOT
ATOM      1  C   UNL     1       1.968  -6.090  -3.583  0.00  0.00    +0.179 C 
ATOM      2  C   UNL     1       3.372  -6.628  -3.515  0.00  0.00    +0.082 C 
ATOM      3  C   UNL     1       4.046  -7.055  -4.594  0.00  0.00    +0.020 C 
ATOM      4  N   UNL     1       3.496  -7.044  -5.851  0.00  0.00    -0.287 N 
ATOM      5  C   UNL     1       2.129  -6.825  -5.949  0.00  0.00    +0.219 A 
ATOM      6  N   UNL     1       1.398  -6.383  -4.896  0.00  0.00    -0.220 N 
ATOM      7  N   UNL     1       0.080  -6.284  -5.338  0.00  0.00    -0.141 NA
ATOM      8  C   UNL     1       0.075  -6.654  -6.601  0.00  0.00    +0.211 A 
ATOM      9  N   UNL     1       1.324  -6.980  -6.965  0.00  0.00    -0.187 NA
ATOM     10  C   UNL     1       5.454  -7.564  -4.419  0.00  0.00    +0.061 C 
ATOM     11  H   UNL     1       4.042  -7.183  -6.641  0.00  0.00    +0.155 HD
ENDROOT
BRANCH   1  16
ATOM     12  C   UNL     1       1.320  -2.671  -2.110  0.00  0.00    +0.121 A 
ATOM     13  C   UNL     1       2.035  -1.858  -2.977  0.00  0.00    +0.045 A 
ATOM     14  C   UNL     1       2.724  -2.417  -4.036  0.00  0.00    +0.004 A 
ATOM     15  C   UNL     1       2.702  -3.786  -4.231  0.00  0.00    +0.006 A 
ATOM     16  C   UNL     1       1.990  -4.598  -3.368  0.00  0.00    -0.015 A 
ATOM     17  C   UNL     1       1.304  -4.045  -2.304  0.00  0.00    +0.051 A 
BRANCH  12  18
ATOM     18  O   UNL     1       0.641  -2.124  -1.067  0.00  0.00    -0.492 OA
BRANCH  18  19
ATOM     19  C   UNL     1       0.702  -0.703  -0.928  0.00  0.00    +0.229 C 
BRANCH  19  21
ATOM     20  C   UNL     1      -0.050   1.247   0.440  0.00  0.00    +0.007 C 
ATOM     21  C   UNL     1      -0.116  -0.274   0.292  0.00  0.00    +0.038 C 
ENDBRANCH  19  21
ENDBRANCH  18  19
ENDBRANCH  12  18
ENDBRANCH   1  16
BRANCH   2  22
ATOM     22  C   UNL     1       4.010  -6.686  -2.256  0.00  0.00    +0.339 C 
ATOM     23  O   UNL     1       3.774  -7.606  -1.496  0.00  0.00    -0.245 OA
BRANCH  22  24
ATOM     24  O   UNL     1       4.881  -5.720  -1.896  0.00  0.00    -0.457 OA
BRANCH  24  25
ATOM     25  C   UNL     1       5.490  -5.841  -0.609  0.00  0.00    +0.268 C 
BRANCH  25  26
ATOM     26  C   UNL     1       6.425  -4.681  -0.383  0.00  0.00    -0.010 A 
ATOM     27  C   UNL     1       7.749  -4.776  -0.768  0.00  0.00    +0.007 A 
ATOM     28  C   UNL     1       8.607  -3.712  -0.561  0.00  0.00    +0.000 A 
ATOM     29  C   UNL     1       8.140  -2.553   0.030  0.00  0.00    +0.000 A 
ATOM     30  C   UNL     1       6.815  -2.458   0.414  0.00  0.00    +0.000 A 
ATOM     31  C   UNL     1       5.957  -3.520   0.203  0.00  0.00    +0.007 A 
ENDBRANCH  25  26
ENDBRANCH  24  25
ENDBRANCH  22  24
ENDBRANCH   2  22
BRANCH   8  32
ATOM     32  S   UNL     1      -1.343  -6.712  -7.644  0.00  0.00    -0.080 S 
BRANCH  32  33
ATOM     33  C   UNL     1      -0.694  -7.292  -9.236  0.00  0.00    +0.112 C 
BRANCH  33  34
ATOM     34  C   UNL     1      -1.820  -7.388 -10.233  0.00  0.00    -0.037 A 
ATOM     35  C   UNL     1      -2.538  -8.562 -10.354  0.00  0.00    +0.004 A 
ATOM     36  C   UNL     1      -3.571  -8.650 -11.269  0.00  0.00    +0.000 A 
ATOM     37  C   UNL     1      -3.885  -7.563 -12.062  0.00  0.00    +0.000 A 
ATOM     38  C   UNL     1      -3.167  -6.388 -11.941  0.00  0.00    +0.000 A 
ATOM     39  C   UNL     1      -2.138  -6.299 -11.023  0.00  0.00    +0.004 A 
ENDBRANCH  33  34
ENDBRANCH  32  33
ENDBRANCH   8  32
TORSDOF 11
