REMARK  Name = ZINC40398924
REMARK  6 active torsions:
REMARK  status: ('A' for Active; 'I' for Inactive)
REMARK    1  A    between atoms: C_1  and  C_2
REMARK    2  A    between atoms: C_2  and  S_3
REMARK    3  A    between atoms: S_3  and  C_4
REMARK    4  A    between atoms: N_23  and  C_26
REMARK    5  A    between atoms: C_26  and  C_27
REMARK    6  A    between atoms: C_27  and  C_28
REMARK                            x       y       z     vdW  Elec       q    Type
REMARK                         _______ _______ _______ _____ _____    ______ ____
ROOT
ATOM      1  C   UNL     1       0.792  -2.345  -1.354  0.00  0.00    +0.210 A 
ATOM      2  N   UNL     1       1.305  -3.210  -2.234  0.00  0.00    -0.185 NA
ATOM      3  C   UNL     1       1.085  -4.441  -1.825  0.00  0.00    +0.234 A 
ATOM      4  N   UNL     1       0.417  -4.379  -0.655  0.00  0.00    -0.243 N 
ATOM      5  H   UNL     1       0.118  -5.128  -0.117  0.00  0.00    +0.192 HD
ATOM      6  N   UNL     1       0.243  -3.015  -0.368  0.00  0.00    -0.144 NA
ATOM      7  N   UNL     1       1.474  -5.602  -2.483  0.00  0.00    -0.252 N 
ATOM      8  C   UNL     1       1.165  -6.811  -1.928  0.00  0.00    +0.100 A 
ATOM      9  C   UNL     1       1.505  -7.977  -2.500  0.00  0.00    +0.047 A 
ATOM     10  C   UNL     1       2.236  -7.974  -3.769  0.00  0.00    +0.078 A 
ATOM     11  C   UNL     1       2.558  -6.718  -4.348  0.00  0.00    +0.066 A 
ATOM     12  C   UNL     1       2.140  -5.498  -3.651  0.00  0.00    +0.267 A 
ATOM     13  O   UNL     1       2.395  -4.403  -4.119  0.00  0.00    -0.267 OA
ATOM     14  C   UNL     1       3.253  -6.670  -5.554  0.00  0.00    +0.030 A 
ATOM     15  C   UNL     1       3.605  -7.882  -6.145  0.00  0.00    +0.066 A 
ATOM     16  C   UNL     1       3.251  -9.103  -5.513  0.00  0.00    +0.078 A 
ATOM     17  N   UNL     1       2.588  -9.107  -4.363  0.00  0.00    -0.246 NA
ATOM     18  C   UNL     1       3.640 -10.352  -6.170  0.00  0.00    +0.046 A 
ATOM     19  C   UNL     1       4.310 -10.309  -7.333  0.00  0.00    +0.091 A 
ATOM     20  N   UNL     1       4.650  -9.138  -7.941  0.00  0.00    -0.314 N 
ATOM     21  C   UNL     1       4.337  -7.937  -7.415  0.00  0.00    +0.261 A 
ATOM     22  O   UNL     1       4.657  -6.911  -7.986  0.00  0.00    -0.267 OA
ENDROOT
BRANCH   1  23
ATOM     23  S   UNL     1       0.851  -0.589  -1.490  0.00  0.00    -0.085 S 
BRANCH  23  25
ATOM     24  C   UNL     1      -0.019   1.526   0.010  0.00  0.00    +0.016 C 
ATOM     25  C   UNL     1       0.002  -0.004   0.002  0.00  0.00    +0.074 C 
ENDBRANCH  23  25
ENDBRANCH   1  23
BRANCH  20  26
ATOM     26  C   UNL     1       5.382  -9.185  -9.210  0.00  0.00    +0.129 C 
BRANCH  26  27
ATOM     27  C   UNL     1       4.387  -9.212 -10.372  0.00  0.00    +0.052 C 
BRANCH  27  28
ATOM     28  C   UNL     1       5.139  -9.261 -11.677  0.00  0.00    -0.072 C 
ATOM     29  C   UNL     1       5.341 -10.419 -12.218  0.00  0.00    -0.028 C 
ATOM     30  C   UNL     1       6.081 -10.627 -13.507  0.00  0.00    +0.027 C 
ATOM     31  C   UNL     1       6.178  -9.309 -14.278  0.00  0.00    +0.004 C 
ATOM     32  C   UNL     1       6.686  -8.223 -13.321  0.00  0.00    +0.005 C 
ATOM     33  C   UNL     1       5.604  -7.963 -12.270  0.00  0.00    +0.030 C 
ENDBRANCH  27  28
ENDBRANCH  26  27
ENDBRANCH  20  26
TORSDOF 5
