REMARK  Name = ZINC33653187
REMARK  8 active torsions:
REMARK  status: ('A' for Active; 'I' for Inactive)
REMARK    1  A    between atoms: C_1  and  C_2
REMARK    2  A    between atoms: C_2  and  C_3
REMARK    3  A    between atoms: C_2  and  N_4
REMARK    4  A    between atoms: C_5  and  C_7
REMARK    5  A    between atoms: C_7  and  N_8
REMARK    6  A    between atoms: N_10  and  C_33
REMARK    7  A    between atoms: C_19  and  C_21
REMARK    8  A    between atoms: C_24  and  C_27
REMARK                            x       y       z     vdW  Elec       q    Type
REMARK                         _______ _______ _______ _____ _____    ______ ____
ROOT
ATOM      1  N   UNL     1       4.339   7.395   2.179  0.00  0.00    -0.275 N 
ATOM      2  C   UNL     1       4.389   5.940   1.991  0.00  0.00    +0.217 C 
ATOM      3  N   UNL     1       3.891   5.683   0.620  0.00  0.00    -0.300 N 
ATOM      4  C   UNL     1       3.005   6.839   0.364  0.00  0.00    +0.115 C 
ATOM      5  C   UNL     1       3.530   7.944   1.248  0.00  0.00    +0.241 C 
ATOM      6  O   UNL     1       3.270   9.123   1.139  0.00  0.00    -0.273 OA
ATOM      7  C   UNL     1       1.569   6.490   0.745  0.00  0.00    +0.054 C 
ATOM      8  C   UNL     1       0.671   7.711   0.520  0.00  0.00    +0.110 C 
ATOM      9  N   UNL     1       0.846   8.177  -0.863  0.00  0.00    -0.297 N 
ATOM     10  C   UNL     1       2.202   8.473  -1.343  0.00  0.00    +0.110 C 
ATOM     11  C   UNL     1       3.088   7.246  -1.104  0.00  0.00    +0.054 C 
ATOM     12  C   UNL     1      -0.219   8.331  -1.675  0.00  0.00    +0.247 C 
ATOM     13  O   UNL     1      -1.343   8.186  -1.236  0.00  0.00    -0.270 OA
ENDROOT
BRANCH  12  14
ATOM     14  C   UNL     1      -0.019   8.674  -3.098  0.00  0.00    +0.037 A 
ATOM     15  C   UNL     1       1.098   8.190  -3.783  0.00  0.00    +0.013 A 
ATOM     16  C   UNL     1       1.281   8.507  -5.111  0.00  0.00    +0.009 A 
ATOM     17  C   UNL     1       0.356   9.319  -5.768  0.00  0.00    -0.018 A 
ATOM     18  C   UNL     1      -0.756   9.808  -5.083  0.00  0.00    +0.009 A 
ATOM     19  C   UNL     1      -0.944   9.488  -3.757  0.00  0.00    +0.013 A 
BRANCH  17  20
ATOM     20  C   UNL     1       0.557   9.664  -7.196  0.00  0.00    -0.018 A 
ATOM     21  C   UNL     1      -0.367  10.472  -7.857  0.00  0.00    +0.008 A 
ATOM     22  C   UNL     1      -0.173  10.793  -9.185  0.00  0.00    +0.001 A 
ATOM     23  C   UNL     1       0.932  10.308  -9.863  0.00  0.00    +0.000 A 
ATOM     24  C   UNL     1       1.849   9.502  -9.213  0.00  0.00    +0.001 A 
ATOM     25  C   UNL     1       1.668   9.178  -7.884  0.00  0.00    +0.008 A 
ENDBRANCH  17  20
ENDBRANCH  12  14
BRANCH   3  26
ATOM     26  C   UNL     1       3.178   4.483   0.562  0.00  0.00    +0.032 A 
ATOM     27  C   UNL     1       2.479   4.143  -0.589  0.00  0.00    +0.023 A 
ATOM     28  C   UNL     1       1.775   2.956  -0.642  0.00  0.00    +0.002 A 
ATOM     29  C   UNL     1       1.762   2.109   0.451  0.00  0.00    +0.000 A 
ATOM     30  C   UNL     1       2.461   2.442   1.596  0.00  0.00    +0.002 A 
ATOM     31  C   UNL     1       3.166   3.628   1.656  0.00  0.00    +0.023 A 
ENDBRANCH   3  26
BRANCH   1  32
ATOM     32  C   UNL     1       5.056   8.138   3.217  0.00  0.00    +0.205 C 
BRANCH  32  34
ATOM     33  N   UNL     1       4.650   8.889   5.539  0.00  0.00    -0.312 N 
ATOM     34  C   UNL     1       4.193   8.243   4.448  0.00  0.00    +0.231 C 
ATOM     35  O   UNL     1       3.087   7.745   4.457  0.00  0.00    -0.274 OA
ATOM     36  H   UNL     1       5.653   9.340   5.531  0.00  0.00    +0.149 HD
BRANCH  33  38
ATOM     37  C   UNL     1       3.984   7.732   7.588  0.00  0.00    +0.027 C 
ATOM     38  C   UNL     1       3.811   8.990   6.736  0.00  0.00    +0.067 C 
ATOM     39  C   UNL     1       4.227  10.218   7.548  0.00  0.00    +0.027 C 
ENDBRANCH  33  38
ENDBRANCH  32  34
ENDBRANCH   1  32
TORSDOF 6
