REMARK  Name = ZINC23552590
REMARK  7 active torsions:
REMARK  status: ('A' for Active; 'I' for Inactive)
REMARK    1  A    between atoms: C_1  and  N_2
REMARK    2  A    between atoms: C_6  and  C_8
REMARK    3  A    between atoms: C_8  and  C_10
REMARK    4  A    between atoms: C_8  and  O_16
REMARK    5  A    between atoms: O_16  and  C_17
REMARK    6  A    between atoms: C_17  and  C_19
REMARK    7  A    between atoms: C_23  and  N_25
REMARK                            x       y       z     vdW  Elec       q    Type
REMARK                         _______ _______ _______ _____ _____    ______ ____
ROOT
ATOM      1  C   UNL     1      -0.013   1.086   0.008  0.00  0.00    +0.292 C 
ENDROOT
BRANCH   1   7
ATOM      2  C   UNL     1       5.689   1.963  -2.063  0.00  0.00    +0.129 C 
ATOM      3  N   UNL     1       4.315   1.456  -2.053  0.00  0.00    -0.302 N 
ATOM      4  C   UNL     1       3.490   1.765  -1.033  0.00  0.00    +0.306 C 
ATOM      5  O   UNL     1       3.887   2.464  -0.121  0.00  0.00    -0.252 OA
ATOM      6  N   UNL     1       2.226   1.299  -1.023  0.00  0.00    -0.237 N 
ATOM      7  C   UNL     1       1.401   1.607  -0.003  0.00  0.00    +0.266 C 
ATOM      8  O   UNL     1       1.797   2.305   0.907  0.00  0.00    -0.271 OA
ATOM      9  H   UNL     1       3.956   0.824  -2.878  0.00  0.00    +0.150 HD
ATOM     10  H   UNL     1       1.867   0.666  -1.848  0.00  0.00    +0.159 HD
ENDBRANCH   1   7
BRANCH   1  11
ATOM     11  C   UNL     1      -0.742   1.585  -1.213  0.00  0.00    +0.002 A 
ATOM     12  C   UNL     1      -1.257   2.868  -1.234  0.00  0.00    +0.008 A 
ATOM     13  C   UNL     1      -1.922   3.327  -2.355  0.00  0.00    +0.000 A 
ATOM     14  C   UNL     1      -2.079   2.501  -3.452  0.00  0.00    +0.000 A 
ATOM     15  C   UNL     1      -1.568   1.216  -3.430  0.00  0.00    +0.000 A 
ATOM     16  C   UNL     1      -0.899   0.759  -2.310  0.00  0.00    +0.008 A 
ENDBRANCH   1  11
BRANCH   1  17
ATOM     17  O   UNL     1      -0.692   1.554   1.203  0.00  0.00    -0.444 OA
BRANCH  17  18
ATOM     18  C   UNL     1      -1.658   0.762   1.707  0.00  0.00    +0.340 C 
ATOM     19  O   UNL     1      -1.925  -0.291   1.164  0.00  0.00    -0.245 OA
BRANCH  18  20
ATOM     20  C   UNL     1      -2.392   1.174   2.920  0.00  0.00    +0.061 A 
ATOM     21  C   UNL     1      -2.083   2.381   3.551  0.00  0.00    +0.016 A 
ATOM     22  C   UNL     1      -2.776   2.763   4.680  0.00  0.00    +0.018 A 
ATOM     23  C   UNL     1      -3.769   1.946   5.196  0.00  0.00    +0.048 A 
ATOM     24  C   UNL     1      -4.075   0.745   4.580  0.00  0.00    +0.141 A 
ATOM     25  C   UNL     1      -3.394   0.355   3.446  0.00  0.00    +0.048 A 
ATOM     26 BR   UNL     1      -4.708   2.474   6.750  0.00  0.00    -0.048 Br
BRANCH  24  27
ATOM     27  N   UNL     1      -5.138  -0.122   5.138  0.00  0.00    +0.058 N 
ATOM     28  O   UNL     1      -5.409  -1.178   4.596  0.00  0.00    -0.126 OA
ATOM     29  O   UNL     1      -5.740   0.222   6.139  0.00  0.00    -0.126 OA
ENDBRANCH  24  27
ENDBRANCH  18  20
ENDBRANCH  17  18
ENDBRANCH   1  17
TORSDOF 6
