REMARK  Name = ZINC20602305
REMARK  10 active torsions:
REMARK  status: ('A' for Active; 'I' for Inactive)
REMARK    1  A    between atoms: C_1  and  C_2
REMARK    2  A    between atoms: C_2  and  N_3
REMARK    3  A    between atoms: C_4  and  C_37
REMARK    4  A    between atoms: C_5  and  C_9
REMARK    5  A    between atoms: C_6  and  C_8
REMARK    6  A    between atoms: C_16  and  C_35
REMARK    7  A    between atoms: C_17  and  C_25
REMARK    8  A    between atoms: C_18  and  C_20
REMARK    9  A    between atoms: N_27  and  C_28
REMARK   10  A    between atoms: C_33  and  C_34
REMARK                            x       y       z     vdW  Elec       q    Type
REMARK                         _______ _______ _______ _____ _____    ______ ____
ROOT
ATOM      1  C   UNL     1       0.726  -1.091   4.638  0.00  0.00    +0.032 C 
ATOM      2  C   UNL     1       1.943  -1.508   5.076  0.00  0.00    +0.081 A 
ATOM      3  C   UNL     1       3.278  -1.204   4.549  0.00  0.00    +0.268 A 
ATOM      4  O   UNL     1       3.420  -0.482   3.579  0.00  0.00    -0.266 OA
ATOM      5  N   UNL     1       4.337  -1.746   5.165  0.00  0.00    -0.274 N 
ATOM      6  C   UNL     1       4.121  -2.555   6.257  0.00  0.00    +0.178 A 
ATOM      7  N   UNL     1       5.076  -3.136   6.938  0.00  0.00    -0.228 NA
ATOM      8  C   UNL     1       6.372  -3.026   6.671  0.00  0.00    +0.052 C 
ATOM      9  C   UNL     1       6.803  -2.264   5.622  0.00  0.00    +0.063 C 
ATOM     10  C   UNL     1       5.764  -1.557   4.782  0.00  0.00    +0.166 C 
ATOM     11  C   UNL     1       7.377  -3.747   7.532  0.00  0.00    +0.066 C 
ATOM     12  S   UNL     1       2.350  -2.568   6.454  0.00  0.00    -0.046 S 
ENDROOT
BRANCH   1  15
ATOM     13  N   UNL     1       0.186   1.294   1.962  0.00  0.00    -0.268 N 
ATOM     14  C   UNL     1       0.100   0.959   3.262  0.00  0.00    +0.044 A 
ATOM     15  C   UNL     1       0.619  -0.317   3.394  0.00  0.00    +0.019 A 
ATOM     16  C   UNL     1       1.033  -0.734   2.107  0.00  0.00    +0.067 A 
ATOM     17  N   UNL     1       0.771   0.229   1.267  0.00  0.00    -0.176 NA
ATOM     18  C   UNL     1       1.665  -2.058   1.766  0.00  0.00    +0.068 C 
ATOM     19  C   UNL     1      -0.462   1.813   4.369  0.00  0.00    +0.066 C 
BRANCH  13  21
ATOM     20  C   UNL     1      -1.711   2.442   0.932  0.00  0.00    +0.029 C 
ATOM     21  C   UNL     1      -0.252   2.562   1.375  0.00  0.00    +0.140 C 
ENDBRANCH  13  21
ENDBRANCH   1  15
BRANCH  10  22
ATOM     22  C   UNL     1       5.926  -2.019   3.357  0.00  0.00    +0.017 A 
ATOM     23  C   UNL     1       6.697  -1.496   2.373  0.00  0.00    +0.013 A 
ATOM     24  C   UNL     1       6.692  -2.096   1.127  0.00  0.00    +0.008 A 
ATOM     25  C   UNL     1       5.907  -3.182   0.924  0.00  0.00    +0.045 A 
ATOM     26  S   UNL     1       5.147  -3.393   2.525  0.00  0.00    -0.099 S 
ENDBRANCH  10  22
BRANCH   9  27
ATOM     27  C   UNL     1       8.174  -2.141   5.332  0.00  0.00    +0.248 C 
ATOM     28  O   UNL     1       8.766  -1.114   5.615  0.00  0.00    -0.270 OA
ATOM     29  N   UNL     1       8.832  -3.158   4.742  0.00  0.00    -0.281 N 
ATOM     30  H   UNL     1       8.280  -4.050   4.409  0.00  0.00    +0.155 HD
BRANCH  29  31
ATOM     31  C   UNL     1      10.215  -3.079   4.552  0.00  0.00    +0.037 A 
ATOM     32  C   UNL     1      10.971  -2.189   5.305  0.00  0.00    +0.023 A 
ATOM     33  C   UNL     1      12.337  -2.114   5.115  0.00  0.00    +0.002 A 
ATOM     34  C   UNL     1      12.952  -2.924   4.178  0.00  0.00    +0.000 A 
ATOM     35  C   UNL     1      12.202  -3.811   3.428  0.00  0.00    +0.005 A 
ATOM     36  C   UNL     1      10.836  -3.895   3.616  0.00  0.00    -0.029 A 
ATOM     37  C   UNL     1      10.021  -4.867   2.802  0.00  0.00    +0.045 C 
ENDBRANCH  29  31
ENDBRANCH   9  27
TORSDOF 5
