REMARK  Name = ZINC38800073
REMARK  6 active torsions:
REMARK  status: ('A' for Active; 'I' for Inactive)
REMARK    1  A    between atoms: C_1  and  C_2
REMARK    2  A    between atoms: C_2  and  O_3
REMARK    3  A    between atoms: O_3  and  C_4
REMARK    4  A    between atoms: C_4  and  C_6
REMARK    5  A    between atoms: C_25  and  N_26
REMARK    6  A    between atoms: C_27  and  C_29
REMARK                            x       y       z     vdW  Elec       q    Type
REMARK                         _______ _______ _______ _____ _____    ______ ____
ROOT
ATOM      1  C   UNL     1       1.497  -2.372   2.523  0.00  0.00    +0.215 C 
ATOM      2  C   UNL     1       1.384  -3.880   2.448  0.00  0.00    -0.007 C 
ATOM      3  C   UNL     1       2.569  -4.601   2.405  0.00  0.00    +0.012 A 
ATOM      4  C   UNL     1       2.550  -6.063   2.332  0.00  0.00    +0.032 A 
ATOM      5  C   UNL     1       3.746  -6.749   2.290  0.00  0.00    +0.012 A 
ATOM      6  C   UNL     1       4.961  -6.060   2.317  0.00  0.00    +0.003 A 
ATOM      7  C   UNL     1       5.036  -4.707   2.385  0.00  0.00    +0.024 A 
ATOM      8  C   UNL     1       3.865  -3.914   2.433  0.00  0.00    +0.042 A 
ATOM      9  N   UNL     1       3.949  -2.588   2.498  0.00  0.00    -0.284 N 
ATOM     10  C   UNL     1       2.894  -1.789   2.544  0.00  0.00    +0.236 C 
ATOM     11  O   UNL     1       3.048  -0.585   2.603  0.00  0.00    -0.274 OA
ATOM     12  C   UNL     1       1.245  -6.753   2.305  0.00  0.00    +0.196 C 
ATOM     13  O   UNL     1       1.178  -7.966   2.244  0.00  0.00    -0.287 OA
ATOM     14  C   UNL     1       0.024  -5.925   2.353  0.00  0.00    +0.051 A 
ATOM     15  C   UNL     1       0.126  -4.516   2.422  0.00  0.00    -0.007 A 
ATOM     16  C   UNL     1      -1.047  -3.748   2.466  0.00  0.00    +0.009 A 
ATOM     17  C   UNL     1      -2.284  -4.365   2.441  0.00  0.00    +0.002 A 
ATOM     18  C   UNL     1      -2.386  -5.740   2.373  0.00  0.00    +0.024 A 
ATOM     19  C   UNL     1      -1.236  -6.530   2.330  0.00  0.00    +0.045 A 
ATOM     20  H   UNL     1       4.831  -2.184   2.514  0.00  0.00    +0.155 HD
ENDROOT
BRANCH  19  21
ATOM     21  N   UNL     1      -1.343  -7.914   2.261  0.00  0.00    -0.281 N 
ATOM     22  C   UNL     1      -2.449  -8.478   1.738  0.00  0.00    +0.248 C 
ATOM     23  O   UNL     1      -3.308  -7.780   1.235  0.00  0.00    -0.270 OA
ATOM     24  H   UNL     1      -0.622  -8.473   2.590  0.00  0.00    +0.155 HD
BRANCH  22  25
ATOM     25  C   UNL     1      -2.618  -9.946   1.775  0.00  0.00    +0.037 A 
ATOM     26  C   UNL     1      -1.637 -10.750   2.357  0.00  0.00    +0.013 A 
ATOM     27  C   UNL     1      -1.801 -12.119   2.389  0.00  0.00    +0.001 A 
ATOM     28  C   UNL     1      -2.935 -12.696   1.846  0.00  0.00    +0.000 A 
ATOM     29  C   UNL     1      -3.912 -11.905   1.268  0.00  0.00    +0.001 A 
ATOM     30  C   UNL     1      -3.763 -10.534   1.234  0.00  0.00    +0.013 A 
ENDBRANCH  22  25
ENDBRANCH  19  21
BRANCH   1  31
ATOM     31  C   UNL     1       0.770  -1.792   1.337  0.00  0.00    +0.324 C 
ATOM     32  O   UNL     1       0.289  -2.525   0.505  0.00  0.00    -0.250 OA
BRANCH  31  33
ATOM     33  O   UNL     1       0.656  -0.461   1.204  0.00  0.00    -0.464 OA
BRANCH  33  35
ATOM     34  C   UNL     1      -0.072   1.549   0.077  0.00  0.00    +0.048 C 
ATOM     35  C   UNL     1      -0.046   0.019   0.056  0.00  0.00    +0.229 C 
ENDBRANCH  33  35
ENDBRANCH  31  33
ENDBRANCH   1  31
TORSDOF 5
