REMARK  Name = ZINC67287473
REMARK  11 active torsions:
REMARK  status: ('A' for Active; 'I' for Inactive)
REMARK    1  A    between atoms: C_1  and  C_2
REMARK    2  A    between atoms: C_2  and  O_3
REMARK    3  A    between atoms: O_3  and  C_4
REMARK    4  A    between atoms: C_4  and  C_6
REMARK    5  A    between atoms: C_7  and  C_22
REMARK    6  A    between atoms: C_12  and  C_14
REMARK    7  A    between atoms: C_19  and  O_20
REMARK    8  A    between atoms: O_20  and  C_21
REMARK    9  A    between atoms: C_22  and  N_23
REMARK   10  A    between atoms: C_26  and  C_29
REMARK   11  A    between atoms: C_26  and  N_32
REMARK                            x       y       z     vdW  Elec       q    Type
REMARK                         _______ _______ _______ _____ _____    ______ ____
ROOT
ATOM      1  C   UNL     1      -4.287  -4.005  -0.775  0.00  0.00    +0.079 C 
ATOM      2  C   UNL     1      -3.520  -3.629   0.271  0.00  0.00    +0.038 C 
ATOM      3  N   UNL     1      -3.800  -2.495   0.978  0.00  0.00    -0.271 N 
ATOM      4  C   UNL     1      -4.829  -1.683   0.703  0.00  0.00    +0.304 C 
ATOM      5  O   UNL     1      -4.998  -0.695   1.390  0.00  0.00    -0.252 OA
ATOM      6  N   UNL     1      -5.683  -1.926  -0.311  0.00  0.00    -0.288 N 
ATOM      7  C   UNL     1      -5.464  -3.124  -1.140  0.00  0.00    +0.147 C 
ATOM      8  H   UNL     1      -3.222  -2.265   1.721  0.00  0.00    +0.156 HD
ATOM      9  H   UNL     1      -6.422  -1.325  -0.493  0.00  0.00    +0.151 HD
ENDROOT
BRANCH   7  10
ATOM     10  C   UNL     1      -6.713  -3.964  -1.073  0.00  0.00    +0.019 A 
ATOM     11  C   UNL     1      -7.452  -4.012   0.094  0.00  0.00    +0.009 A 
ATOM     12  C   UNL     1      -8.598  -4.783   0.156  0.00  0.00    +0.001 A 
ATOM     13  C   UNL     1      -9.007  -5.509  -0.948  0.00  0.00    +0.004 A 
ATOM     14  C   UNL     1      -8.272  -5.464  -2.116  0.00  0.00    +0.046 A 
ATOM     15  C   UNL     1      -7.124  -4.687  -2.183  0.00  0.00    +0.125 A 
BRANCH  15  16
ATOM     16  O   UNL     1      -6.402  -4.637  -3.333  0.00  0.00    -0.495 OA
ATOM     17  C   UNL     1      -6.939  -5.322  -4.467  0.00  0.00    +0.277 C 
ENDBRANCH  15  16
ENDBRANCH   7  10
BRANCH   1  18
ATOM     18  C   UNL     1      -3.998  -5.180  -1.509  0.00  0.00    +0.339 C 
ATOM     19  O   UNL     1      -3.451  -5.101  -2.593  0.00  0.00    -0.245 OA
BRANCH  18  20
ATOM     20  O   UNL     1      -4.329  -6.388  -1.007  0.00  0.00    -0.462 OA
BRANCH  20  22
ATOM     21  C   UNL     1      -4.473  -8.799  -1.095  0.00  0.00    +0.048 C 
ATOM     22  C   UNL     1      -3.908  -7.535  -1.747  0.00  0.00    +0.229 C 
ENDBRANCH  20  22
ENDBRANCH  18  20
ENDBRANCH   1  18
BRANCH   2  23
ATOM     23  C   UNL     1      -2.337  -4.475   0.664  0.00  0.00    +0.135 C 
BRANCH  23  24
ATOM     24  N   UNL     1      -2.553  -5.024   2.009  0.00  0.00    -0.297 NA
ATOM     25  C   UNL     1      -3.578  -6.075   1.990  0.00  0.00    +0.084 C 
ATOM     26  C   UNL     1      -3.881  -6.520   3.423  0.00  0.00    +0.013 C 
ATOM     27  C   UNL     1      -2.596  -7.046   4.071  0.00  0.00    +0.015 C 
ATOM     28  C   UNL     1      -1.530  -5.948   4.034  0.00  0.00    +0.013 C 
ATOM     29  C   UNL     1      -1.295  -5.519   2.584  0.00  0.00    +0.084 C 
BRANCH  27  30
ATOM     30  N   UNL     1      -2.868  -7.421   5.465  0.00  0.00    +0.389 N 
ATOM     31  C   UNL     1      -3.345  -6.245   6.202  0.00  0.00    -0.077 C 
ATOM     32  C   UNL     1      -3.706  -6.647   7.634  0.00  0.00    -0.019 C 
ATOM     33  C   UNL     1      -2.465  -7.216   8.326  0.00  0.00    -0.004 C 
ATOM     34  C   UNL     1      -1.932  -8.396   7.508  0.00  0.00    -0.019 C 
ATOM     35  C   UNL     1      -1.637  -7.929   6.082  0.00  0.00    -0.077 C 
ATOM     36  H   UNL     1      -3.575  -8.139   5.487  0.00  0.00    -0.080 HD
ENDBRANCH  27  30
BRANCH  27  37
ATOM     37  C   UNL     1      -2.106  -8.251   3.310  0.00  0.00    +0.200 C 
ATOM     38  O   UNL     1      -1.213  -8.133   2.497  0.00  0.00    -0.278 OA
ATOM     39  N   UNL     1      -2.659  -9.460   3.533  0.00  0.00    -0.330 N 
ATOM     40  H   UNL     1      -3.316  -9.570   4.238  0.00  0.00    +0.145 HD
ATOM     41  H   UNL     1      -2.399 -10.220   2.989  0.00  0.00    +0.145 HD
ENDBRANCH  27  37
ENDBRANCH  23  24
ENDBRANCH   2  23
TORSDOF 9
