REMARK  Name = ZINC32501352
REMARK  7 active torsions:
REMARK  status: ('A' for Active; 'I' for Inactive)
REMARK    1  A    between atoms: C_1  and  C_2
REMARK    2  A    between atoms: C_10  and  C_11
REMARK    3  A    between atoms: C_14  and  O_19
REMARK    4  A    between atoms: C_15  and  O_17
REMARK    5  A    between atoms: O_17  and  C_18
REMARK    6  A    between atoms: O_19  and  C_20
REMARK    7  A    between atoms: N_24  and  C_27
REMARK                            x       y       z     vdW  Elec       q    Type
REMARK                         _______ _______ _______ _____ _____    ______ ____
ROOT
ATOM      1  C   UNL     1       4.780   5.950  -0.152  0.00  0.00    +0.051 C 
ATOM      2  C   UNL     1       5.642   4.724  -0.307  0.00  0.00    +0.034 A 
ATOM      3  C   UNL     1       7.017   4.857  -0.444  0.00  0.00    +0.125 A 
ATOM      4  C   UNL     1       7.822   3.731  -0.585  0.00  0.00    -0.021 A 
ATOM      5  C   UNL     1       7.261   2.483  -0.593  0.00  0.00    +0.020 A 
ATOM      6  C   UNL     1       5.881   2.336  -0.457  0.00  0.00    +0.068 A 
ATOM      7  C   UNL     1       5.058   3.464  -0.312  0.00  0.00    +0.146 A 
ATOM      8  O   UNL     1       3.769   3.076  -0.202  0.00  0.00    -0.451 OA
ATOM      9  C   UNL     1       3.643   1.729  -0.255  0.00  0.00    +0.176 C 
ATOM     10  C   UNL     1       2.483   1.028  -0.171  0.00  0.00    +0.058 C 
ATOM     11  C   UNL     1       4.989   1.163  -0.426  0.00  0.00    +0.231 C 
ATOM     12  O   UNL     1       5.298  -0.012  -0.520  0.00  0.00    -0.283 OA
ATOM     13  C   UNL     1       9.317   3.866  -0.728  0.00  0.00    -0.034 C 
ATOM     14  N   UNL     1       9.653   5.245  -1.106  0.00  0.00    +0.408 N 
ATOM     15  C   UNL     1       8.969   6.197  -0.216  0.00  0.00    +0.158 C 
ATOM     16  O   UNL     1       7.561   6.102  -0.441  0.00  0.00    -0.509 OA
ATOM     17  H   UNL     1       9.307   5.418  -2.136  0.00  0.00    -0.076 HD
ENDROOT
BRANCH  14  18
ATOM     18  C   UNL     1      11.107   5.457  -1.087  0.00  0.00    -0.041 C 
ATOM     19  C   UNL     1      11.790   4.394  -1.963  0.00  0.00    +0.009 C 
ATOM     20  C   UNL     1      13.270   4.821  -2.178  0.00  0.00    +0.164 C 
ATOM     21  S   UNL     1      13.063   6.633  -2.435  0.00  0.00    -0.033 S 
ATOM     22  O   UNL     1      12.934   6.891  -3.827  0.00  0.00    -0.174 OA
ATOM     23  O   UNL     1      14.053   7.323  -1.685  0.00  0.00    -0.174 OA
ATOM     24  C   UNL     1      11.428   6.871  -1.628  0.00  0.00    +0.151 C 
ENDBRANCH  14  18
BRANCH  10  25
ATOM     25  C   UNL     1       1.199   1.737  -0.112  0.00  0.00    -0.018 A 
ATOM     26  C   UNL     1       1.173   3.134  -0.016  0.00  0.00    +0.012 A 
ATOM     27  C   UNL     1      -0.034   3.797   0.039  0.00  0.00    +0.050 A 
ATOM     28  C   UNL     1      -1.225   3.083  -0.001  0.00  0.00    +0.162 A 
ATOM     29  C   UNL     1      -1.207   1.693  -0.103  0.00  0.00    +0.162 A 
ATOM     30  C   UNL     1      -0.003   1.019  -0.152  0.00  0.00    +0.057 A 
BRANCH  29  31
ATOM     31  O   UNL     1      -2.376   0.999  -0.147  0.00  0.00    -0.491 OA
ATOM     32  C   UNL     1      -2.283  -0.423  -0.245  0.00  0.00    +0.277 C 
ENDBRANCH  29  31
BRANCH  28  33
ATOM     33  O   UNL     1      -2.411   3.743   0.053  0.00  0.00    -0.491 OA
ATOM     34  C   UNL     1      -2.357   5.168   0.151  0.00  0.00    +0.277 C 
ENDBRANCH  28  33
ENDBRANCH  10  25
TORSDOF 4
