REMARK  Name = ZINC00882954
REMARK  7 active torsions:
REMARK  status: ('A' for Active; 'I' for Inactive)
REMARK    1  A    between atoms: C_1  and  C_2
REMARK    2  A    between atoms: C_2  and  C_30
REMARK    3  A    between atoms: C_12  and  S_15
REMARK    4  A    between atoms: S_15  and  C_16
REMARK    5  A    between atoms: C_16  and  C_17
REMARK    6  A    between atoms: N_19  and  N_20
REMARK    7  A    between atoms: C_21  and  C_23
REMARK                            x       y       z     vdW  Elec       q    Type
REMARK                         _______ _______ _______ _____ _____    ______ ____
ROOT
ATOM      1  S   UNL     1      -1.796  -1.276  -0.199  0.00  0.00    -0.077 S 
ENDROOT
BRANCH   1  13
ATOM      2  C   UNL     1      -0.013   1.086   0.008  0.00  0.00    +0.035 C 
ATOM      3  C   UNL     1      -0.729   1.579   1.267  0.00  0.00    +0.048 C 
ATOM      4  C   UNL     1      -0.741   3.106   1.276  0.00  0.00    +0.064 C 
ATOM      5  C   UNL     1      -1.696   3.670   2.292  0.00  0.00    -0.034 A 
ATOM      6  C   UNL     1      -1.395   4.841   2.957  0.00  0.00    +0.004 A 
ATOM      7  C   UNL     1      -2.289   5.374   3.867  0.00  0.00    +0.000 A 
ATOM      8  C   UNL     1      -3.495   4.746   4.122  0.00  0.00    +0.001 A 
ATOM      9  C   UNL     1      -3.808   3.566   3.475  0.00  0.00    +0.012 A 
ATOM     10  C   UNL     1      -2.904   3.020   2.574  0.00  0.00    +0.023 A 
ATOM     11  C   UNL     1      -3.136   1.722   1.914  0.00  0.00    +0.166 A 
ATOM     12  N   UNL     1      -2.095   1.067   1.278  0.00  0.00    -0.296 N 
ATOM     13  C   UNL     1      -2.636  -0.053   0.751  0.00  0.00    +0.193 A 
ATOM     14  N   UNL     1      -3.914  -0.057   1.082  0.00  0.00    -0.122 NA
ATOM     15  N   UNL     1      -4.196   0.989   1.777  0.00  0.00    -0.128 NA
ATOM     16  C   UNL     1       0.013   1.071   2.504  0.00  0.00    +0.035 C 
ENDBRANCH   1  13
BRANCH   1  17
ATOM     17  C   UNL     1      -3.164  -2.417  -0.523  0.00  0.00    +0.174 C 
BRANCH  17  18
ATOM     18  C   UNL     1      -2.666  -3.577  -1.346  0.00  0.00    +0.239 C 
ATOM     19  O   UNL     1      -1.501  -3.628  -1.680  0.00  0.00    -0.273 OA
ATOM     20  N   UNL     1      -3.515  -4.559  -1.710  0.00  0.00    -0.233 N 
ATOM     21  H   UNL     1      -4.447  -4.518  -1.442  0.00  0.00    +0.173 HD
BRANCH  20  22
ATOM     22  N   UNL     1      -3.052  -5.637  -2.475  0.00  0.00    -0.230 N 
ATOM     23  C   UNL     1      -3.901  -6.619  -2.839  0.00  0.00    +0.260 C 
ATOM     24  O   UNL     1      -5.069  -6.568  -2.504  0.00  0.00    -0.269 OA
ATOM     25  H   UNL     1      -2.121  -5.678  -2.742  0.00  0.00    +0.173 HD
BRANCH  23  26
ATOM     26  C   UNL     1      -3.413  -7.756  -3.646  0.00  0.00    +0.038 A 
ATOM     27  C   UNL     1      -2.074  -7.815  -4.037  0.00  0.00    +0.014 A 
ATOM     28  C   UNL     1      -1.623  -8.882  -4.784  0.00  0.00    +0.021 A 
ATOM     29  C   UNL     1      -2.498  -9.889  -5.157  0.00  0.00    +0.041 A 
ATOM     30  C   UNL     1      -3.829  -9.834  -4.777  0.00  0.00    +0.021 A 
ATOM     31  C   UNL     1      -4.290  -8.774  -4.024  0.00  0.00    +0.014 A 
ATOM     32 CL   UNL     1      -1.925 -11.226  -6.105  0.00  0.00    -0.084 Cl
ENDBRANCH  23  26
ENDBRANCH  20  22
ENDBRANCH  17  18
ENDBRANCH   1  17
TORSDOF 5
