REMARK  Name = ZINC26787047
REMARK  12 active torsions:
REMARK  status: ('A' for Active; 'I' for Inactive)
REMARK    1  A    between atoms: C_1  and  C_2
REMARK    2  A    between atoms: C_2  and  C_3
REMARK    3  A    between atoms: C_2  and  C_4
REMARK    4  A    between atoms: C_6  and  N_22
REMARK    5  A    between atoms: C_8  and  S_11
REMARK    6  A    between atoms: C_9  and  O_10
REMARK    7  A    between atoms: S_11  and  C_14
REMARK    8  A    between atoms: C_17  and  O_20
REMARK    9  A    between atoms: O_20  and  C_21
REMARK   10  A    between atoms: N_22  and  S_23
REMARK   11  A    between atoms: S_23  and  C_26
REMARK   12  A    between atoms: C_30  and  N_32
REMARK                            x       y       z     vdW  Elec       q    Type
REMARK                         _______ _______ _______ _____ _____    ______ ____
ROOT
ATOM      1  C   UNL     1       0.029   1.173   4.922  0.00  0.00    +0.000 A 
ATOM      2  C   UNL     1      -0.652   1.454   3.753  0.00  0.00    +0.032 A 
ATOM      3  C   UNL     1       0.034   1.951   2.653  0.00  0.00    +0.050 A 
ATOM      4  C   UNL     1       1.402   2.176   2.732  0.00  0.00    +0.055 A 
ATOM      5  C   UNL     1       2.080   1.900   3.903  0.00  0.00    +0.137 A 
ATOM      6  C   UNL     1       1.395   1.398   5.000  0.00  0.00    +0.145 A 
ENDROOT
BRANCH   1   8
ATOM      7  C   UNL     1      -1.796   1.621   6.540  0.00  0.00    +0.012 C 
ATOM      8  C   UNL     1      -0.714   0.627   6.114  0.00  0.00    +0.017 C 
ATOM      9  C   UNL     1      -1.366  -0.707   5.741  0.00  0.00    +0.012 C 
ENDBRANCH   1   8
BRANCH   5  10
ATOM     10  S   UNL     1       3.816   2.185   4.004  0.00  0.00    +0.029 S 
ATOM     11  O   UNL     1       4.391   1.005   4.547  0.00  0.00    -0.164 OA
ATOM     12  O   UNL     1       4.213   2.718   2.748  0.00  0.00    -0.164 OA
BRANCH  10  13
ATOM     13  C   UNL     1       4.066   3.461   5.194  0.00  0.00    +0.094 A 
ATOM     14  C   UNL     1       4.084   4.784   4.794  0.00  0.00    +0.031 A 
ATOM     15  C   UNL     1       4.274   5.786   5.726  0.00  0.00    +0.047 A 
ATOM     16  C   UNL     1       4.458   5.463   7.062  0.00  0.00    +0.120 A 
ATOM     17  C   UNL     1       4.445   4.134   7.460  0.00  0.00    +0.047 A 
ATOM     18  C   UNL     1       4.249   3.136   6.525  0.00  0.00    +0.031 A 
BRANCH  16  19
ATOM     19  O   UNL     1       4.650   6.446   7.980  0.00  0.00    -0.495 OA
ATOM     20  C   UNL     1       4.652   7.792   7.499  0.00  0.00    +0.277 C 
ENDBRANCH  16  19
ENDBRANCH  10  13
ENDBRANCH   5  10
BRANCH   6  21
ATOM     21  O   UNL     1       2.063   1.126   6.153  0.00  0.00    -0.505 OA
ATOM     22  H   UNL     1       3.147   1.305   6.215  0.00  0.00    +0.292 HD
ENDBRANCH   6  21
BRANCH   3  23
ATOM     23  N   UNL     1      -0.654   2.231   1.467  0.00  0.00    -0.216 N 
ATOM     24  H   UNL     1      -1.616   2.765   1.502  0.00  0.00    +0.174 HD
BRANCH  23  25
ATOM     25  S   UNL     1      -0.022   1.758   0.012  0.00  0.00    +0.072 S 
ATOM     26  O   UNL     1       1.334   2.182   0.001  0.00  0.00    -0.150 OA
ATOM     27  O   UNL     1      -0.953   2.157  -0.985  0.00  0.00    -0.150 OA
BRANCH  25  28
ATOM     28  C   UNL     1       0.002  -0.004   0.002  0.00  0.00    +0.111 A 
ATOM     29  C   UNL     1      -1.088  -0.708  -0.476  0.00  0.00    +0.029 A 
ATOM     30  C   UNL     1      -1.069  -2.090  -0.484  0.00  0.00    +0.004 A 
ATOM     31  C   UNL     1       0.040  -2.768  -0.014  0.00  0.00    +0.033 A 
ATOM     32  C   UNL     1       1.130  -2.065   0.464  0.00  0.00    +0.128 A 
ATOM     33  C   UNL     1       1.113  -0.683   0.467  0.00  0.00    +0.061 A 
BRANCH  32  34
ATOM     34  N   UNL     1       2.317  -2.792   0.966  0.00  0.00    +0.056 N 
ATOM     35  O   UNL     1       2.334  -4.010   0.959  0.00  0.00    -0.126 OA
ATOM     36  O   UNL     1       3.277  -2.172   1.387  0.00  0.00    -0.126 OA
ENDBRANCH  32  34
ENDBRANCH  25  28
ENDBRANCH  23  25
ENDBRANCH   3  23
TORSDOF 9
