REMARK  Name = ZINC06507137
REMARK  9 active torsions:
REMARK  status: ('A' for Active; 'I' for Inactive)
REMARK    1  A    between atoms: C_1  and  C_2
REMARK    2  A    between atoms: C_2  and  O_3
REMARK    3  A    between atoms: O_3  and  C_4
REMARK    4  A    between atoms: C_13  and  C_24
REMARK    5  A    between atoms: C_19  and  N_23
REMARK    6  A    between atoms: C_20  and  C_21
REMARK    7  A    between atoms: C_24  and  S_25
REMARK    8  A    between atoms: S_25  and  C_26
REMARK    9  A    between atoms: C_29  and  C_32
REMARK                            x       y       z     vdW  Elec       q    Type
REMARK                         _______ _______ _______ _____ _____    ______ ____
ROOT
ATOM      1  C   UNL     1       0.818  -1.759   1.311  0.00  0.00    +0.403 C 
ATOM      2  O   UNL     1       0.330  -2.497   0.478  0.00  0.00    -0.226 OA
ATOM      3  N   UNL     1       1.455  -2.277   2.380  0.00  0.00    -0.267 N 
ATOM      4  C   UNL     1       2.045  -1.398   3.399  0.00  0.00    +0.112 C 
ATOM      5  C   UNL     1       3.517  -1.780   3.586  0.00  0.00    +0.036 C 
ATOM      6  C   UNL     1       3.616  -3.272   3.907  0.00  0.00    +0.045 C 
ATOM      7  C   UNL     1       3.047  -4.090   2.747  0.00  0.00    +0.036 C 
ATOM      8  C   UNL     1       1.565  -3.732   2.553  0.00  0.00    +0.112 C 
ATOM      9  C   UNL     1       5.057  -3.647   4.135  0.00  0.00    +0.049 A 
ATOM     10  C   UNL     1       6.062  -3.765   3.255  0.00  0.00    +0.054 A 
ATOM     11  N   UNL     1       7.171  -4.122   3.944  0.00  0.00    -0.277 N 
ATOM     12  H   UNL     1       8.051  -4.277   3.566  0.00  0.00    +0.189 HD
ATOM     13  N   UNL     1       6.826  -4.226   5.301  0.00  0.00    -0.135 NA
ATOM     14  C   UNL     1       5.562  -3.944   5.421  0.00  0.00    +0.245 A 
ATOM     15  O   UNL     1       4.774  -3.914   6.529  0.00  0.00    -0.422 OA
ATOM     16  C   UNL     1       3.440  -3.859   6.342  0.00  0.00    +0.200 C 
ATOM     17  C   UNL     1       2.844  -3.572   5.166  0.00  0.00    +0.097 C 
ENDROOT
BRANCH  16  18
ATOM     18  N   UNL     1       2.633  -4.112   7.423  0.00  0.00    -0.328 N 
ATOM     19  H   UNL     1       3.026  -4.321   8.284  0.00  0.00    +0.145 HD
ATOM     20  H   UNL     1       1.668  -4.081   7.326  0.00  0.00    +0.145 HD
ENDBRANCH  16  18
BRANCH  17  21
ATOM     21  C   UNL     1       1.413  -3.552   5.112  0.00  0.00    +0.101 C 
ATOM     22  N   UNL     1       0.278  -3.537   5.068  0.00  0.00    -0.191 NA
ENDBRANCH  17  21
BRANCH   1  23
ATOM     23  O   UNL     1       0.724  -0.424   1.166  0.00  0.00    -0.451 OA
BRANCH  23  25
ATOM     24  C   UNL     1       0.031   1.586   0.017  0.00  0.00    +0.048 C 
ATOM     25  C   UNL     1       0.036   0.056   0.009  0.00  0.00    +0.230 C 
ENDBRANCH  23  25
ENDBRANCH   1  23
BRANCH  10  26
ATOM     26  C   UNL     1       5.973  -3.542   1.768  0.00  0.00    +0.129 C 
BRANCH  26  27
ATOM     27  S   UNL     1       5.711  -5.130   0.932  0.00  0.00    -0.119 S 
BRANCH  27  28
ATOM     28  C   UNL     1       5.629  -4.706  -0.776  0.00  0.00    +0.008 A 
ATOM     29  C   UNL     1       5.768  -3.381  -1.171  0.00  0.00    +0.015 A 
ATOM     30  C   UNL     1       5.703  -3.051  -2.511  0.00  0.00    +0.004 A 
ATOM     31  C   UNL     1       5.500  -4.038  -3.458  0.00  0.00    -0.050 A 
ATOM     32  C   UNL     1       5.362  -5.358  -3.068  0.00  0.00    +0.004 A 
ATOM     33  C   UNL     1       5.431  -5.695  -1.731  0.00  0.00    +0.015 A 
ATOM     34  C   UNL     1       5.431  -3.675  -4.919  0.00  0.00    +0.044 C 
ENDBRANCH  27  28
ENDBRANCH  26  27
ENDBRANCH  10  26
TORSDOF 7
