REMARK  Name = ZINC02731684
REMARK  11 active torsions:
REMARK  status: ('A' for Active; 'I' for Inactive)
REMARK    1  A    between atoms: C_1  and  C_2
REMARK    2  A    between atoms: C_3  and  C_31
REMARK    3  A    between atoms: C_4  and  C_20
REMARK    4  A    between atoms: C_10  and  C_15
REMARK    5  A    between atoms: C_31  and  O_33
REMARK    6  A    between atoms: O_33  and  C_34
REMARK    7  A    between atoms: C_34  and  C_35
REMARK    8  A    between atoms: C_35  and  O_36
REMARK    9  A    between atoms: O_36  and  C_37
REMARK   10  A    between atoms: C_37  and  C_38
REMARK   11  A    between atoms: C_37  and  C_39
REMARK                            x       y       z     vdW  Elec       q    Type
REMARK                         _______ _______ _______ _____ _____    ______ ____
ROOT
ATOM      1  C   UNL     1      -7.507   2.286  -3.685  0.00  0.00    +0.061 C 
ATOM      2  C   UNL     1      -6.624   2.027  -2.492  0.00  0.00    +0.016 C 
ATOM      3  C   UNL     1      -5.569   2.825  -2.256  0.00  0.00    +0.065 C 
ATOM      4  C   UNL     1      -4.662   2.592  -1.083  0.00  0.00    +0.099 C 
ATOM      5  C   UNL     1      -5.321   1.702  -0.058  0.00  0.00    +0.024 C 
ATOM      6  C   UNL     1      -6.392   0.949  -0.386  0.00  0.00    +0.016 C 
ATOM      7  N   UNL     1      -6.901   0.980  -1.657  0.00  0.00    -0.321 N 
ATOM      8  C   UNL     1      -7.059   0.059   0.634  0.00  0.00    +0.060 C 
ATOM      9  C   UNL     1      -6.022  -0.424   1.650  0.00  0.00    +0.039 C 
ATOM     10  C   UNL     1      -5.381   0.801   2.311  0.00  0.00    +0.088 C 
ATOM     11  C   UNL     1      -4.789   1.679   1.243  0.00  0.00    +0.162 C 
ATOM     12  O   UNL     1      -3.833   2.380   1.509  0.00  0.00    -0.292 OA
ATOM     13  H   UNL     1      -7.537   0.153  -2.004  0.00  0.00    +0.152 HD
ENDROOT
BRANCH   4  14
ATOM     14  C   UNL     1      -3.392   1.938  -1.562  0.00  0.00    +0.047 A 
ATOM     15  C   UNL     1      -3.443   0.783  -2.250  0.00  0.00    +0.204 A 
ATOM     16  O   UNL     1      -2.350   0.157  -2.699  0.00  0.00    -0.462 OA
ATOM     17  C   UNL     1      -1.107   0.642  -2.501  0.00  0.00    +0.138 A 
ATOM     18  C   UNL     1       0.010  -0.036  -2.976  0.00  0.00    +0.047 A 
ATOM     19  C   UNL     1       1.270   0.477  -2.755  0.00  0.00    +0.004 A 
ATOM     20  C   UNL     1       1.440   1.663  -2.057  0.00  0.00    +0.001 A 
ATOM     21  C   UNL     1       0.347   2.348  -1.572  0.00  0.00    +0.015 A 
ATOM     22  C   UNL     1      -0.933   1.839  -1.788  0.00  0.00    +0.064 A 
ATOM     23  C   UNL     1      -2.134   2.537  -1.289  0.00  0.00    +0.197 A 
ATOM     24  O   UNL     1      -2.049   3.583  -0.669  0.00  0.00    -0.287 OA
ENDBRANCH   4  14
BRANCH   9  25
ATOM     25  C   UNL     1      -6.697  -1.270   2.699  0.00  0.00    -0.006 A 
ATOM     26  C   UNL     1      -6.455  -2.560   3.040  0.00  0.00    +0.011 A 
ATOM     27  C   UNL     1      -7.207  -3.139   4.045  0.00  0.00    +0.008 A 
ATOM     28  C   UNL     1      -8.163  -2.400   4.660  0.00  0.00    +0.045 A 
ATOM     29  S   UNL     1      -8.016  -0.832   3.819  0.00  0.00    -0.101 S 
ENDBRANCH   9  25
BRANCH   3  30
ATOM     30  C   UNL     1      -5.308   3.907  -3.129  0.00  0.00    +0.338 C 
ATOM     31  O   UNL     1      -5.971   4.047  -4.139  0.00  0.00    -0.245 OA
BRANCH  30  32
ATOM     32  O   UNL     1      -4.323   4.784  -2.842  0.00  0.00    -0.459 OA
BRANCH  32  33
ATOM     33  C   UNL     1      -4.072   5.814  -3.800  0.00  0.00    +0.260 C 
BRANCH  33  34
ATOM     34  C   UNL     1      -3.017   6.776  -3.250  0.00  0.00    +0.201 C 
BRANCH  34  35
ATOM     35  O   UNL     1      -1.767   6.094  -3.129  0.00  0.00    -0.374 OA
BRANCH  35  36
ATOM     36  C   UNL     1      -0.679   6.938  -2.747  0.00  0.00    +0.112 C 
ATOM     37  C   UNL     1       0.394   6.102  -2.047  0.00  0.00    +0.037 C 
ATOM     38  C   UNL     1      -0.081   7.594  -3.994  0.00  0.00    +0.037 C 
ENDBRANCH  35  36
ENDBRANCH  34  35
ENDBRANCH  33  34
ENDBRANCH  32  33
ENDBRANCH  30  32
ENDBRANCH   3  30
TORSDOF 8
