REMARK  Name = ZINC08915429
REMARK  8 active torsions:
REMARK  status: ('A' for Active; 'I' for Inactive)
REMARK    1  A    between atoms: C_2  and  C_3
REMARK    2  A    between atoms: C_3  and  O_4
REMARK    3  A    between atoms: O_4  and  C_5
REMARK    4  A    between atoms: C_8  and  C_11
REMARK    5  A    between atoms: C_13  and  C_25
REMARK    6  A    between atoms: C_15  and  C_20
REMARK    7  A    between atoms: C_15  and  O_24
REMARK    8  A    between atoms: C_25  and  C_27
REMARK                            x       y       z     vdW  Elec       q    Type
REMARK                         _______ _______ _______ _____ _____    ______ ____
ROOT
ATOM      1  C   UNL     1      -5.759  -5.135  -1.446  0.00  0.00    +0.120 C 
ATOM      2  C   UNL     1      -6.638  -4.629  -2.594  0.00  0.00    +0.145 C 
ATOM      3  C   UNL     1      -5.858  -4.772  -3.905  0.00  0.00    +0.243 C 
ATOM      4  N   UNL     1      -5.430  -6.164  -4.059  0.00  0.00    -0.264 N 
ATOM      5  C   UNL     1      -5.190  -6.942  -2.993  0.00  0.00    +0.302 C 
ATOM      6  O   UNL     1      -4.825  -8.087  -3.177  0.00  0.00    -0.253 OA
ATOM      7  N   UNL     1      -5.336  -6.507  -1.731  0.00  0.00    -0.292 N 
ATOM      8  H   UNL     1      -5.317  -6.530  -4.950  0.00  0.00    +0.153 HD
ATOM      9  H   UNL     1      -5.158  -7.113  -0.995  0.00  0.00    +0.151 HD
ENDROOT
BRANCH   1  13
ATOM     10  C   UNL     1      -2.318  -2.629  -1.069  0.00  0.00    +0.121 A 
ATOM     11  C   UNL     1      -3.520  -2.250  -0.490  0.00  0.00    +0.046 A 
ATOM     12  C   UNL     1      -4.631  -3.062  -0.613  0.00  0.00    +0.009 A 
ATOM     13  C   UNL     1      -4.545  -4.251  -1.313  0.00  0.00    -0.026 A 
ATOM     14  C   UNL     1      -3.348  -4.632  -1.890  0.00  0.00    +0.009 A 
ATOM     15  C   UNL     1      -2.236  -3.821  -1.774  0.00  0.00    +0.046 A 
BRANCH  10  16
ATOM     16  O   UNL     1      -1.224  -1.832  -0.949  0.00  0.00    -0.488 OA
BRANCH  16  17
ATOM     17  C   UNL     1      -1.381  -0.621  -0.208  0.00  0.00    +0.256 C 
BRANCH  17  19
ATOM     18  C   UNL     1      -0.051   1.417  -0.408  0.00  0.00    +0.007 C 
ATOM     19  C   UNL     1      -0.073   0.127  -0.182  0.00  0.00    +0.006 C 
ENDBRANCH  17  19
ENDBRANCH  16  17
ENDBRANCH  10  16
ENDBRANCH   1  13
BRANCH   3  20
ATOM     20  C   UNL     1      -6.757  -4.381  -5.080  0.00  0.00    +0.436 C 
ATOM     21  F   UNL     1      -7.171  -3.054  -4.928  0.00  0.00    -0.166 F 
ATOM     22  F   UNL     1      -6.043  -4.513  -6.277  0.00  0.00    -0.166 F 
ATOM     23  F   UNL     1      -7.877  -5.219  -5.110  0.00  0.00    -0.166 F 
ENDBRANCH   3  20
BRANCH   3  24
ATOM     24  O   UNL     1      -4.711  -3.921  -3.875  0.00  0.00    -0.364 OA
ATOM     25  H   UNL     1      -4.170  -3.961  -4.675  0.00  0.00    +0.212 HD
ENDBRANCH   3  24
BRANCH   2  26
ATOM     26  C   UNL     1      -7.903  -5.445  -2.661  0.00  0.00    +0.179 C 
ATOM     27  O   UNL     1      -7.919  -6.577  -2.222  0.00  0.00    -0.291 OA
BRANCH  26  28
ATOM     28  C   UNL     1      -9.070  -4.893  -3.234  0.00  0.00    +0.055 A 
ATOM     29  C   UNL     1     -10.328  -5.468  -3.387  0.00  0.00    +0.019 A 
ATOM     30  C   UNL     1     -11.274  -4.677  -3.989  0.00  0.00    +0.008 A 
ATOM     31  C   UNL     1     -10.932  -3.423  -4.383  0.00  0.00    +0.046 A 
ATOM     32  S   UNL     1      -9.318  -3.276  -3.943  0.00  0.00    -0.094 S 
ENDBRANCH  26  28
ENDBRANCH   2  26
TORSDOF 8
