REMARK  Name = ZINC59014451
REMARK  6 active torsions:
REMARK  status: ('A' for Active; 'I' for Inactive)
REMARK    1  A    between atoms: C_5  and  N_7
REMARK    2  A    between atoms: C_8  and  C_10
REMARK    3  A    between atoms: C_10  and  S_11
REMARK    4  A    between atoms: S_11  and  C_12
REMARK    5  A    between atoms: N_17  and  N_18
REMARK    6  A    between atoms: C_19  and  C_20
REMARK                            x       y       z     vdW  Elec       q    Type
REMARK                         _______ _______ _______ _____ _____    ______ ____
ROOT
ATOM      1  C   UNL     1      -1.370  -6.656   0.437  0.00  0.00    +0.211 A 
ATOM      2  N   UNL     1      -2.359  -7.549   0.547  0.00  0.00    -0.186 NA
ATOM      3  C   UNL     1      -1.855  -8.764   0.608  0.00  0.00    +0.232 A 
ATOM      4  N   UNL     1      -0.510  -8.661   0.536  0.00  0.00    -0.245 N 
ATOM      5  N   UNL     1      -0.222  -7.291   0.421  0.00  0.00    -0.144 NA
ATOM      6  N   UNL     1      -2.575  -9.938   0.725  0.00  0.00    -0.205 N 
ATOM      7  H   UNL     1      -2.111 -10.790   0.762  0.00  0.00    +0.177 HD
ATOM      8  H   UNL     1       0.130  -9.389   0.556  0.00  0.00    +0.192 HD
ENDROOT
BRANCH   6   9
ATOM      9  N   UNL     1      -3.974  -9.899   0.789  0.00  0.00    -0.188 NA
ATOM     10  C   UNL     1      -4.649 -11.002   0.899  0.00  0.00    +0.139 C 
BRANCH  10  11
ATOM     11  C   UNL     1      -6.122 -10.961   0.967  0.00  0.00    +0.013 A 
ATOM     12  C   UNL     1      -6.852 -12.145   1.091  0.00  0.00    +0.012 A 
ATOM     13  C   UNL     1      -8.229 -12.100   1.155  0.00  0.00    +0.021 A 
ATOM     14  C   UNL     1      -8.889 -10.883   1.095  0.00  0.00    +0.042 A 
ATOM     15  C   UNL     1      -8.172  -9.705   0.971  0.00  0.00    +0.040 A 
ATOM     16  C   UNL     1      -6.793  -9.736   0.913  0.00  0.00    +0.051 A 
ATOM     17 CL   UNL     1      -5.895  -8.257   0.765  0.00  0.00    -0.083 Cl
ATOM     18 CL   UNL     1     -10.622 -10.836   1.175  0.00  0.00    -0.083 Cl
ENDBRANCH  10  11
ENDBRANCH   6   9
BRANCH   1  19
ATOM     19  S   UNL     1      -1.576  -4.910   0.325  0.00  0.00    -0.075 S 
BRANCH  19  20
ATOM     20  C   UNL     1       0.119  -4.276   0.191  0.00  0.00    +0.173 C 
BRANCH  20  22
ATOM     21  N   UNL     1       1.237  -2.080  -0.022  0.00  0.00    -0.284 N 
ATOM     22  C   UNL     1       0.086  -2.773   0.087  0.00  0.00    +0.228 C 
ATOM     23  O   UNL     1      -0.976  -2.187   0.102  0.00  0.00    -0.275 OA
ATOM     24  H   UNL     1       2.080  -2.551  -0.115  0.00  0.00    +0.155 HD
BRANCH  21  29
ATOM     25  C   UNL     1       0.153   1.372   0.637  0.00  0.00    +0.002 A 
ATOM     26  C   UNL     1       1.173   2.086   0.035  0.00  0.00    +0.001 A 
ATOM     27  C   UNL     1       2.214   1.421  -0.586  0.00  0.00    +0.017 A 
ATOM     28  C   UNL     1       2.239   0.040  -0.607  0.00  0.00    +0.039 A 
ATOM     29  C   UNL     1       1.216  -0.681  -0.003  0.00  0.00    +0.047 A 
ATOM     30  C   UNL     1       0.172  -0.009   0.620  0.00  0.00    +0.024 A 
ATOM     31 BR   UNL     1       3.662  -0.869  -1.458  0.00  0.00    -0.048 Br
ENDBRANCH  21  29
ENDBRANCH  20  22
ENDBRANCH  19  20
ENDBRANCH   1  19
TORSDOF 6
