REMARK  Name = ZINC28933366
REMARK  11 active torsions:
REMARK  status: ('A' for Active; 'I' for Inactive)
REMARK    1  A    between atoms: C_1  and  C_2
REMARK    2  A    between atoms: C_2  and  O_3
REMARK    3  A    between atoms: O_3  and  C_4
REMARK    4  A    between atoms: C_9  and  C_10
REMARK    5  A    between atoms: N_12  and  C_13
REMARK    6  A    between atoms: C_13  and  C_14
REMARK    7  A    between atoms: C_14  and  O_16
REMARK    8  A    between atoms: O_16  and  C_17
REMARK    9  A    between atoms: C_17  and  C_18
REMARK   10  A    between atoms: C_20  and  O_21
REMARK   11  A    between atoms: C_30  and  C_32
REMARK                            x       y       z     vdW  Elec       q    Type
REMARK                         _______ _______ _______ _____ _____    ______ ____
ROOT
ATOM      1  C   UNL     1       0.478  -7.013   0.429  0.00  0.00    +0.268 C 
ENDROOT
BRANCH   1   2
ATOM      2  C   UNL     1      -0.848  -6.301   0.341  0.00  0.00    +0.007 A 
ATOM      3  C   UNL     1      -2.014  -6.998   0.339  0.00  0.00    +0.095 A 
ATOM      4  C   UNL     1      -3.242  -6.309   0.254  0.00  0.00    +0.285 A 
ATOM      5  O   UNL     1      -3.295  -4.970   0.176  0.00  0.00    -0.425 OA
ATOM      6  C   UNL     1      -2.173  -4.219   0.173  0.00  0.00    +0.141 A 
ATOM      7  C   UNL     1      -0.913  -4.841   0.254  0.00  0.00    +0.024 A 
ATOM      8  C   UNL     1       0.252  -4.067   0.252  0.00  0.00    +0.014 A 
ATOM      9  C   UNL     1       0.164  -2.708   0.166  0.00  0.00    +0.024 A 
ATOM     10  C   UNL     1      -1.081  -2.085   0.091  0.00  0.00    +0.037 A 
ATOM     11  C   UNL     1      -2.247  -2.837   0.092  0.00  0.00    +0.070 A 
ATOM     12  N   UNL     1      -1.156  -0.694   0.009  0.00  0.00    -0.286 N 
ATOM     13  C   UNL     1      -2.168  -0.037   0.609  0.00  0.00    +0.214 C 
ATOM     14  O   UNL     1      -3.058  -0.658   1.150  0.00  0.00    -0.276 OA
ATOM     15  C   UNL     1      -2.193   1.470   0.609  0.00  0.00    +0.109 C 
ATOM     16  H   UNL     1      -0.388  -0.134  -0.545  0.00  0.00    +0.155 HD
BRANCH   4  17
ATOM     17  O   UNL     1      -4.280  -6.946   0.253  0.00  0.00    -0.480 OA
ATOM     18  H   UNL     1      -5.246  -6.423   0.188  0.00  0.00    +0.295 HD
ENDBRANCH   4  17
ENDBRANCH   1   2
BRANCH   1  19
ATOM     19  O   UNL     1       0.255  -8.445   0.503  0.00  0.00    -0.459 OA
BRANCH  19  20
ATOM     20  C   UNL     1       1.342  -9.228   0.587  0.00  0.00    +0.325 C 
ATOM     21  O   UNL     1       2.444  -8.732   0.599  0.00  0.00    -0.249 OA
BRANCH  20  22
ATOM     22  C   UNL     1       1.188 -10.725   0.668  0.00  0.00    +0.225 C 
BRANCH  22  25
ATOM     23  C   UNL     1       2.621 -12.689   0.832  0.00  0.00    +0.248 C 
ATOM     24  O   UNL     1       1.622 -13.382   0.835  0.00  0.00    -0.270 OA
ATOM     25  N   UNL     1       2.512 -11.348   0.751  0.00  0.00    -0.301 N 
ATOM     26  H   UNL     1       3.416 -10.722   0.748  0.00  0.00    +0.150 HD
BRANCH  23  32
ATOM     27  C   UNL     1       4.073 -14.710   1.000  0.00  0.00    +0.133 A 
ATOM     28  C   UNL     1       5.331 -15.289   1.078  0.00  0.00    +0.046 A 
ATOM     29  C   UNL     1       6.460 -14.495   1.072  0.00  0.00    +0.004 A 
ATOM     30  C   UNL     1       6.347 -13.116   0.989  0.00  0.00    +0.001 A 
ATOM     31  C   UNL     1       5.105 -12.525   0.906  0.00  0.00    +0.017 A 
ATOM     32  C   UNL     1       3.954 -13.316   0.916  0.00  0.00    +0.078 A 
BRANCH  27  33
ATOM     33  O   UNL     1       2.962 -15.489   1.005  0.00  0.00    -0.491 OA
BRANCH  33  35
ATOM     34  C   UNL     1       1.805 -17.610   1.084  0.00  0.00    +0.048 C 
ATOM     35  C   UNL     1       3.162 -16.902   1.093  0.00  0.00    +0.226 C 
ENDBRANCH  33  35
ENDBRANCH  27  33
ENDBRANCH  23  32
ENDBRANCH  22  25
ENDBRANCH  20  22
ENDBRANCH  19  20
ENDBRANCH   1  19
TORSDOF 9
