REMARK  Name = ZINC12079375
REMARK  6 active torsions:
REMARK  status: ('A' for Active; 'I' for Inactive)
REMARK    1  A    between atoms: C_2  and  C_22
REMARK    2  A    between atoms: N_5  and  C_6
REMARK    3  A    between atoms: C_12  and  N_58
REMARK    4  A    between atoms: N_24  and  C_25
REMARK    5  A    between atoms: C_25  and  C_26
REMARK    6  A    between atoms: C_26  and  O_27
REMARK                            x       y       z     vdW  Elec       q    Type
REMARK                         _______ _______ _______ _____ _____    ______ ____
ROOT
ATOM      1  C   UNL     1      -1.564   7.738   5.002  0.00  0.00    +0.092 C 
ATOM      2  C   UNL     1      -0.673   8.982   4.944  0.00  0.00    +0.023 C 
ATOM      3  C   UNL     1      -1.254  10.059   5.865  0.00  0.00    -0.017 C 
ATOM      4  C   UNL     1      -2.689  10.372   5.435  0.00  0.00    -0.078 C 
ATOM      5  C   UNL     1      -2.990   8.118   4.597  0.00  0.00    -0.051 C 
ATOM      6  N   UNL     1      -3.499   9.140   5.536  0.00  0.00    +0.383 N 
ATOM      7  H   UNL     1      -3.432   8.775   6.494  0.00  0.00    -0.081 HD
ENDROOT
BRANCH   6   8
ATOM      8  C   UNL     1      -4.914   9.441   5.236  0.00  0.00    -0.062 C 
ATOM      9  C   UNL     1      -5.452  10.400   6.300  0.00  0.00    -0.024 C 
ATOM     10  C   UNL     1      -5.321   9.756   7.681  0.00  0.00    +0.005 C 
ATOM     11  C   UNL     1      -6.124   8.455   7.715  0.00  0.00    -0.010 C 
ATOM     12  C   UNL     1      -7.597   8.757   7.432  0.00  0.00    +0.007 C 
ATOM     13  C   UNL     1      -7.728   9.402   6.050  0.00  0.00    -0.010 C 
ATOM     14  C   UNL     1      -6.925  10.703   6.016  0.00  0.00    +0.005 C 
ATOM     15  C   UNL     1      -7.191   8.442   4.987  0.00  0.00    +0.005 C 
ATOM     16  C   UNL     1      -5.718   8.139   5.270  0.00  0.00    -0.024 C 
ATOM     17  C   UNL     1      -5.587   7.495   6.652  0.00  0.00    +0.005 C 
ENDBRANCH   6   8
BRANCH   1  22
ATOM     18  C   UNL     1      -0.461   6.946   2.886  0.00  0.00    +0.143 A 
ATOM     19  C   UNL     1      -0.138   5.723   2.370  0.00  0.00    +0.167 A 
ATOM     20  N   UNL     1      -0.530   4.777   3.240  0.00  0.00    -0.125 NA
ATOM     21  N   UNL     1      -1.069   5.334   4.268  0.00  0.00    -0.065 NA
ATOM     22  N   UNL     1      -1.048   6.723   4.080  0.00  0.00    -0.250 N 
BRANCH  19  23
ATOM     23  C   UNL     1       0.525   5.482   1.074  0.00  0.00    +0.266 C 
ATOM     24  O   UNL     1       0.831   6.420   0.364  0.00  0.00    -0.268 OA
ATOM     25  N   UNL     1       0.790   4.222   0.678  0.00  0.00    -0.308 N 
ATOM     26  H   UNL     1       0.546   3.473   1.244  0.00  0.00    +0.149 HD
BRANCH  25  27
ATOM     27  C   UNL     1       1.448   3.982  -0.609  0.00  0.00    +0.132 C 
BRANCH  27  28
ATOM     28  C   UNL     1       1.631   2.477  -0.816  0.00  0.00    +0.174 C 
BRANCH  28  29
ATOM     29  O   UNL     1       0.351   1.852  -0.924  0.00  0.00    -0.393 OA
ATOM     30  H   UNL     1       0.391   0.895  -1.056  0.00  0.00    +0.209 HD
ENDBRANCH  28  29
ENDBRANCH  27  28
ENDBRANCH  25  27
ENDBRANCH  19  23
ENDBRANCH   1  22
TORSDOF 6
