REMARK  Name = ZINC39591026
REMARK  9 active torsions:
REMARK  status: ('A' for Active; 'I' for Inactive)
REMARK    1  A    between atoms: C_1  and  C_2
REMARK    2  A    between atoms: C_4  and  S_9
REMARK    3  A    between atoms: C_5  and  C_8
REMARK    4  A    between atoms: S_9  and  N_12
REMARK    5  A    between atoms: N_12  and  C_13
REMARK    6  A    between atoms: C_13  and  C_14
REMARK    7  A    between atoms: C_14  and  O_15
REMARK    8  A    between atoms: O_15  and  C_16
REMARK    9  A    between atoms: C_22  and  C_26
REMARK                            x       y       z     vdW  Elec       q    Type
REMARK                         _______ _______ _______ _____ _____    ______ ____
ROOT
ATOM      1  C   UNL     1      -1.100  -3.568  -5.605  0.00  0.00    +0.197 C 
ATOM      2  C   UNL     1       0.011  -3.295  -6.340  0.00  0.00    +0.067 C 
ATOM      3  C   UNL     1       0.158  -3.801  -7.641  0.00  0.00    +0.049 C 
ATOM      4  C   UNL     1      -0.833  -4.587  -8.190  0.00  0.00    +0.134 C 
ATOM      5  N   UNL     1      -0.948  -5.185  -9.379  0.00  0.00    -0.265 N 
ATOM      6  N   UNL     1      -2.043  -5.842  -9.515  0.00  0.00    -0.181 NA
ATOM      7  C   UNL     1      -2.823  -5.707  -8.274  0.00  0.00    +0.262 C 
ATOM      8  N   UNL     1      -1.979  -4.863  -7.420  0.00  0.00    -0.204 N 
ATOM      9  N   UNL     1      -2.102  -4.355  -6.128  0.00  0.00    -0.231 N 
ATOM     10  H   UNL     1      -2.892  -4.551  -5.600  0.00  0.00    +0.173 HD
ATOM     11  H   UNL     1      -0.271  -5.128 -10.072  0.00  0.00    +0.190 HD
ENDROOT
BRANCH   7  12
ATOM     12  C   UNL     1      -3.043  -7.056  -7.639  0.00  0.00    -0.002 A 
ATOM     13  C   UNL     1      -3.143  -7.164  -6.264  0.00  0.00    +0.007 A 
ATOM     14  C   UNL     1      -3.345  -8.402  -5.682  0.00  0.00    +0.000 A 
ATOM     15  C   UNL     1      -3.449  -9.530  -6.473  0.00  0.00    +0.000 A 
ATOM     16  C   UNL     1      -3.350  -9.421  -7.848  0.00  0.00    +0.000 A 
ATOM     17  C   UNL     1      -3.152  -8.184  -8.431  0.00  0.00    +0.007 A 
ENDBRANCH   7  12
BRANCH   1  18
ATOM     18  O   UNL     1      -1.219  -3.070  -4.354  0.00  0.00    -0.477 OA
BRANCH  18  19
ATOM     19  C   UNL     1      -2.409  -3.400  -3.635  0.00  0.00    +0.247 C 
BRANCH  19  20
ATOM     20  C   UNL     1      -2.364  -2.751  -2.250  0.00  0.00    +0.147 C 
BRANCH  20  21
ATOM     21  N   UNL     1      -2.389  -1.293  -2.392  0.00  0.00    -0.187 NA
ATOM     22  H   UNL     1      -2.210  -0.887  -3.255  0.00  0.00    +0.148 HD
BRANCH  21  23
ATOM     23  S   UNL     1      -2.722  -0.339  -1.081  0.00  0.00    +0.059 S 
ATOM     24  O   UNL     1      -3.890  -0.875  -0.475  0.00  0.00    -0.153 OA
ATOM     25  O   UNL     1      -2.646   1.008  -1.529  0.00  0.00    -0.153 OA
BRANCH  23  28
ATOM     26  C   UNL     1      -0.019   1.526   0.010  0.00  0.00    +0.041 C 
ATOM     27  C   UNL     1       0.002  -0.004   0.002  0.00  0.00    +0.176 C 
ATOM     28  C   UNL     1      -1.409  -0.561   0.072  0.00  0.00    +0.131 C 
ATOM     29  C   UNL     1      -1.423  -1.257   1.211  0.00  0.00    +0.084 C 
ATOM     30  N   UNL     1      -0.222  -1.193   1.828  0.00  0.00    -0.157 NA
ATOM     31  N   UNL     1       0.629  -0.523   1.230  0.00  0.00    -0.178 NA
ATOM     32  C   UNL     1      -2.617  -2.011   1.738  0.00  0.00    +0.069 C 
ENDBRANCH  23  28
ENDBRANCH  21  23
ENDBRANCH  20  21
ENDBRANCH  19  20
ENDBRANCH  18  19
ENDBRANCH   1  18
TORSDOF 7
