REMARK  Name = ZINC03536347
REMARK  5 active torsions:
REMARK  status: ('A' for Active; 'I' for Inactive)
REMARK    1  A    between atoms: C_7  and  C_16
REMARK    2  A    between atoms: C_9  and  C_11
REMARK    3  A    between atoms: C_16  and  O_18
REMARK    4  A    between atoms: O_18  and  C_19
REMARK    5  A    between atoms: C_19  and  C_20
REMARK                            x       y       z     vdW  Elec       q    Type
REMARK                         _______ _______ _______ _____ _____    ______ ____
ROOT
ATOM      1  C   UNL     1      -4.945  -0.561   0.045  0.00  0.00    +0.340 C 
ATOM      2  O   UNL     1      -5.907  -1.297  -0.042  0.00  0.00    -0.245 OA
ENDROOT
BRANCH   1   9
ATOM      3  C   UNL     1      -4.165  -4.817   0.056  0.00  0.00    +0.001 A 
ATOM      4  C   UNL     1      -2.857  -5.296   0.041  0.00  0.00    +0.002 A 
ATOM      5  C   UNL     1      -1.797  -4.442   0.022  0.00  0.00    +0.028 A 
ATOM      6  C   UNL     1      -2.020  -3.053   0.019  0.00  0.00    +0.073 A 
ATOM      7  C   UNL     1      -3.353  -2.572   0.035  0.00  0.00    +0.014 A 
ATOM      8  C   UNL     1      -4.419  -3.478   0.053  0.00  0.00    +0.011 A 
ATOM      9  C   UNL     1      -3.579  -1.126   0.030  0.00  0.00    +0.070 A 
ATOM     10  C   UNL     1      -2.461  -0.306   0.010  0.00  0.00    +0.047 A 
ATOM     11  C   UNL     1      -1.180  -0.886  -0.004  0.00  0.00    +0.107 A 
ATOM     12  N   UNL     1      -1.000  -2.193  -0.005  0.00  0.00    -0.244 NA
BRANCH  11  13
ATOM     13  C   UNL     1       0.002  -0.004  -0.026  0.00  0.00    +0.153 A 
ATOM     14  C   UNL     1       1.301  -0.409  -0.042  0.00  0.00    +0.051 A 
ATOM     15  C   UNL     1       2.089   0.756  -0.059  0.00  0.00    +0.042 A 
ATOM     16  C   UNL     1       1.243   1.806  -0.052  0.00  0.00    +0.196 A 
ATOM     17  O   UNL     1      -0.017   1.343  -0.033  0.00  0.00    -0.461 OA
ENDBRANCH  11  13
ENDBRANCH   1   9
BRANCH   1  18
ATOM     18  O   UNL     1      -5.123   0.770   0.154  0.00  0.00    -0.452 OA
BRANCH  18  19
ATOM     19  C   UNL     1      -6.492   1.254   0.162  0.00  0.00    +0.328 C 
BRANCH  19  20
ATOM     20  C   UNL     1      -6.493   2.755   0.291  0.00  0.00    +0.258 C 
ATOM     21  O   UNL     1      -5.444   3.358   0.368  0.00  0.00    -0.271 OA
ATOM     22  N   UNL     1      -7.661   3.428   0.320  0.00  0.00    -0.258 N 
ATOM     23  C   UNL     1      -8.947   2.721   0.222  0.00  0.00    +0.209 C 
ATOM     24  C   UNL     1      -9.867   3.490  -0.685  0.00  0.00    +0.235 C 
ATOM     25  O   UNL     1     -10.716   2.898  -1.318  0.00  0.00    -0.274 OA
ATOM     26  N   UNL     1      -9.757   4.826  -0.808  0.00  0.00    -0.283 N 
ATOM     27  C   UNL     1      -8.755   5.527  -0.128  0.00  0.00    +0.055 A 
ATOM     28  C   UNL     1      -7.688   4.826   0.439  0.00  0.00    +0.058 A 
ATOM     29  C   UNL     1      -6.684   5.506   1.103  0.00  0.00    +0.025 A 
ATOM     30  C   UNL     1      -6.741   6.885   1.207  0.00  0.00    +0.002 A 
ATOM     31  C   UNL     1      -7.798   7.581   0.649  0.00  0.00    +0.002 A 
ATOM     32  C   UNL     1      -8.805   6.907  -0.017  0.00  0.00    +0.025 A 
ATOM     33  H   UNL     1     -10.380   5.309  -1.373  0.00  0.00    +0.155 HD
ENDBRANCH  19  20
ENDBRANCH  18  19
ENDBRANCH   1  18
TORSDOF 5
