REMARK  Name = ZINC35567121
REMARK  19 active torsions:
REMARK  status: ('A' for Active; 'I' for Inactive)
REMARK    1  A    between atoms: C_1  and  C_2
REMARK    2  A    between atoms: C_3  and  C_8
REMARK    3  A    between atoms: C_5  and  C_7
REMARK    4  A    between atoms: C_8  and  C_10
REMARK    5  A    between atoms: N_14  and  C_32
REMARK    6  A    between atoms: C_15  and  C_17
REMARK    7  A    between atoms: C_19  and  C_28
REMARK    8  A    between atoms: C_20  and  O_27
REMARK    9  A    between atoms: C_21  and  C_23
REMARK   10  A    between atoms: C_23  and  C_24
REMARK   11  A    between atoms: C_23  and  C_25
REMARK   12  A    between atoms: C_23  and  C_26
REMARK   13  A    between atoms: C_28  and  C_29
REMARK   14  A    between atoms: C_28  and  C_30
REMARK   15  A    between atoms: C_28  and  C_31
REMARK   16  A    between atoms: C_32  and  C_33
REMARK   17  A    between atoms: C_33  and  N_34
REMARK   18  A    between atoms: N_34  and  C_35
REMARK   19  A    between atoms: N_34  and  C_36
REMARK                            x       y       z     vdW  Elec       q    Type
REMARK                         _______ _______ _______ _____ _____    ______ ____
ROOT
ATOM      1  C   UNL     1       0.180  -1.411  -3.953  0.00  0.00    +0.077 C 
ATOM      2  C   UNL     1       0.357  -1.168  -5.271  0.00  0.00    +0.249 C 
ATOM      3  C   UNL     1       0.542  -2.449  -5.981  0.00  0.00    +0.288 C 
ATOM      4  O   UNL     1       0.724  -2.564  -7.177  0.00  0.00    -0.266 OA
ATOM      5  N   UNL     1       0.480  -3.471  -5.109  0.00  0.00    -0.285 N 
ATOM      6  C   UNL     1       0.255  -2.909  -3.772  0.00  0.00    +0.145 C 
ATOM      7  O   UNL     1       0.363   0.057  -5.849  0.00  0.00    -0.282 OA
ENDROOT
BRANCH   6   8
ATOM      8  C   UNL     1       1.399  -3.264  -2.858  0.00  0.00    -0.022 A 
ATOM      9  C   UNL     1       2.557  -2.507  -2.875  0.00  0.00    +0.013 A 
ATOM     10  C   UNL     1       3.607  -2.831  -2.038  0.00  0.00    +0.000 A 
ATOM     11  C   UNL     1       3.500  -3.916  -1.180  0.00  0.00    +0.124 A 
ATOM     12  C   UNL     1       2.338  -4.673  -1.165  0.00  0.00    +0.000 A 
ATOM     13  C   UNL     1       1.288  -4.342  -1.999  0.00  0.00    +0.013 A 
BRANCH  12  14
ATOM     14  C   UNL     1       2.218  -5.852  -0.234  0.00  0.00    -0.009 C 
ATOM     15  C   UNL     1       0.858  -6.524  -0.433  0.00  0.00    +0.015 C 
ATOM     16  C   UNL     1       3.332  -6.856  -0.537  0.00  0.00    +0.015 C 
ATOM     17  C   UNL     1       2.343  -5.373   1.214  0.00  0.00    +0.015 C 
ENDBRANCH  12  14
BRANCH  10  18
ATOM     18  C   UNL     1       4.869  -2.007  -2.058  0.00  0.00    -0.009 C 
ATOM     19  C   UNL     1       4.726  -0.881  -3.085  0.00  0.00    +0.015 C 
ATOM     20  C   UNL     1       5.107  -1.405  -0.672  0.00  0.00    +0.015 C 
ATOM     21  C   UNL     1       6.053  -2.897  -2.438  0.00  0.00    +0.015 C 
ENDBRANCH  10  18
BRANCH  11  22
ATOM     22  O   UNL     1       4.532  -4.237  -0.357  0.00  0.00    -0.506 OA
ATOM     23  H   UNL     1       4.497  -3.802   0.506  0.00  0.00    +0.292 HD
ENDBRANCH  11  22
ENDBRANCH   6   8
BRANCH   1  24
ATOM     24  C   UNL     1      -0.037  -0.411  -2.900  0.00  0.00    +0.203 C 
ATOM     25  O   UNL     1       0.062   0.775  -3.156  0.00  0.00    -0.286 OA
BRANCH  24  28
ATOM     26  C   UNL     1      -0.237   1.393  -0.352  0.00  0.00    +0.067 C 
ATOM     27  C   UNL     1      -0.477  -0.095  -0.371  0.00  0.00    +0.057 A 
ATOM     28  C   UNL     1      -0.372  -0.842  -1.538  0.00  0.00    +0.082 A 
ATOM     29  S   UNL     1      -0.760  -2.471  -0.918  0.00  0.00    -0.069 S 
ATOM     30  C   UNL     1      -1.006  -2.054   0.693  0.00  0.00    +0.076 A 
ATOM     31  N   UNL     1      -0.792  -0.758   0.714  0.00  0.00    -0.249 NA
ATOM     32  C   UNL     1      -1.378  -2.955   1.843  0.00  0.00    +0.073 C 
ENDBRANCH  24  28
ENDBRANCH   1  24
BRANCH   5  33
ATOM     33  C   UNL     1       0.618  -4.893  -5.434  0.00  0.00    +0.090 C 
BRANCH  33  34
ATOM     34  C   UNL     1       2.090  -5.298  -5.340  0.00  0.00    -0.060 C 
BRANCH  34  35
ATOM     35  N   UNL     1       2.228  -6.723  -5.666  0.00  0.00    +0.377 N 
ATOM     36  C   UNL     1       3.652  -7.084  -5.692  0.00  0.00    -0.097 C 
ATOM     37  C   UNL     1       1.538  -7.528  -4.649  0.00  0.00    -0.097 C 
ATOM     38  H   UNL     1       1.819  -6.902  -6.571  0.00  0.00    -0.083 HD
ENDBRANCH  34  35
ENDBRANCH  33  34
ENDBRANCH   5  33
TORSDOF 9
