REMARK  Name = ZINC19826044
REMARK  6 active torsions:
REMARK  status: ('A' for Active; 'I' for Inactive)
REMARK    1  A    between atoms: C_1  and  C_2
REMARK    2  A    between atoms: C_9  and  C_14
REMARK    3  A    between atoms: C_14  and  C_16
REMARK    4  A    between atoms: C_14  and  N_27
REMARK    5  A    between atoms: N_20  and  C_21
REMARK    6  A    between atoms: N_30  and  C_33
REMARK                            x       y       z     vdW  Elec       q    Type
REMARK                         _______ _______ _______ _____ _____    ______ ____
ROOT
ATOM      1  C   UNL     1      -0.013   1.086   0.008  0.00  0.00    +0.162 C 
ENDROOT
BRANCH   1  10
ATOM      2  C   UNL     1      -0.544   5.222  -6.175  0.00  0.00    +0.044 C 
ATOM      3  C   UNL     1      -1.160   4.304  -5.151  0.00  0.00    -0.050 A 
ATOM      4  C   UNL     1      -2.496   3.942  -5.266  0.00  0.00    +0.005 A 
ATOM      5  C   UNL     1      -3.080   3.104  -4.341  0.00  0.00    +0.026 A 
ATOM      6  C   UNL     1      -2.325   2.614  -3.280  0.00  0.00    +0.049 A 
ATOM      7  C   UNL     1      -0.972   2.983  -3.167  0.00  0.00    -0.001 A 
ATOM      8  C   UNL     1      -0.400   3.835  -4.117  0.00  0.00    +0.013 A 
ATOM      9  C   UNL     1      -0.186   2.462  -2.047  0.00  0.00    +0.021 A 
ATOM     10  C   UNL     1      -0.793   1.640  -1.156  0.00  0.00    +0.042 A 
ATOM     11  C   UNL     1      -2.152   1.296  -1.319  0.00  0.00    +0.254 A 
ATOM     12  O   UNL     1      -2.678   0.551  -0.509  0.00  0.00    -0.268 OA
ATOM     13  N   UNL     1      -2.884   1.774  -2.341  0.00  0.00    -0.322 N 
ATOM     14  H   UNL     1      -3.942   1.484  -2.421  0.00  0.00    +0.169 HD
ENDBRANCH   1  10
BRANCH   1  15
ATOM     15  N   UNL     1      -0.642   1.510   1.266  0.00  0.00    -0.286 NA
ATOM     16  C   UNL     1      -0.763   2.974   1.327  0.00  0.00    +0.104 C 
ATOM     17  C   UNL     1      -1.493   3.369   2.612  0.00  0.00    +0.120 C 
ATOM     18  N   UNL     1      -0.750   2.857   3.772  0.00  0.00    -0.325 N 
ATOM     19  C   UNL     1      -0.629   1.393   3.711  0.00  0.00    +0.120 C 
ATOM     20  C   UNL     1       0.101   0.997   2.425  0.00  0.00    +0.104 C 
BRANCH  18  21
ATOM     21  C   UNL     1      -1.349   3.261   4.969  0.00  0.00    +0.065 A 
ATOM     22  C   UNL     1      -0.760   2.941   6.185  0.00  0.00    +0.026 A 
ATOM     23  C   UNL     1      -1.352   3.345   7.366  0.00  0.00    +0.002 A 
ATOM     24  C   UNL     1      -2.536   4.059   7.340  0.00  0.00    +0.003 A 
ATOM     25  C   UNL     1      -3.130   4.375   6.131  0.00  0.00    +0.040 A 
ATOM     26  C   UNL     1      -2.541   3.978   4.945  0.00  0.00    +0.144 A 
ATOM     27  F   UNL     1      -3.121   4.287   3.765  0.00  0.00    -0.204 F 
ENDBRANCH  18  21
ENDBRANCH   1  15
BRANCH   1  28
ATOM     28  C   UNL     1       1.402   1.602  -0.045  0.00  0.00    +0.173 A 
ATOM     29  N   UNL     1       1.807   2.809   0.265  0.00  0.00    -0.111 NA
ATOM     30  N   UNL     1       3.083   2.859   0.090  0.00  0.00    -0.023 NA
ATOM     31  N   UNL     1       3.502   1.714  -0.323  0.00  0.00    -0.044 NA
ATOM     32  N   UNL     1       2.497   0.910  -0.413  0.00  0.00    -0.224 N 
BRANCH  32  33
ATOM     33  C   UNL     1       2.538  -0.490  -0.840  0.00  0.00    +0.111 C 
ATOM     34  C   UNL     1       3.440  -1.286   0.105  0.00  0.00    +0.027 C 
ATOM     35  C   UNL     1       3.483  -2.749  -0.341  0.00  0.00    +0.002 C 
ATOM     36  C   UNL     1       4.037  -2.832  -1.764  0.00  0.00    +0.000 C 
ATOM     37  C   UNL     1       3.135  -2.036  -2.710  0.00  0.00    +0.002 C 
ATOM     38  C   UNL     1       3.092  -0.574  -2.264  0.00  0.00    +0.027 C 
ENDBRANCH  32  33
ENDBRANCH   1  28
TORSDOF 5
