REMARK  Name = ZINC06530376
REMARK  7 active torsions:
REMARK  status: ('A' for Active; 'I' for Inactive)
REMARK    1  A    between atoms: C_1  and  C_2
REMARK    2  A    between atoms: C_2  and  O_3
REMARK    3  A    between atoms: O_3  and  C_4
REMARK    4  A    between atoms: C_4  and  C_6
REMARK    5  A    between atoms: C_14  and  C_25
REMARK    6  A    between atoms: C_20  and  N_24
REMARK    7  A    between atoms: C_21  and  C_22
REMARK                            x       y       z     vdW  Elec       q    Type
REMARK                         _______ _______ _______ _____ _____    ______ ____
ROOT
ATOM      1  C   UNL     1      -2.844  -2.411   0.016  0.00  0.00    +0.114 C 
ATOM      2  C   UNL     1      -3.667  -1.697  -1.088  0.00  0.00    +0.016 C 
ATOM      3  C   UNL     1      -5.064  -2.367  -1.097  0.00  0.00    +0.001 C 
ATOM      4  C   UNL     1      -4.931  -3.818  -1.622  0.00  0.00    +0.001 C 
ATOM      5  C   UNL     1      -3.960  -4.689  -0.789  0.00  0.00    +0.018 C 
ATOM      6  C   UNL     1      -2.811  -3.921  -0.090  0.00  0.00    +0.055 C 
ATOM      7  C   UNL     1      -1.522  -4.316  -0.818  0.00  0.00    +0.049 A 
ATOM      8  C   UNL     1      -1.148  -4.344  -2.181  0.00  0.00    +0.068 A 
ATOM      9  N   UNL     1       0.045  -4.800  -2.336  0.00  0.00    -0.176 NA
ATOM     10  N   UNL     1       0.594  -5.037  -1.086  0.00  0.00    -0.246 N 
ATOM     11  H   UNL     1       1.470  -5.442  -0.838  0.00  0.00    +0.192 HD
ATOM     12  C   UNL     1      -0.481  -4.812  -0.168  0.00  0.00    +0.222 A 
ATOM     13  O   UNL     1      -0.402  -4.997   1.195  0.00  0.00    -0.423 OA
ATOM     14  C   UNL     1      -1.521  -4.983   1.887  0.00  0.00    +0.200 C 
ATOM     15  C   UNL     1      -2.712  -4.520   1.309  0.00  0.00    +0.098 C 
ATOM     16  C   UNL     1      -2.018  -3.929  -3.328  0.00  0.00    +0.068 C 
ENDROOT
BRANCH  14  17
ATOM     17  N   UNL     1      -1.533  -5.442   3.101  0.00  0.00    -0.328 N 
ATOM     18  H   UNL     1      -0.720  -5.794   3.495  0.00  0.00    +0.145 HD
ATOM     19  H   UNL     1      -2.356  -5.434   3.614  0.00  0.00    +0.145 HD
ENDBRANCH  14  17
BRANCH   1  20
ATOM     20  C   UNL     1      -1.496  -1.832   0.006  0.00  0.00    +0.311 C 
ATOM     21  O   UNL     1      -0.998  -1.479  -1.036  0.00  0.00    -0.250 OA
BRANCH  20  22
ATOM     22  O   UNL     1      -0.817  -1.693   1.156  0.00  0.00    -0.465 OA
BRANCH  22  24
ATOM     23  C   UNL     1       1.104  -1.045   2.472  0.00  0.00    +0.048 C 
ATOM     24  C   UNL     1       0.490  -1.122   1.072  0.00  0.00    +0.229 C 
ENDBRANCH  22  24
ENDBRANCH  20  22
ENDBRANCH   1  20
BRANCH  15  25
ATOM     25  C   UNL     1      -3.894  -4.444   2.195  0.00  0.00    +0.101 C 
ATOM     26  N   UNL     1      -4.802  -4.385   2.876  0.00  0.00    -0.191 NA
ENDBRANCH  15  25
TORSDOF 5
