REMARK  Name = ZINC05163412
REMARK  8 active torsions:
REMARK  status: ('A' for Active; 'I' for Inactive)
REMARK    1  A    between atoms: C_1  and  C_2
REMARK    2  A    between atoms: N_9  and  N_10
REMARK    3  A    between atoms: C_11  and  C_13
REMARK    4  A    between atoms: C_17  and  S_19
REMARK    5  A    between atoms: S_19  and  N_22
REMARK    6  A    between atoms: N_22  and  C_23
REMARK    7  A    between atoms: C_28  and  O_29
REMARK    8  A    between atoms: O_29  and  C_30
REMARK                            x       y       z     vdW  Elec       q    Type
REMARK                         _______ _______ _______ _____ _____    ______ ____
ROOT
ATOM      1  C   UNL     1       2.155   3.311   3.547  0.00  0.00    +0.040 A 
ATOM      2  C   UNL     1       1.628   4.600   3.454  0.00  0.00    +0.013 A 
ATOM      3  C   UNL     1       1.040   5.019   2.279  0.00  0.00    +0.003 A 
ATOM      4  C   UNL     1       0.976   4.166   1.191  0.00  0.00    +0.029 A 
ATOM      5  C   UNL     1       1.492   2.885   1.278  0.00  0.00    +0.109 A 
ATOM      6  C   UNL     1       2.083   2.453   2.447  0.00  0.00    +0.042 A 
ENDROOT
BRANCH   1   8
ATOM      7  N   UNL     1       2.855   3.685   5.863  0.00  0.00    -0.203 N 
ATOM      8  C   UNL     1       2.786   2.855   4.803  0.00  0.00    +0.263 C 
ATOM      9  O   UNL     1       3.244   1.731   4.880  0.00  0.00    -0.268 OA
ATOM     10  H   UNL     1       2.490   4.581   5.801  0.00  0.00    +0.178 HD
BRANCH   7  18
ATOM     11  C   UNL     1       4.276   2.015   9.322  0.00  0.00    +0.014 C 
ATOM     12  C   UNL     1       3.965   3.510   9.417  0.00  0.00    +0.032 C 
ATOM     13  C   UNL     1       2.905   3.744  10.492  0.00  0.00    +0.009 C 
ATOM     14  C   UNL     1       2.490   5.216  10.487  0.00  0.00    +0.001 C 
ATOM     15  C   UNL     1       1.835   5.566   9.150  0.00  0.00    +0.006 C 
ATOM     16  C   UNL     1       2.859   5.402   8.023  0.00  0.00    +0.053 C 
ATOM     17  C   UNL     1       3.429   4.003   8.091  0.00  0.00    +0.040 C 
ATOM     18  N   UNL     1       3.453   3.252   7.053  0.00  0.00    -0.189 NA
ENDBRANCH   7  18
ENDBRANCH   1   8
BRANCH   5  19
ATOM     19  S   UNL     1       1.400   1.805  -0.111  0.00  0.00    +0.072 S 
ATOM     20  O   UNL     1       2.443   0.854   0.044  0.00  0.00    -0.150 OA
ATOM     21  O   UNL     1       1.288   2.632  -1.262  0.00  0.00    -0.150 OA
BRANCH  19  22
ATOM     22  N   UNL     1      -0.025   0.969   0.012  0.00  0.00    -0.213 N 
ATOM     23  H   UNL     1      -0.015   0.002   0.077  0.00  0.00    +0.174 HD
BRANCH  22  24
ATOM     24  C   UNL     1      -1.243   1.659   0.015  0.00  0.00    +0.090 A 
ATOM     25  C   UNL     1      -1.399   2.799  -0.760  0.00  0.00    +0.028 A 
ATOM     26  C   UNL     1      -2.604   3.475  -0.758  0.00  0.00    +0.002 A 
ATOM     27  C   UNL     1      -3.652   3.025   0.023  0.00  0.00    +0.004 A 
ATOM     28  C   UNL     1      -3.502   1.893   0.802  0.00  0.00    +0.047 A 
ATOM     29  C   UNL     1      -2.299   1.206   0.803  0.00  0.00    +0.142 A 
BRANCH  29  30
ATOM     30  O   UNL     1      -2.150   0.093   1.570  0.00  0.00    -0.493 OA
ATOM     31  C   UNL     1      -3.275  -0.312   2.351  0.00  0.00    +0.277 C 
ENDBRANCH  29  30
ENDBRANCH  22  24
ENDBRANCH  19  22
ENDBRANCH   5  19
TORSDOF 6
