REMARK  Name = ZINC19532296
REMARK  15 active torsions:
REMARK  status: ('A' for Active; 'I' for Inactive)
REMARK    1  A    between atoms: C_1  and  C_2
REMARK    2  A    between atoms: C_2  and  C_3
REMARK    3  A    between atoms: C_3  and  C_4
REMARK    4  A    between atoms: C_4  and  N_5
REMARK    5  A    between atoms: N_5  and  C_6
REMARK    6  A    between atoms: C_7  and  N_18
REMARK    7  A    between atoms: N_8  and  C_15
REMARK    8  A    between atoms: C_15  and  C_16
REMARK    9  A    between atoms: C_16  and  C_17
REMARK   10  A    between atoms: C_19  and  C_21
REMARK   11  A    between atoms: C_21  and  N_22
REMARK   12  A    between atoms: N_22  and  C_23
REMARK   13  A    between atoms: N_22  and  C_25
REMARK   14  A    between atoms: C_23  and  C_24
REMARK   15  A    between atoms: C_25  and  C_26
REMARK                            x       y       z     vdW  Elec       q    Type
REMARK                         _______ _______ _______ _____ _____    ______ ____
ROOT
ATOM      1  N   UNL     1       1.293  11.168  -0.505  0.00  0.00    -0.266 N 
ATOM      2  C   UNL     1       0.855  10.029  -1.080  0.00  0.00    +0.203 C 
ATOM      3  O   UNL     1       1.316   9.671  -2.144  0.00  0.00    -0.277 OA
ENDROOT
BRANCH   1   4
ATOM      4  C   UNL     1       2.207  11.998  -1.188  0.00  0.00    +0.140 A 
ATOM      5  C   UNL     1       3.476  11.545  -1.488  0.00  0.00    +0.127 A 
ATOM      6  N   UNL     1       4.344  12.376  -2.158  0.00  0.00    -0.280 N 
ATOM      7  C   UNL     1       3.963  13.618  -2.509  0.00  0.00    +0.331 A 
ATOM      8  O   UNL     1       4.747  14.338  -3.098  0.00  0.00    -0.246 OA
ATOM      9  N   UNL     1       2.733  14.077  -2.221  0.00  0.00    -0.273 N 
ATOM     10  H   UNL     1       2.443  15.096  -2.518  0.00  0.00    +0.173 HD
ATOM     11  C   UNL     1       1.843  13.302  -1.570  0.00  0.00    +0.277 A 
ATOM     12  O   UNL     1       0.730  13.729  -1.313  0.00  0.00    -0.266 OA
BRANCH   5  13
ATOM     13  N   UNL     1       3.867  10.279  -1.125  0.00  0.00    -0.343 N 
ATOM     14  H   UNL     1       4.880   9.925  -1.367  0.00  0.00    +0.144 HD
ATOM     15  H   UNL     1       3.166   9.618  -0.592  0.00  0.00    +0.144 HD
ENDBRANCH   5  13
BRANCH   6  16
ATOM     16  C   UNL     1       5.692  11.907  -2.487  0.00  0.00    +0.128 C 
BRANCH  16  17
ATOM     17  C   UNL     1       6.645  12.248  -1.340  0.00  0.00    +0.018 C 
ATOM     18  C   UNL     1       8.053  11.759  -1.684  0.00  0.00    +0.005 C 
ENDBRANCH  16  17
ENDBRANCH   6  16
ENDBRANCH   1   4
BRANCH   1  19
ATOM     19  C   UNL     1       0.819  11.544   0.830  0.00  0.00    +0.114 C 
BRANCH  19  20
ATOM     20  C   UNL     1       1.802  11.030   1.883  0.00  0.00    +0.019 C 
BRANCH  20  22
ATOM     21  C   UNL     1       2.290  10.908   4.331  0.00  0.00    +0.004 C 
ATOM     22  C   UNL     1       1.307  11.422   3.277  0.00  0.00    -0.002 C 
ENDBRANCH  20  22
ENDBRANCH  19  20
ENDBRANCH   1  19
BRANCH   2  23
ATOM     23  C   UNL     1      -0.208   9.203  -0.403  0.00  0.00    +0.019 C 
BRANCH  23  24
ATOM     24  N   UNL     1      -0.545   8.050  -1.248  0.00  0.00    +0.388 N 
ATOM     25  H   UNL     1      -0.591   8.398  -2.291  0.00  0.00    -0.081 HD
BRANCH  24  26
ATOM     26  C   UNL     1      -1.863   7.505  -0.895  0.00  0.00    -0.081 C 
ATOM     27  C   UNL     1      -2.955   8.461  -1.377  0.00  0.00    -0.017 C 
ENDBRANCH  24  26
BRANCH  24  28
ATOM     28  C   UNL     1       0.493   7.013  -1.164  0.00  0.00    -0.030 C 
BRANCH  28  29
ATOM     29  C   UNL     1       0.240   5.950  -2.234  0.00  0.00    +0.195 C 
ATOM     30  C   UNL     1       1.246   4.802  -2.071  0.00  0.00    +0.271 C 
ATOM     31  O   UNL     1       0.990   3.834  -3.094  0.00  0.00    -0.485 OA
ATOM     32  C   UNL     1       0.813   4.311  -4.357  0.00  0.00    +0.162 A 
ATOM     33  C   UNL     1       0.918   3.442  -5.434  0.00  0.00    +0.049 A 
ATOM     34  C   UNL     1       0.743   3.912  -6.721  0.00  0.00    +0.004 A 
ATOM     35  C   UNL     1       0.452   5.246  -6.940  0.00  0.00    +0.004 A 
ATOM     36  C   UNL     1       0.341   6.115  -5.871  0.00  0.00    +0.049 A 
ATOM     37  C   UNL     1       0.523   5.652  -4.577  0.00  0.00    +0.162 A 
ATOM     38  O   UNL     1       0.419   6.521  -3.535  0.00  0.00    -0.484 OA
ENDBRANCH  28  29
ENDBRANCH  24  28
ENDBRANCH  23  24
ENDBRANCH   2  23
TORSDOF 12
