REMARK  Name = ZINC67295407
REMARK  4 active torsions:
REMARK  status: ('A' for Active; 'I' for Inactive)
REMARK    1  A    between atoms: C_8  and  C_22
REMARK    2  A    between atoms: N_10  and  C_11
REMARK    3  A    between atoms: N_24  and  C_25
REMARK    4  A    between atoms: C_25  and  C_26
REMARK                            x       y       z     vdW  Elec       q    Type
REMARK                         _______ _______ _______ _____ _____    ______ ____
ROOT
ATOM      1  C   UNL     1      -0.539   0.692  -0.029  0.00  0.00    +0.001 A 
ATOM      2  C   UNL     1       0.469   1.633   0.129  0.00  0.00    +0.004 A 
ATOM      3  C   UNL     1       1.793   1.245   0.169  0.00  0.00    +0.047 A 
ATOM      4  C   UNL     1       2.123  -0.097   0.051  0.00  0.00    +0.137 A 
ATOM      5  C   UNL     1       1.099  -1.050  -0.105  0.00  0.00    +0.018 A 
ATOM      6  C   UNL     1      -0.238  -0.636  -0.146  0.00  0.00    +0.011 A 
ATOM      7  C   UNL     1       1.448  -2.469  -0.220  0.00  0.00    +0.030 A 
ATOM      8  C   UNL     1       2.749  -2.833   0.101  0.00  0.00    +0.097 A 
ATOM      9  C   UNL     1       3.663  -1.756   0.529  0.00  0.00    +0.212 A 
ATOM     10  N   UNL     1       4.684  -2.007   1.318  0.00  0.00    -0.325 N 
ATOM     11  O   UNL     1       3.417  -0.497   0.083  0.00  0.00    -0.439 OA
ATOM     12  H   UNL     1       4.795  -2.892   1.701  0.00  0.00    +0.169 HD
ENDROOT
BRANCH  10  13
ATOM     13  C   UNL     1       5.591  -1.021   1.599  0.00  0.00    +0.046 A 
ATOM     14  C   UNL     1       6.076  -0.203   0.577  0.00  0.00    +0.029 A 
ATOM     15  C   UNL     1       6.991   0.789   0.864  0.00  0.00    +0.051 A 
ATOM     16  C   UNL     1       7.431   0.979   2.167  0.00  0.00    +0.162 A 
ATOM     17  C   UNL     1       6.950   0.170   3.190  0.00  0.00    +0.164 A 
ATOM     18  C   UNL     1       6.029  -0.826   2.910  0.00  0.00    +0.075 A 
ATOM     19  O   UNL     1       7.366   0.349   4.474  0.00  0.00    -0.485 OA
ATOM     20  C   UNL     1       8.563   1.112   4.662  0.00  0.00    +0.270 C 
ATOM     21  C   UNL     1       8.471   2.372   3.791  0.00  0.00    +0.270 C 
ATOM     22  O   UNL     1       8.337   1.963   2.425  0.00  0.00    -0.485 OA
ENDBRANCH  10  13
BRANCH   8  23
ATOM     23  C   UNL     1       3.197  -4.234   0.019  0.00  0.00    +0.250 C 
ATOM     24  O   UNL     1       4.370  -4.507   0.183  0.00  0.00    -0.270 OA
ATOM     25  N   UNL     1       2.306  -5.212  -0.237  0.00  0.00    -0.304 N 
ATOM     26  H   UNL     1       1.382  -4.989  -0.429  0.00  0.00    +0.149 HD
BRANCH  25  27
ATOM     27  C   UNL     1       2.734  -6.613  -0.227  0.00  0.00    +0.179 C 
BRANCH  27  28
ATOM     28  C   UNL     1       1.557  -7.500  -0.541  0.00  0.00    +0.122 A 
ATOM     29  C   UNL     1       1.181  -7.904  -1.768  0.00  0.00    +0.046 A 
ATOM     30  C   UNL     1       0.036  -8.716  -1.600  0.00  0.00    +0.041 A 
ATOM     31  C   UNL     1      -0.220  -8.760  -0.280  0.00  0.00    +0.195 A 
ATOM     32  O   UNL     1       0.708  -8.027   0.357  0.00  0.00    -0.466 OA
ENDBRANCH  27  28
ENDBRANCH  25  27
ENDBRANCH   8  23
TORSDOF 4
