REMARK  Name = ZINC39992732
REMARK  8 active torsions:
REMARK  status: ('A' for Active; 'I' for Inactive)
REMARK    1  A    between atoms: C_1  and  N_2
REMARK    2  A    between atoms: C_3  and  C_5
REMARK    3  A    between atoms: C_9  and  N_10
REMARK    4  A    between atoms: C_11  and  C_13
REMARK    5  A    between atoms: C_13  and  C_32
REMARK    6  A    between atoms: C_14  and  C_15
REMARK    7  A    between atoms: N_17  and  C_26
REMARK    8  A    between atoms: C_19  and  C_20
REMARK                            x       y       z     vdW  Elec       q    Type
REMARK                         _______ _______ _______ _____ _____    ______ ____
ROOT
ATOM      1  C   UNL     1      -3.494  -2.804   3.624  0.00  0.00    +0.114 C 
ATOM      2  C   UNL     1      -4.491  -3.672   4.021  0.00  0.00    +0.035 C 
ENDROOT
BRANCH   2   3
ATOM      3  C   UNL     1      -5.616  -3.180   4.812  0.00  0.00    +0.022 A 
ATOM      4  C   UNL     1      -5.681  -1.986   5.513  0.00  0.00    +0.123 A 
ATOM      5  N   UNL     1      -6.888  -1.921   6.101  0.00  0.00    -0.239 N 
ATOM      6  N   UNL     1      -7.626  -3.067   5.793  0.00  0.00    -0.166 NA
ATOM      7  C   UNL     1      -6.909  -3.849   5.019  0.00  0.00    +0.100 A 
BRANCH   7   8
ATOM      8  C   UNL     1      -7.323  -5.158   4.463  0.00  0.00    +0.003 A 
ATOM      9  C   UNL     1      -6.891  -5.548   3.195  0.00  0.00    +0.010 A 
ATOM     10  C   UNL     1      -7.280  -6.769   2.683  0.00  0.00    +0.001 A 
ATOM     11  C   UNL     1      -8.096  -7.605   3.423  0.00  0.00    +0.000 A 
ATOM     12  C   UNL     1      -8.528  -7.223   4.681  0.00  0.00    +0.001 A 
ATOM     13  C   UNL     1      -8.140  -6.008   5.207  0.00  0.00    +0.010 A 
ENDBRANCH   7   8
BRANCH   5  14
ATOM     14  C   UNL     1      -7.338  -0.863   6.901  0.00  0.00    +0.065 A 
ATOM     15  C   UNL     1      -6.517   0.232   7.135  0.00  0.00    +0.028 A 
ATOM     16  C   UNL     1      -6.964   1.273   7.924  0.00  0.00    +0.002 A 
ATOM     17  C   UNL     1      -8.228   1.226   8.482  0.00  0.00    +0.000 A 
ATOM     18  C   UNL     1      -9.049   0.137   8.252  0.00  0.00    +0.002 A 
ATOM     19  C   UNL     1      -8.610  -0.905   7.458  0.00  0.00    +0.028 A 
ENDBRANCH   5  14
ENDBRANCH   2   3
BRANCH   1  21
ATOM     20  N   UNL     1      -1.317  -2.474   2.571  0.00  0.00    -0.275 N 
ATOM     21  C   UNL     1      -2.291  -3.321   2.958  0.00  0.00    +0.259 C 
ATOM     22  O   UNL     1      -2.173  -4.516   2.757  0.00  0.00    -0.269 OA
ATOM     23  H   UNL     1      -1.411  -1.522   2.731  0.00  0.00    +0.156 HD
BRANCH  20  28
ATOM     24  C   UNL     1       0.910  -2.245   1.481  0.00  0.00    +0.069 A 
ATOM     25  C   UNL     1       1.984  -3.001   0.859  0.00  0.00    -0.023 A 
ATOM     26  C   UNL     1       1.766  -4.332   0.809  0.00  0.00    -0.004 A 
ATOM     27  S   UNL     1       0.184  -4.557   1.567  0.00  0.00    -0.077 S 
ATOM     28  C   UNL     1      -0.183  -2.962   1.944  0.00  0.00    +0.085 A 
ATOM     29  C   UNL     1       2.676  -5.372   0.233  0.00  0.00    +0.043 C 
ATOM     30  C   UNL     1       3.729  -4.665  -0.634  0.00  0.00    +0.005 C 
ATOM     31  C   UNL     1       4.311  -3.489   0.155  0.00  0.00    +0.005 C 
ATOM     32  C   UNL     1       3.260  -2.387   0.301  0.00  0.00    +0.037 C 
BRANCH  24  35
ATOM     33  C   UNL     1       0.567   1.463   0.781  0.00  0.00    +0.128 C 
ATOM     34  N   UNL     1       0.495   0.006   0.644  0.00  0.00    -0.314 N 
ATOM     35  C   UNL     1       0.982  -0.788   1.618  0.00  0.00    +0.246 C 
ATOM     36  O   UNL     1       1.481  -0.294   2.612  0.00  0.00    -0.270 OA
ATOM     37  H   UNL     1       0.097  -0.388  -0.148  0.00  0.00    +0.149 HD
ENDBRANCH  24  35
ENDBRANCH  20  28
ENDBRANCH   1  21
BRANCH   1  38
ATOM     38  C   UNL     1      -3.633  -1.398   3.861  0.00  0.00    +0.104 C 
ATOM     39  N   UNL     1      -3.743  -0.283   4.048  0.00  0.00    -0.191 NA
ENDBRANCH   1  38
TORSDOF 7
