REMARK  Name = ZINC33897426
REMARK  8 active torsions:
REMARK  status: ('A' for Active; 'I' for Inactive)
REMARK    1  A    between atoms: C_4  and  C_7
REMARK    2  A    between atoms: C_7  and  C_9
REMARK    3  A    between atoms: C_7  and  N_16
REMARK    4  A    between atoms: C_17  and  C_19
REMARK    5  A    between atoms: C_22  and  C_24
REMARK    6  A    between atoms: C_24  and  C_26
REMARK    7  A    between atoms: C_24  and  N_37
REMARK    8  A    between atoms: C_26  and  C_27
REMARK                            x       y       z     vdW  Elec       q    Type
REMARK                         _______ _______ _______ _____ _____    ______ ____
ROOT
ATOM      1  C   UNL     1       3.789  -2.912   3.053  0.00  0.00    +0.163 A 
ATOM      2  C   UNL     1       4.000  -2.924   4.397  0.00  0.00    +0.230 A 
ATOM      3  O   UNL     1       3.824  -4.190   4.809  0.00  0.00    -0.449 OA
ATOM      4  C   UNL     1       3.513  -4.939   3.742  0.00  0.00    +0.182 A 
ATOM      5  N   UNL     1       3.484  -4.185   2.684  0.00  0.00    -0.210 NA
ENDROOT
BRANCH   1   7
ATOM      6  N   UNL     1       3.630  -1.873   0.845  0.00  0.00    -0.299 N 
ATOM      7  C   UNL     1       3.871  -1.738   2.164  0.00  0.00    +0.266 C 
ATOM      8  O   UNL     1       4.155  -0.648   2.622  0.00  0.00    -0.268 OA
ATOM      9  H   UNL     1       3.403  -2.743   0.480  0.00  0.00    +0.150 HD
BRANCH   6  10
ATOM     10  C   UNL     1       3.711  -0.707  -0.038  0.00  0.00    +0.134 C 
BRANCH  10  11
ATOM     11  C   UNL     1       4.014  -1.161  -1.442  0.00  0.00    -0.023 A 
ATOM     12  C   UNL     1       3.407  -2.294  -1.949  0.00  0.00    +0.007 A 
ATOM     13  C   UNL     1       3.684  -2.711  -3.237  0.00  0.00    +0.020 A 
ATOM     14  C   UNL     1       4.571  -1.993  -4.020  0.00  0.00    +0.041 A 
ATOM     15  C   UNL     1       5.179  -0.858  -3.513  0.00  0.00    +0.020 A 
ATOM     16  C   UNL     1       4.896  -0.440  -2.226  0.00  0.00    +0.007 A 
ATOM     17 CL   UNL     1       4.921  -2.516  -5.638  0.00  0.00    -0.084 Cl
ENDBRANCH  10  11
BRANCH  10  21
ATOM     18  C   UNL     1      -0.017   1.378   0.010  0.00  0.00    +0.000 A 
ATOM     19  C   UNL     1       1.171   2.086   0.002  0.00  0.00    +0.000 A 
ATOM     20  C   UNL     1       2.377   1.411  -0.013  0.00  0.00    +0.006 A 
ATOM     21  C   UNL     1       2.396   0.029  -0.020  0.00  0.00    -0.023 A 
ATOM     22  C   UNL     1       1.208  -0.679  -0.012  0.00  0.00    +0.006 A 
ATOM     23  C   UNL     1       0.002  -0.004   0.002  0.00  0.00    +0.000 A 
ENDBRANCH  10  21
ENDBRANCH   6  10
ENDBRANCH   1   7
BRANCH   4  24
ATOM     24  C   UNL     1       3.237  -6.420   3.766  0.00  0.00    +0.017 C 
BRANCH  24  25
ATOM     25  N   UNL     1       4.248  -7.093   4.592  0.00  0.00    +0.386 N 
ATOM     26  H   UNL     1       4.063  -8.085   4.608  0.00  0.00    -0.089 HD
ATOM     27  H   UNL     1       5.164  -6.929   4.202  0.00  0.00    -0.089 HD
ATOM     28  H   UNL     1       4.212  -6.729   5.532  0.00  0.00    -0.089 HD
ENDBRANCH  24  25
BRANCH  24  29
ATOM     29  C   UNL     1       1.848  -6.670   4.357  0.00  0.00    +0.030 C 
BRANCH  29  30
ATOM     30  C   UNL     1       1.521  -8.138   4.269  0.00  0.00    -0.023 A 
ATOM     31  C   UNL     1       0.829  -8.745   3.291  0.00  0.00    +0.087 A 
ATOM     32  N   UNL     1       0.732 -10.085   3.551  0.00  0.00    -0.360 N 
ATOM     33  H   UNL     1       0.278 -10.730   2.987  0.00  0.00    +0.165 HD
ATOM     34  C   UNL     1       1.375 -10.381   4.732  0.00  0.00    +0.047 A 
ATOM     35  C   UNL     1       1.903  -9.175   5.230  0.00  0.00    +0.003 A 
ATOM     36  C   UNL     1       2.620  -9.171   6.428  0.00  0.00    +0.010 A 
ATOM     37  C   UNL     1       2.810 -10.341   7.109  0.00  0.00    +0.001 A 
ATOM     38  C   UNL     1       2.295 -11.533   6.620  0.00  0.00    +0.002 A 
ATOM     39  C   UNL     1       1.576 -11.558   5.444  0.00  0.00    +0.026 A 
ENDBRANCH  29  30
ENDBRANCH  24  29
ENDBRANCH   4  24
TORSDOF 8
