REMARK  Name = ZINC16001703
REMARK  8 active torsions:
REMARK  status: ('A' for Active; 'I' for Inactive)
REMARK    1  A    between atoms: C_1  and  C_2
REMARK    2  A    between atoms: C_7  and  C_8
REMARK    3  A    between atoms: N_25  and  C_28
REMARK    4  A    between atoms: C_29  and  C_35
REMARK    5  A    between atoms: C_30  and  C_34
REMARK    6  A    between atoms: C_31  and  C_33
REMARK    7  A    between atoms: C_35  and  O_37
REMARK    8  A    between atoms: O_37  and  C_38
REMARK                            x       y       z     vdW  Elec       q    Type
REMARK                         _______ _______ _______ _____ _____    ______ ____
ROOT
ATOM      1  C   UNL     1      -0.377   1.352   0.830  0.00  0.00    +0.044 C 
ATOM      2  C   UNL     1      -0.276  -0.139   0.634  0.00  0.00    -0.046 A 
ATOM      3  C   UNL     1      -0.225  -0.663  -0.645  0.00  0.00    +0.004 A 
ATOM      4  C   UNL     1      -0.131  -2.031  -0.823  0.00  0.00    +0.008 A 
ATOM      5  C   UNL     1      -0.087  -2.873   0.266  0.00  0.00    +0.004 A 
ATOM      6  C   UNL     1      -0.140  -2.354   1.558  0.00  0.00    +0.042 A 
ATOM      7  C   UNL     1      -0.230  -0.975   1.729  0.00  0.00    -0.026 A 
ATOM      8  C   UNL     1      -0.282  -0.394   3.119  0.00  0.00    +0.046 C 
ATOM      9  N   UNL     1      -0.085  -3.387   2.497  0.00  0.00    -0.283 N 
ATOM     10  C   UNL     1       0.005  -4.598   1.914  0.00  0.00    +0.243 C 
ATOM     11  O   UNL     1       0.070  -5.670   2.478  0.00  0.00    -0.273 OA
ATOM     12  C   UNL     1       0.012  -4.361   0.428  0.00  0.00    +0.138 C 
ATOM     13  C   UNL     1      -1.107  -5.109  -0.276  0.00  0.00    +0.123 C 
ATOM     14  C   UNL     1      -0.529  -4.982  -1.738  0.00  0.00    +0.107 C 
ATOM     15  C   UNL     1       0.896  -5.328  -1.605  0.00  0.00    +0.071 C 
ATOM     16  N   UNL     1       1.233  -4.914  -0.194  0.00  0.00    -0.281 NA
ATOM     17  C   UNL     1       2.377  -4.013  -0.191  0.00  0.00    +0.086 C 
ATOM     18  C   UNL     1       2.987  -4.063  -1.609  0.00  0.00    +0.017 C 
ATOM     19  C   UNL     1       1.768  -4.431  -2.516  0.00  0.00    +0.021 C 
ATOM     20  C   UNL     1      -1.678  -5.310  -2.546  0.00  0.00    +0.232 C 
ATOM     21  O   UNL     1      -1.695  -5.893  -3.608  0.00  0.00    -0.274 OA
ATOM     22  N   UNL     1      -2.750  -4.815  -1.843  0.00  0.00    -0.203 N 
ATOM     23  C   UNL     1      -2.434  -4.470  -0.545  0.00  0.00    +0.233 C 
ATOM     24  O   UNL     1      -3.084  -3.790   0.220  0.00  0.00    -0.274 OA
ATOM     25  H   UNL     1      -0.109  -3.248   3.456  0.00  0.00    +0.155 HD
ENDROOT
BRANCH  22  26
ATOM     26  C   UNL     1      -4.027  -4.686  -2.378  0.00  0.00    +0.096 A 
ATOM     27  C   UNL     1      -5.072  -5.596  -2.321  0.00  0.00    +0.091 A 
ATOM     28  C   UNL     1      -6.305  -5.206  -2.966  0.00  0.00    -0.025 A 
ATOM     29  C   UNL     1      -6.302  -3.995  -3.554  0.00  0.00    -0.008 A 
ATOM     30  S   UNL     1      -4.660  -3.389  -3.235  0.00  0.00    -0.077 S 
ATOM     31  C   UNL     1      -7.421  -3.315  -4.300  0.00  0.00    +0.052 C 
ATOM     32  C   UNL     1      -7.518  -6.099  -2.980  0.00  0.00    +0.045 C 
BRANCH  27  33
ATOM     33  C   UNL     1      -4.933  -6.887  -1.641  0.00  0.00    +0.342 C 
ATOM     34  O   UNL     1      -5.207  -6.985  -0.460  0.00  0.00    -0.245 OA
BRANCH  33  35
ATOM     35  O   UNL     1      -4.501  -7.966  -2.325  0.00  0.00    -0.464 OA
ATOM     36  C   UNL     1      -4.389  -9.192  -1.600  0.00  0.00    +0.280 C 
ENDBRANCH  33  35
ENDBRANCH  27  33
ENDBRANCH  22  26
TORSDOF 3
