REMARK  Name = ZINC13500101
REMARK  11 active torsions:
REMARK  status: ('A' for Active; 'I' for Inactive)
REMARK    1  A    between atoms: C_1  and  C_2
REMARK    2  A    between atoms: C_2  and  C_3
REMARK    3  A    between atoms: C_3  and  C_4
REMARK    4  A    between atoms: C_4  and  C_6
REMARK    5  A    between atoms: C_4  and  N_69
REMARK    6  A    between atoms: N_10  and  C_11
REMARK    7  A    between atoms: C_11  and  C_12
REMARK    8  A    between atoms: C_18  and  C_19
REMARK    9  A    between atoms: C_18  and  N_69
REMARK   10  A    between atoms: C_25  and  C_31
REMARK   11  A    between atoms: C_32  and  N_69
REMARK                            x       y       z     vdW  Elec       q    Type
REMARK                         _______ _______ _______ _____ _____    ______ ____
ROOT
ATOM      1  N   UNL     1       5.534   2.200  -2.603  0.00  0.00    +0.391 N 
ATOM      2  H   UNL     1       6.234   2.939  -2.464  0.00  0.00    -0.080 HD
ENDROOT
BRANCH   1   3
ATOM      3  C   UNL     1       5.195   2.125  -4.040  0.00  0.00    -0.067 C 
ATOM      4  C   UNL     1       4.593   3.469  -4.498  0.00  0.00    -0.015 C 
ATOM      5  C   UNL     1       3.506   3.066  -5.527  0.00  0.00    -0.002 C 
ATOM      6  C   UNL     1       2.907   1.780  -4.907  0.00  0.00    -0.002 C 
ATOM      7  C   UNL     1       4.124   1.051  -4.300  0.00  0.00    -0.015 C 
ENDBRANCH   1   3
BRANCH   1   8
ATOM      8  C   UNL     1       4.327   2.526  -1.815  0.00  0.00    +0.003 C 
BRANCH   8   9
ATOM      9  C   UNL     1       3.510   1.285  -1.564  0.00  0.00    +0.138 A 
ATOM     10  N   UNL     1       3.967   0.099  -1.246  0.00  0.00    -0.115 NA
ATOM     11  N   UNL     1       2.960  -0.695  -1.122  0.00  0.00    -0.023 NA
ATOM     12  N   UNL     1       1.872  -0.044  -1.347  0.00  0.00    -0.044 NA
ATOM     13  N   UNL     1       2.169   1.181  -1.620  0.00  0.00    -0.226 N 
BRANCH  13  14
ATOM     14  C   UNL     1       1.225   2.255  -1.938  0.00  0.00    +0.182 C 
BRANCH  14  15
ATOM     15  C   UNL     1       0.688   2.846  -0.660  0.00  0.00    -0.026 A 
ATOM     16  C   UNL     1       1.339   3.909  -0.062  0.00  0.00    +0.005 A 
ATOM     17  C   UNL     1       0.846   4.450   1.110  0.00  0.00    +0.000 A 
ATOM     18  C   UNL     1      -0.295   3.926   1.688  0.00  0.00    +0.000 A 
ATOM     19  C   UNL     1      -0.949   2.866   1.088  0.00  0.00    +0.000 A 
ATOM     20  C   UNL     1      -0.456   2.325  -0.085  0.00  0.00    +0.005 A 
ENDBRANCH  14  15
ENDBRANCH  13  14
ENDBRANCH   8   9
BRANCH   8  21
ATOM     21  C   UNL     1       4.764   3.128  -0.478  0.00  0.00    -0.008 C 
BRANCH  21  23
ATOM     22  C   UNL     1       6.147   4.910   0.597  0.00  0.00    +0.004 C 
ATOM     23  C   UNL     1       5.611   4.377  -0.733  0.00  0.00    -0.005 C 
ENDBRANCH  21  23
ENDBRANCH   8  21
ENDBRANCH   1   8
BRANCH   1  24
ATOM     24  C   UNL     1       6.100   0.912  -2.150  0.00  0.00    -0.036 C 
BRANCH  24  25
ATOM     25  C   UNL     1       7.515   0.800  -2.658  0.00  0.00    +0.001 A 
ATOM     26  C   UNL     1       8.547   1.204  -1.877  0.00  0.00    +0.017 A 
ATOM     27  C   UNL     1       9.909   1.082  -2.400  0.00  0.00    -0.001 A 
ATOM     28  C   UNL     1      11.014   1.482  -1.641  0.00  0.00    +0.010 A 
ATOM     29  C   UNL     1      12.272   1.355  -2.158  0.00  0.00    +0.001 A 
ATOM     30  C   UNL     1      12.464   0.832  -3.429  0.00  0.00    +0.005 A 
ATOM     31  C   UNL     1      11.390   0.431  -4.195  0.00  0.00    -0.026 A 
ATOM     32  C   UNL     1      10.100   0.551  -3.689  0.00  0.00    +0.052 A 
ATOM     33  N   UNL     1       9.007   0.158  -4.433  0.00  0.00    -0.322 N 
ATOM     34  H   UNL     1       9.140  -0.208  -5.321  0.00  0.00    +0.169 HD
ATOM     35  C   UNL     1       7.760   0.269  -3.942  0.00  0.00    +0.251 A 
ATOM     36  O   UNL     1       6.818  -0.093  -4.625  0.00  0.00    -0.268 OA
ATOM     37  C   UNL     1      11.613  -0.134  -5.574  0.00  0.00    +0.046 C 
ENDBRANCH  24  25
ENDBRANCH   1  24
TORSDOF 9
