REMARK  Name = ZINC19853697
REMARK  6 active torsions:
REMARK  status: ('A' for Active; 'I' for Inactive)
REMARK    1  A    between atoms: C_1  and  C_2
REMARK    2  A    between atoms: N_5  and  C_11
REMARK    3  A    between atoms: C_7  and  C_10
REMARK    4  A    between atoms: C_11  and  C_12
REMARK    5  A    between atoms: N_19  and  C_23
REMARK    6  A    between atoms: C_23  and  C_24
REMARK                            x       y       z     vdW  Elec       q    Type
REMARK                         _______ _______ _______ _____ _____    ______ ____
ROOT
ATOM      1  C   UNL     1       2.380   1.405  -0.013  0.00  0.00    -0.033 A 
ATOM      2  C   UNL     1       1.175   2.083   0.002  0.00  0.00    +0.008 A 
ATOM      3  C   UNL     1      -0.017   1.383   0.010  0.00  0.00    +0.046 A 
ATOM      4  C   UNL     1       0.002  -0.004   0.002  0.00  0.00    +0.122 A 
ATOM      5  C   UNL     1       1.208  -0.678   0.003  0.00  0.00    -0.022 A 
ATOM      6  C   UNL     1       2.398   0.021  -0.013  0.00  0.00    +0.010 A 
ATOM      7  C   UNL     1       1.217  -2.193   0.048  0.00  0.00    -0.039 C 
ATOM      8  N   UNL     1       0.696  -2.706  -1.224  0.00  0.00    +0.388 N 
ATOM      9  C   UNL     1      -0.763  -2.765  -1.249  0.00  0.00    -0.036 C 
ATOM     10  C   UNL     1      -1.424  -1.404  -1.256  0.00  0.00    +0.210 C 
ATOM     11  O   UNL     1      -1.165  -0.705  -0.032  0.00  0.00    -0.494 OA
ATOM     12  H   UNL     1       0.993  -1.989  -2.004  0.00  0.00    -0.081 HD
ENDROOT
BRANCH   1  13
ATOM     13  C   UNL     1       3.676   2.174  -0.030  0.00  0.00    +0.119 C 
BRANCH  13  17
ATOM     14  C   UNL     1       6.772   4.566  -3.016  0.00  0.00    +0.039 C 
ATOM     15  C   UNL     1       5.552   3.645  -2.946  0.00  0.00    +0.130 C 
ATOM     16  C   UNL     1       5.204   3.369  -1.481  0.00  0.00    +0.116 C 
ATOM     17  N   UNL     1       4.079   2.423  -1.421  0.00  0.00    -0.293 NA
ATOM     18  C   UNL     1       4.417   1.167  -2.104  0.00  0.00    +0.116 C 
ATOM     19  C   UNL     1       4.773   1.466  -3.563  0.00  0.00    +0.130 C 
ATOM     20  O   UNL     1       5.847   2.409  -3.603  0.00  0.00    -0.371 OA
ATOM     21  C   UNL     1       5.203   0.173  -4.260  0.00  0.00    +0.039 C 
ENDBRANCH  13  17
ENDBRANCH   1  13
BRANCH   8  22
ATOM     22  C   UNL     1       1.281  -4.015  -1.543  0.00  0.00    -0.023 C 
BRANCH  22  23
ATOM     23  C   UNL     1       0.552  -4.620  -2.715  0.00  0.00    +0.009 A 
ATOM     24  C   UNL     1       0.925  -4.536  -4.007  0.00  0.00    +0.021 A 
ATOM     25  C   UNL     1      -0.031  -5.237  -4.771  0.00  0.00    +0.020 A 
ATOM     26  C   UNL     1      -0.953  -5.724  -3.917  0.00  0.00    +0.093 A 
ATOM     27  N   UNL     1      -0.599  -5.354  -2.650  0.00  0.00    -0.307 N 
ATOM     28  C   UNL     1      -1.300  -5.670  -1.482  0.00  0.00    +0.138 A 
ATOM     29  C   UNL     1      -2.466  -6.422  -1.561  0.00  0.00    +0.048 A 
ATOM     30  C   UNL     1      -3.147  -6.733  -0.398  0.00  0.00    +0.025 A 
ATOM     31  C   UNL     1      -2.643  -6.268   0.810  0.00  0.00    +0.059 A 
ATOM     32  C   UNL     1      -1.480  -5.520   0.813  0.00  0.00    +0.133 A 
ATOM     33  N   UNL     1      -0.850  -5.245  -0.313  0.00  0.00    -0.236 NA
ATOM     34 CL   UNL     1      -3.462  -6.623   2.299  0.00  0.00    -0.082 Cl
ENDBRANCH  22  23
ENDBRANCH   8  22
TORSDOF 4
