REMARK  Name = ZINC37193505
REMARK  6 active torsions:
REMARK  status: ('A' for Active; 'I' for Inactive)
REMARK    1  A    between atoms: C_1  and  C_2
REMARK    2  A    between atoms: C_4  and  N_21
REMARK    3  A    between atoms: C_7  and  S_8
REMARK    4  A    between atoms: S_8  and  C_9
REMARK    5  A    between atoms: C_9  and  C_10
REMARK    6  A    between atoms: C_18  and  N_20
REMARK                            x       y       z     vdW  Elec       q    Type
REMARK                         _______ _______ _______ _____ _____    ______ ____
ROOT
ATOM      1  C   UNL     1       0.061  -0.526   5.359  0.00  0.00    +0.142 A 
ATOM      2  N   UNL     1       1.216  -0.249   5.917  0.00  0.00    -0.231 NA
ATOM      3  C   UNL     1       1.266   0.302   7.138  0.00  0.00    +0.076 A 
ATOM      4  C   UNL     1       2.481   0.611   7.764  0.00  0.00    +0.028 A 
ATOM      5  C   UNL     1       2.475   1.171   9.007  0.00  0.00    +0.002 A 
ATOM      6  C   UNL     1       1.279   1.440   9.667  0.00  0.00    +0.001 A 
ATOM      7  C   UNL     1       0.079   1.151   9.087  0.00  0.00    +0.013 A 
ATOM      8  C   UNL     1       0.050   0.577   7.811  0.00  0.00    +0.040 A 
ATOM      9  C   UNL     1      -1.164   0.255   7.157  0.00  0.00    +0.127 A 
ATOM     10  N   UNL     1      -1.100  -0.283   5.946  0.00  0.00    -0.216 NA
ENDROOT
BRANCH   9  11
ATOM     11  N   UNL     1      -2.379   0.499   7.760  0.00  0.00    -0.343 N 
ATOM     12  H   UNL     1      -2.411   0.896   8.645  0.00  0.00    +0.144 HD
ATOM     13  H   UNL     1      -3.203   0.273   7.300  0.00  0.00    +0.144 HD
ENDBRANCH   9  11
BRANCH   1  14
ATOM     14  C   UNL     1       0.056  -1.144   3.985  0.00  0.00    +0.150 C 
BRANCH  14  15
ATOM     15  S   UNL     1       0.026   0.168   2.732  0.00  0.00    -0.117 S 
BRANCH  15  22
ATOM     16  C   UNL     1      -0.018   1.503   0.010  0.00  0.00    +0.045 C 
ATOM     17  C   UNL     1       0.002  -0.004   0.002  0.00  0.00    -0.035 A 
ATOM     18  C   UNL     1       0.006  -0.688  -1.198  0.00  0.00    +0.027 A 
ATOM     19  C   UNL     1       0.024  -2.076  -1.205  0.00  0.00    +0.025 A 
ATOM     20  C   UNL     1       0.039  -2.778  -0.006  0.00  0.00    +0.024 A 
ATOM     21  C   UNL     1       0.035  -2.094   1.193  0.00  0.00    +0.017 A 
ATOM     22  C   UNL     1       0.023  -0.705   1.201  0.00  0.00    +0.011 A 
BRANCH  19  23
ATOM     23  N   UNL     1       0.027  -2.770  -2.422  0.00  0.00    -0.358 N 
ATOM     24  H   UNL     1       0.017  -2.280  -3.259  0.00  0.00    +0.142 HD
ATOM     25  H   UNL     1       0.040  -3.740  -2.427  0.00  0.00    +0.142 HD
ENDBRANCH  19  23
ENDBRANCH  15  22
ENDBRANCH  14  15
ENDBRANCH   1  14
TORSDOF 5
