REMARK  Name = ZINC63375399
REMARK  4 active torsions:
REMARK  status: ('A' for Active; 'I' for Inactive)
REMARK    1  A    between atoms: C_1  and  C_2
REMARK    2  A    between atoms: N_20  and  C_23
REMARK    3  A    between atoms: C_28  and  C_29
REMARK    4  A    between atoms: N_31  and  C_32
REMARK                            x       y       z     vdW  Elec       q    Type
REMARK                         _______ _______ _______ _____ _____    ______ ____
ROOT
ATOM      1  C   UNL     1      -0.019   1.526   0.010  0.00  0.00    +0.030 C 
ATOM      2  C   UNL     1       0.002  -0.004   0.002  0.00  0.00    +0.102 C 
ATOM      3  C   UNL     1      -1.433  -0.548   0.044  0.00  0.00    +0.126 C 
ATOM      4  C   UNL     1      -1.951  -0.332   1.459  0.00  0.00    -0.035 C 
ATOM      5  C   UNL     1      -3.061   0.391   1.345  0.00  0.00    -0.001 A 
ATOM      6  C   UNL     1      -4.031   0.860   2.347  0.00  0.00    +0.010 A 
ATOM      7  C   UNL     1      -5.069   1.600   1.877  0.00  0.00    +0.001 A 
ATOM      8  C   UNL     1      -5.237   1.917   0.525  0.00  0.00    +0.002 A 
ATOM      9  C   UNL     1      -4.396   1.526  -0.465  0.00  0.00    +0.026 A 
ATOM     10  C   UNL     1      -3.268   0.737  -0.094  0.00  0.00    +0.043 A 
ATOM     11  N   UNL     1      -2.318   0.209  -0.844  0.00  0.00    -0.376 N 
ATOM     12  C   UNL     1      -1.227  -0.823   2.691  0.00  0.00    +0.065 C 
ATOM     13  C   UNL     1       0.215  -0.296   2.590  0.00  0.00    +0.169 C 
ATOM     14  N   UNL     1       0.685  -0.503   1.203  0.00  0.00    -0.268 N 
ATOM     15  C   UNL     1       1.804  -1.234   1.276  0.00  0.00    +0.317 C 
ATOM     16  O   UNL     1       2.512  -1.487   0.321  0.00  0.00    -0.252 OA
ATOM     17  N   UNL     1       2.054  -1.654   2.524  0.00  0.00    -0.192 N 
ATOM     18  C   UNL     1       1.139  -1.159   3.422  0.00  0.00    +0.248 C 
ATOM     19  O   UNL     1       1.072  -1.363   4.615  0.00  0.00    -0.273 OA
ATOM     20  H   UNL     1      -2.213   0.303  -1.804  0.00  0.00    +0.160 HD
ENDROOT
BRANCH  17  21
ATOM     21  C   UNL     1       3.119  -2.487   2.873  0.00  0.00    +0.058 A 
ATOM     22  C   UNL     1       4.340  -1.939   3.240  0.00  0.00    +0.025 A 
ATOM     23  C   UNL     1       5.392  -2.764   3.585  0.00  0.00    +0.002 A 
ATOM     24  C   UNL     1       5.238  -4.140   3.569  0.00  0.00    +0.001 A 
ATOM     25  C   UNL     1       4.033  -4.701   3.208  0.00  0.00    +0.015 A 
ATOM     26  C   UNL     1       2.958  -3.879   2.861  0.00  0.00    +0.059 A 
BRANCH  26  27
ATOM     27  C   UNL     1       1.662  -4.473   2.479  0.00  0.00    +0.246 C 
ATOM     28  O   UNL     1       0.731  -3.755   2.173  0.00  0.00    -0.270 OA
ATOM     29  N   UNL     1       1.512  -5.813   2.469  0.00  0.00    -0.308 N 
ATOM     30  H   UNL     1       2.255  -6.386   2.713  0.00  0.00    +0.149 HD
BRANCH  29  31
ATOM     31  C   UNL     1       0.226  -6.402   2.089  0.00  0.00    +0.073 C 
ATOM     32  C   UNL     1      -0.692  -6.456   3.312  0.00  0.00    +0.022 C 
ATOM     33  C   UNL     1      -2.035  -7.072   2.916  0.00  0.00    +0.002 C 
ATOM     34  C   UNL     1      -1.810  -8.489   2.386  0.00  0.00    +0.000 C 
ATOM     35  C   UNL     1      -0.892  -8.435   1.162  0.00  0.00    +0.002 C 
ATOM     36  C   UNL     1       0.451  -7.820   1.559  0.00  0.00    +0.022 C 
ENDBRANCH  29  31
ENDBRANCH  26  27
ENDBRANCH  17  21
TORSDOF 3
