REMARK  Name = ZINC03584854
REMARK  2 active torsions:
REMARK  status: ('A' for Active; 'I' for Inactive)
REMARK    1  A    between atoms: C_3  and  C_8
REMARK    2  A    between atoms: C_10  and  C_13
REMARK                            x       y       z     vdW  Elec       q    Type
REMARK                         _______ _______ _______ _____ _____    ______ ____
ROOT
ATOM      1  C   UNL     1       0.002  -0.004   0.002  0.00  0.00    +0.259 A 
ATOM      2  N   UNL     1      -1.047  -0.805   0.013  0.00  0.00    -0.187 NA
ATOM      3  C   UNL     1      -0.545  -2.057  -0.003  0.00  0.00    +0.202 A 
ATOM      4  N   UNL     1       0.759  -1.955  -0.015  0.00  0.00    -0.056 NA
ATOM      5  O   UNL     1       1.091  -0.789  -0.012  0.00  0.00    -0.332 OA
ENDROOT
BRANCH   1   8
ATOM      6  C   UNL     1      -1.246   3.538   0.032  0.00  0.00    +0.002 A 
ATOM      7  C   UNL     1      -1.234   2.158   0.020  0.00  0.00    +0.013 A 
ATOM      8  C   UNL     1      -0.018   1.474   0.010  0.00  0.00    +0.040 A 
ATOM      9  C   UNL     1       1.179   2.191   0.003  0.00  0.00    +0.028 A 
ATOM     10  C   UNL     1       1.154   3.571   0.010  0.00  0.00    +0.019 A 
ATOM     11  C   UNL     1      -0.057   4.244   0.024  0.00  0.00    +0.015 A 
ATOM     12 BR   UNL     1       2.774   4.546  -0.001  0.00  0.00    -0.050 Br
ENDBRANCH   1   8
BRANCH   3  13
ATOM     13  C   UNL     1      -1.329  -3.318  -0.002  0.00  0.00    +0.023 A 
ATOM     14  C   UNL     1      -2.721  -3.276   0.017  0.00  0.00    +0.013 A 
ATOM     15  C   UNL     1      -3.445  -4.451   0.012  0.00  0.00    +0.016 A 
ATOM     16  C   UNL     1      -2.790  -5.670  -0.001  0.00  0.00    +0.018 A 
ATOM     17  C   UNL     1      -1.406  -5.717  -0.014  0.00  0.00    +0.016 A 
ATOM     18  C   UNL     1      -0.674  -4.548  -0.015  0.00  0.00    +0.013 A 
ATOM     19 BR   UNL     1      -3.788  -7.276  -0.001  0.00  0.00    -0.050 Br
ENDBRANCH   3  13
TORSDOF 2
