REMARK  Name = ZINC04624688
REMARK  10 active torsions:
REMARK  status: ('A' for Active; 'I' for Inactive)
REMARK    1  A    between atoms: C_1  and  C_2
REMARK    2  A    between atoms: C_2  and  O_3
REMARK    3  A    between atoms: O_3  and  C_4
REMARK    4  A    between atoms: C_4  and  C_6
REMARK    5  A    between atoms: C_7  and  C_22
REMARK    6  A    between atoms: C_12  and  C_14
REMARK    7  A    between atoms: C_17  and  O_20
REMARK    8  A    between atoms: O_20  and  C_21
REMARK    9  A    between atoms: C_22  and  N_57
REMARK   10  A    between atoms: C_25  and  C_28
REMARK                            x       y       z     vdW  Elec       q    Type
REMARK                         _______ _______ _______ _____ _____    ______ ____
ROOT
ATOM      1  C   UNL     1      -0.623   1.797   1.401  0.00  0.00    +0.076 C 
ATOM      2  C   UNL     1      -1.821   2.379   1.178  0.00  0.00    +0.008 C 
ATOM      3  N   UNL     1      -2.323   2.499  -0.086  0.00  0.00    -0.274 N 
ATOM      4  C   UNL     1      -1.688   2.063  -1.181  0.00  0.00    +0.304 C 
ATOM      5  O   UNL     1      -2.214   2.215  -2.266  0.00  0.00    -0.252 OA
ATOM      6  N   UNL     1      -0.484   1.460  -1.120  0.00  0.00    -0.288 N 
ATOM      7  C   UNL     1       0.144   1.282   0.200  0.00  0.00    +0.143 C 
ATOM      8  H   UNL     1      -3.188   2.924  -0.198  0.00  0.00    +0.156 HD
ATOM      9  H   UNL     1      -0.042   1.152  -1.926  0.00  0.00    +0.151 HD
ENDROOT
BRANCH   7  10
ATOM     10  C   UNL     1       1.483   1.973   0.174  0.00  0.00    -0.022 A 
ATOM     11  C   UNL     1       1.603   3.225  -0.402  0.00  0.00    +0.009 A 
ATOM     12  C   UNL     1       2.828   3.863  -0.422  0.00  0.00    +0.046 A 
ATOM     13  C   UNL     1       3.942   3.241   0.125  0.00  0.00    +0.120 A 
ATOM     14  C   UNL     1       3.820   1.983   0.697  0.00  0.00    +0.046 A 
ATOM     15  C   UNL     1       2.591   1.352   0.720  0.00  0.00    +0.009 A 
BRANCH  13  16
ATOM     16  O   UNL     1       5.149   3.864   0.101  0.00  0.00    -0.495 OA
ATOM     17  C   UNL     1       5.200   5.158  -0.504  0.00  0.00    +0.277 C 
ENDBRANCH  13  16
ENDBRANCH   7  10
BRANCH   1  18
ATOM     18  C   UNL     1      -0.103   1.672   2.710  0.00  0.00    +0.339 C 
ATOM     19  O   UNL     1      -0.675   2.200   3.645  0.00  0.00    -0.245 OA
BRANCH  18  20
ATOM     20  O   UNL     1       1.029   0.968   2.922  0.00  0.00    -0.462 OA
BRANCH  20  22
ATOM     21  C   UNL     1       2.781   0.052   4.311  0.00  0.00    +0.048 C 
ATOM     22  C   UNL     1       1.498   0.883   4.269  0.00  0.00    +0.229 C 
ENDBRANCH  20  22
ENDBRANCH  18  20
ENDBRANCH   1  18
BRANCH   2  23
ATOM     23  C   UNL     1      -2.618   2.905   2.344  0.00  0.00    -0.026 C 
BRANCH  23  30
ATOM     24  C   UNL     1      -2.169   5.120   1.478  0.00  0.00    -0.078 C 
ATOM     25  C   UNL     1      -1.559   6.481   1.824  0.00  0.00    -0.016 C 
ATOM     26  C   UNL     1      -2.377   7.132   2.942  0.00  0.00    -0.018 C 
ATOM     27  C   UNL     1      -2.401   6.199   4.156  0.00  0.00    -0.016 C 
ATOM     28  C   UNL     1      -2.986   4.846   3.743  0.00  0.00    -0.078 C 
ATOM     29  C   UNL     1      -1.738   8.465   3.335  0.00  0.00    +0.007 C 
ATOM     30  N   UNL     1      -2.140   4.262   2.681  0.00  0.00    +0.383 N 
ATOM     31  H   UNL     1      -1.173   4.199   3.022  0.00  0.00    -0.081 HD
ENDBRANCH  23  30
ENDBRANCH   2  23
TORSDOF 7
