REMARK  Name = ZINC16043994
REMARK  10 active torsions:
REMARK  status: ('A' for Active; 'I' for Inactive)
REMARK    1  A    between atoms: C_1  and  S_2
REMARK    2  A    between atoms: S_2  and  C_3
REMARK    3  A    between atoms: C_3  and  C_4
REMARK    4  A    between atoms: C_4  and  C_5
REMARK    5  A    between atoms: C_5  and  C_7
REMARK    6  A    between atoms: C_5  and  N_24
REMARK    7  A    between atoms: C_13  and  S_15
REMARK    8  A    between atoms: S_15  and  C_16
REMARK    9  A    between atoms: C_16  and  C_17
REMARK   10  A    between atoms: C_25  and  C_27
REMARK                            x       y       z     vdW  Elec       q    Type
REMARK                         _______ _______ _______ _____ _____    ______ ____
ROOT
ATOM      1  C   UNL     1       1.178  -0.662  -0.012  0.00  0.00    +0.239 C 
ATOM      2  O   UNL     1       2.220  -0.041  -0.018  0.00  0.00    -0.273 OA
ATOM      3  N   UNL     1       0.002  -0.004   0.002  0.00  0.00    -0.262 N 
ATOM      4  C   UNL     1      -0.017   1.389   0.010  0.00  0.00    +0.189 A 
ATOM      5  N   UNL     1       0.985   2.252   0.005  0.00  0.00    -0.125 NA
ATOM      6  N   UNL     1       0.793   3.499   0.013  0.00  0.00    -0.133 NA
ATOM      7  C   UNL     1      -0.425   4.020   0.026  0.00  0.00    +0.160 A 
ATOM      8  S   UNL     1      -1.404   2.521   0.021  0.00  0.00    -0.024 S 
ATOM      9  H   UNL     1      -0.831  -0.500   0.007  0.00  0.00    +0.157 HD
ENDROOT
BRANCH   1  10
ATOM     10  C   UNL     1       1.199  -2.169  -0.021  0.00  0.00    +0.160 C 
BRANCH  10  11
ATOM     11  N   UNL     1       2.586  -2.638  -0.036  0.00  0.00    -0.300 N 
ATOM     12  C   UNL     1       2.881  -3.854  -0.538  0.00  0.00    +0.246 C 
ATOM     13  O   UNL     1       1.996  -4.560  -0.979  0.00  0.00    -0.270 OA
ATOM     14  H   UNL     1       3.293  -2.075   0.316  0.00  0.00    +0.150 HD
BRANCH  12  15
ATOM     15  C   UNL     1       4.281  -4.327  -0.553  0.00  0.00    +0.055 A 
ATOM     16  C   UNL     1       5.301  -3.516  -0.053  0.00  0.00    +0.014 A 
ATOM     17  C   UNL     1       6.605  -3.966  -0.065  0.00  0.00    +0.001 A 
ATOM     18  C   UNL     1       6.905  -5.215  -0.582  0.00  0.00    +0.001 A 
ATOM     19  C   UNL     1       5.901  -6.022  -1.084  0.00  0.00    +0.021 A 
ATOM     20  C   UNL     1       4.590  -5.586  -1.074  0.00  0.00    +0.053 A 
ATOM     21 CL   UNL     1       3.330  -6.600  -1.705  0.00  0.00    -0.083 Cl
ENDBRANCH  12  15
ENDBRANCH  10  11
BRANCH  10  22
ATOM     22  C   UNL     1       0.496  -2.695   1.232  0.00  0.00    +0.042 C 
BRANCH  22  23
ATOM     23  C   UNL     1       0.406  -4.221   1.164  0.00  0.00    +0.071 C 
BRANCH  23  25
ATOM     24  C   UNL     1      -0.452  -6.644   2.415  0.00  0.00    +0.084 C 
ATOM     25  S   UNL     1      -0.427  -4.845   2.649  0.00  0.00    -0.164 S 
ENDBRANCH  23  25
ENDBRANCH  22  23
ENDBRANCH  10  22
ENDBRANCH   1  10
BRANCH   7  26
ATOM     26  S   UNL     1      -0.936   5.706   0.039  0.00  0.00    -0.092 S 
BRANCH  26  27
ATOM     27  C   UNL     1       0.621   6.637   0.029  0.00  0.00    +0.111 C 
BRANCH  27  28
ATOM     28  C   UNL     1       0.324   8.114   0.039  0.00  0.00    -0.037 A 
ATOM     29  C   UNL     1       0.182   8.798  -1.154  0.00  0.00    +0.007 A 
ATOM     30  C   UNL     1      -0.095  10.152  -1.147  0.00  0.00    +0.038 A 
ATOM     31  C   UNL     1      -0.222  10.825   0.056  0.00  0.00    +0.123 A 
ATOM     32  C   UNL     1      -0.075  10.140   1.251  0.00  0.00    +0.038 A 
ATOM     33  C   UNL     1       0.198   8.786   1.241  0.00  0.00    +0.007 A 
ATOM     34  F   UNL     1      -0.488  12.150   0.065  0.00  0.00    -0.205 F 
ENDBRANCH  27  28
ENDBRANCH  26  27
ENDBRANCH   7  26
TORSDOF 9
