REMARK  Name = ZINC02836915
REMARK  7 active torsions:
REMARK  status: ('A' for Active; 'I' for Inactive)
REMARK    1  A    between atoms: C_1  and  C_2
REMARK    2  A    between atoms: C_5  and  S_8
REMARK    3  A    between atoms: S_8  and  N_11
REMARK    4  A    between atoms: N_11  and  C_12
REMARK    5  A    between atoms: C_24  and  S_26
REMARK    6  A    between atoms: S_26  and  C_27
REMARK    7  A    between atoms: N_31  and  C_32
REMARK                            x       y       z     vdW  Elec       q    Type
REMARK                         _______ _______ _______ _____ _____    ______ ____
ROOT
ATOM      1  C   UNL     1       2.858   6.813  -2.603  0.00  0.00    +0.125 C 
ATOM      2  C   UNL     1       3.494   7.053  -3.950  0.00  0.00    -0.019 A 
ATOM      3  C   UNL     1       3.229   7.878  -5.000  0.00  0.00    +0.006 A 
ATOM      4  C   UNL     1       4.037   7.855  -6.138  0.00  0.00    +0.001 A 
ATOM      5  C   UNL     1       5.112   7.021  -6.253  0.00  0.00    +0.008 A 
ATOM      6  C   UNL     1       5.415   6.157  -5.189  0.00  0.00    -0.017 A 
ATOM      7  C   UNL     1       4.587   6.198  -4.053  0.00  0.00    -0.009 A 
ATOM      8  C   UNL     1       4.795   5.386  -2.940  0.00  0.00    -0.024 A 
ATOM      9  C   UNL     1       5.845   4.523  -2.969  0.00  0.00    +0.005 A 
ATOM     10  C   UNL     1       6.681   4.464  -4.086  0.00  0.00    +0.001 A 
ATOM     11  C   UNL     1       6.491   5.253  -5.183  0.00  0.00    +0.008 A 
ATOM     12  C   UNL     1       3.715   5.713  -1.938  0.00  0.00    +0.108 C 
ENDROOT
BRANCH   1  13
ATOM     13  N   UNL     1       2.889   8.037  -1.799  0.00  0.00    -0.181 NA
ATOM     14  H   UNL     1       3.697   8.284  -1.323  0.00  0.00    +0.149 HD
BRANCH  13  15
ATOM     15  S   UNL     1       1.544   8.998  -1.702  0.00  0.00    +0.059 S 
ATOM     16  O   UNL     1       1.877  10.077  -0.840  0.00  0.00    -0.153 OA
ATOM     17  O   UNL     1       1.092   9.199  -3.034  0.00  0.00    -0.153 OA
BRANCH  15  22
ATOM     18  C   UNL     1      -2.735   5.804   1.107  0.00  0.00    +0.044 C 
ATOM     19  C   UNL     1      -1.666   6.602   0.405  0.00  0.00    -0.050 A 
ATOM     20  C   UNL     1      -0.799   7.390   1.138  0.00  0.00    +0.005 A 
ATOM     21  C   UNL     1       0.182   8.121   0.495  0.00  0.00    +0.029 A 
ATOM     22  C   UNL     1       0.295   8.065  -0.882  0.00  0.00    +0.105 A 
ATOM     23  C   UNL     1      -0.577   7.282  -1.615  0.00  0.00    +0.029 A 
ATOM     24  C   UNL     1      -1.554   6.546  -0.971  0.00  0.00    +0.005 A 
ENDBRANCH  15  22
ENDBRANCH  13  15
ENDBRANCH   1  13
BRANCH  12  25
ATOM     25  S   UNL     1       2.706   4.249  -1.602  0.00  0.00    -0.074 S 
BRANCH  25  26
ATOM     26  C   UNL     1       3.809   3.348  -0.565  0.00  0.00    +0.215 A 
ATOM     27  N   UNL     1       4.972   3.764  -0.112  0.00  0.00    -0.101 NA
ATOM     28  N   UNL     1       5.523   2.858   0.613  0.00  0.00    -0.022 NA
ATOM     29  N   UNL     1       4.768   1.816   0.681  0.00  0.00    -0.038 NA
ATOM     30  N   UNL     1       3.620   2.095  -0.081  0.00  0.00    -0.187 N 
BRANCH  30  31
ATOM     31  C   UNL     1       2.518   1.255  -0.298  0.00  0.00    +0.070 A 
ATOM     32  C   UNL     1       1.242   1.794  -0.401  0.00  0.00    +0.028 A 
ATOM     33  C   UNL     1       0.159   0.965  -0.614  0.00  0.00    +0.002 A 
ATOM     34  C   UNL     1       0.343  -0.401  -0.726  0.00  0.00    +0.000 A 
ATOM     35  C   UNL     1       1.612  -0.941  -0.624  0.00  0.00    +0.002 A 
ATOM     36  C   UNL     1       2.699  -0.116  -0.410  0.00  0.00    +0.028 A 
ENDBRANCH  30  31
ENDBRANCH  25  26
ENDBRANCH  12  25
TORSDOF 6
