REMARK  Name = ZINC64006950
REMARK  10 active torsions:
REMARK  status: ('A' for Active; 'I' for Inactive)
REMARK    1  A    between atoms: C_1  and  N_2
REMARK    2  A    between atoms: C_3  and  C_5
REMARK    3  A    between atoms: N_7  and  C_26
REMARK    4  A    between atoms: C_9  and  C_12
REMARK    5  A    between atoms: N_14  and  C_15
REMARK    6  A    between atoms: C_15  and  C_16
REMARK    7  A    between atoms: C_16  and  C_17
REMARK    8  A    between atoms: C_26  and  C_27
REMARK    9  A    between atoms: C_27  and  C_28
REMARK   10  A    between atoms: C_28  and  C_29
REMARK                            x       y       z     vdW  Elec       q    Type
REMARK                         _______ _______ _______ _____ _____    ______ ____
ROOT
ATOM      1  C   UNL     1       0.710  -2.132  -0.969  0.00  0.00    +0.100 A 
ATOM      2  C   UNL     1       1.385  -2.817  -1.956  0.00  0.00    +0.102 A 
ATOM      3  N   UNL     1       1.489  -4.156  -1.932  0.00  0.00    -0.352 N 
ATOM      4  C   UNL     1       0.957  -4.921  -0.966  0.00  0.00    +0.102 A 
ATOM      5  C   UNL     1       0.255  -4.368   0.083  0.00  0.00    +0.100 A 
ATOM      6  C   UNL     1       0.104  -2.904   0.129  0.00  0.00    +0.206 A 
ATOM      7  O   UNL     1      -0.501  -2.355   1.034  0.00  0.00    -0.286 OA
ENDROOT
BRANCH   1  10
ATOM      8  C   UNL     1       0.032   1.464   0.036  0.00  0.00    +0.128 C 
ATOM      9  N   UNL     1       0.038  -0.001   0.022  0.00  0.00    -0.314 N 
ATOM     10  C   UNL     1       0.603  -0.663  -1.007  0.00  0.00    +0.249 C 
ATOM     11  O   UNL     1       1.025  -0.048  -1.968  0.00  0.00    -0.270 OA
ATOM     12  H   UNL     1      -0.365  -0.495   0.753  0.00  0.00    +0.149 HD
ENDBRANCH   1  10
BRANCH   5  13
ATOM     13  C   UNL     1      -0.325  -5.220   1.136  0.00  0.00    +0.249 C 
ATOM     14  O   UNL     1      -0.101  -6.415   1.143  0.00  0.00    -0.270 OA
ATOM     15  N   UNL     1      -1.104  -4.675   2.091  0.00  0.00    -0.311 N 
ATOM     16  H   UNL     1      -1.223  -3.713   2.129  0.00  0.00    +0.149 HD
BRANCH  15  17
ATOM     17  C   UNL     1      -1.771  -5.535   3.072  0.00  0.00    +0.108 C 
BRANCH  17  18
ATOM     18  C   UNL     1      -2.586  -4.671   4.037  0.00  0.00    +0.065 C 
BRANCH  18  19
ATOM     19  C   UNL     1      -3.283  -5.569   5.061  0.00  0.00    +0.175 C 
ATOM     20  N   UNL     1      -2.289  -6.185   5.949  0.00  0.00    -0.363 N 
ATOM     21  C   UNL     1      -2.554  -5.795   7.162  0.00  0.00    +0.060 A 
ATOM     22  C   UNL     1      -1.923  -6.071   8.460  0.00  0.00    +0.027 A 
ATOM     23  C   UNL     1      -2.429  -5.512   9.578  0.00  0.00    +0.002 A 
ATOM     24  C   UNL     1      -3.551  -4.663   9.560  0.00  0.00    +0.002 A 
ATOM     25  C   UNL     1      -4.203  -4.345   8.424  0.00  0.00    +0.027 A 
ATOM     26  C   UNL     1      -3.740  -4.896   7.143  0.00  0.00    +0.060 A 
ATOM     27  N   UNL     1      -4.163  -4.766   5.919  0.00  0.00    -0.363 N 
ATOM     28  H   UNL     1      -1.567  -6.776   5.681  0.00  0.00    +0.162 HD
ATOM     29  H   UNL     1      -4.921  -4.236   5.627  0.00  0.00    +0.162 HD
ENDBRANCH  18  19
ENDBRANCH  17  18
ENDBRANCH  15  17
ENDBRANCH   5  13
BRANCH   3  30
ATOM     30  C   UNL     1       2.221  -4.815  -3.017  0.00  0.00    +0.121 C 
BRANCH  30  31
ATOM     31  C   UNL     1       3.698  -4.936  -2.635  0.00  0.00    +0.026 C 
BRANCH  31  32
ATOM     32  C   UNL     1       4.463  -5.624  -3.768  0.00  0.00    +0.037 C 
BRANCH  32  33
ATOM     33  C   UNL     1       5.917  -5.743  -3.392  0.00  0.00    -0.047 A 
ATOM     34  C   UNL     1       6.800  -4.730  -3.716  0.00  0.00    +0.003 A 
ATOM     35  C   UNL     1       8.134  -4.840  -3.372  0.00  0.00    +0.000 A 
ATOM     36  C   UNL     1       8.585  -5.962  -2.703  0.00  0.00    +0.000 A 
ATOM     37  C   UNL     1       7.703  -6.975  -2.378  0.00  0.00    +0.000 A 
ATOM     38  C   UNL     1       6.367  -6.863  -2.719  0.00  0.00    +0.003 A 
ENDBRANCH  32  33
ENDBRANCH  31  32
ENDBRANCH  30  31
ENDBRANCH   3  30
TORSDOF 9
