REMARK  Name = ZINC43746568
REMARK  9 active torsions:
REMARK  status: ('A' for Active; 'I' for Inactive)
REMARK    1  A    between atoms: C_1  and  C_2
REMARK    2  A    between atoms: C_2  and  C_3
REMARK    3  A    between atoms: C_2  and  C_4
REMARK    4  A    between atoms: C_4  and  C_5
REMARK    5  A    between atoms: C_5  and  C_7
REMARK    6  A    between atoms: C_5  and  N_17
REMARK    7  A    between atoms: N_9  and  C_10
REMARK    8  A    between atoms: C_10  and  C_11
REMARK    9  A    between atoms: C_18  and  C_20
REMARK                            x       y       z     vdW  Elec       q    Type
REMARK                         _______ _______ _______ _____ _____    ______ ____
ROOT
ATOM      1  C   UNL     1       1.011  -2.904  -2.959  0.00  0.00    +0.167 C 
ATOM      2  C   UNL     1       1.850  -1.747  -3.520  0.00  0.00    +0.069 C 
ATOM      3  C   UNL     1       2.797  -2.254  -4.576  0.00  0.00    -0.015 A 
ATOM      4  C   UNL     1       3.519  -1.467  -5.560  0.00  0.00    +0.003 A 
ATOM      5  C   UNL     1       3.554  -0.096  -5.830  0.00  0.00    +0.010 A 
ATOM      6  C   UNL     1       4.368   0.313  -6.858  0.00  0.00    +0.001 A 
ATOM      7  C   UNL     1       5.123  -0.581  -7.599  0.00  0.00    +0.002 A 
ATOM      8  C   UNL     1       5.107  -1.943  -7.354  0.00  0.00    +0.026 A 
ATOM      9  C   UNL     1       4.288  -2.387  -6.317  0.00  0.00    +0.047 A 
ATOM     10  N   UNL     1       4.036  -3.632  -5.818  0.00  0.00    -0.356 N 
ATOM     11  H   UNL     1       4.433  -4.455  -6.145  0.00  0.00    +0.166 HD
ATOM     12  C   UNL     1       3.140  -3.545  -4.788  0.00  0.00    +0.046 A 
ATOM     13  C   UNL     1       2.567  -4.689  -3.987  0.00  0.00    +0.155 C 
ATOM     14  N   UNL     1       1.887  -4.072  -2.825  0.00  0.00    -0.273 N 
ATOM     15  C   UNL     1       2.250  -4.736  -1.719  0.00  0.00    +0.248 C 
ATOM     16  O   UNL     1       1.710  -4.641  -0.634  0.00  0.00    -0.270 OA
ATOM     17  C   UNL     1       3.400  -5.595  -2.019  0.00  0.00    +0.042 A 
ATOM     18  C   UNL     1       3.622  -5.584  -3.433  0.00  0.00    -0.009 A 
ATOM     19  C   UNL     1       4.639  -6.294  -4.030  0.00  0.00    +0.006 A 
ATOM     20  C   UNL     1       5.452  -7.058  -3.198  0.00  0.00    +0.000 A 
ATOM     21  C   UNL     1       5.253  -7.109  -1.833  0.00  0.00    +0.001 A 
ATOM     22  C   UNL     1       4.209  -6.364  -1.180  0.00  0.00    +0.013 A 
ENDROOT
BRANCH   1  24
ATOM     23  N   UNL     1      -0.865  -2.303  -1.462  0.00  0.00    -0.302 N 
ATOM     24  C   UNL     1       0.456  -2.525  -1.610  0.00  0.00    +0.235 C 
ATOM     25  O   UNL     1       1.199  -2.418  -0.657  0.00  0.00    -0.274 OA
ATOM     26  H   UNL     1      -1.459  -2.388  -2.225  0.00  0.00    +0.150 HD
BRANCH  23  27
ATOM     27  C   UNL     1      -1.405  -1.935  -0.151  0.00  0.00    +0.159 C 
BRANCH  27  28
ATOM     28  C   UNL     1      -2.856  -2.332  -0.075  0.00  0.00    +0.233 C 
ATOM     29  O   UNL     1      -3.388  -2.870  -1.023  0.00  0.00    -0.274 OA
ATOM     30  N   UNL     1      -3.563  -2.089   1.046  0.00  0.00    -0.311 N 
ATOM     31  H   UNL     1      -3.138  -1.659   1.804  0.00  0.00    +0.149 HD
BRANCH  30  32
ATOM     32  C   UNL     1      -4.975  -2.475   1.120  0.00  0.00    +0.135 C 
BRANCH  32  33
ATOM     33  C   UNL     1      -5.538  -2.090   2.489  0.00  0.00    +0.135 C 
ATOM     34  C   UNL     1      -7.022  -2.522   2.601  0.00  0.00    +0.035 C 
ATOM     35  C   UNL     1      -7.176  -2.652   4.141  0.00  0.00    +0.031 C 
ATOM     36  C   UNL     1      -5.781  -3.158   4.568  0.00  0.00    +0.160 C 
ATOM     37  O   UNL     1      -4.856  -2.810   3.529  0.00  0.00    -0.375 OA
ENDBRANCH  32  33
ENDBRANCH  30  32
ENDBRANCH  27  28
BRANCH  27  38
ATOM     38  C   UNL     1      -1.278  -0.423   0.045  0.00  0.00    +0.034 C 
BRANCH  38  40
ATOM     39  C   UNL     1       0.328   1.487   0.164  0.00  0.00    +0.007 C 
ATOM     40  C   UNL     1       0.201  -0.036   0.093  0.00  0.00    -0.015 C 
ATOM     41  C   UNL     1       0.852  -0.660   1.329  0.00  0.00    +0.007 C 
ENDBRANCH  38  40
ENDBRANCH  27  38
ENDBRANCH  23  27
ENDBRANCH   1  24
TORSDOF 7
