REMARK  Name = ZINC65026338
REMARK  7 active torsions:
REMARK  status: ('A' for Active; 'I' for Inactive)
REMARK    1  A    between atoms: C_1  and  C_2
REMARK    2  A    between atoms: C_2  and  C_3
REMARK    3  A    between atoms: C_6  and  C_9
REMARK    4  A    between atoms: N_17  and  C_21
REMARK    5  A    between atoms: C_21  and  C_22
REMARK    6  A    between atoms: N_24  and  C_25
REMARK    7  A    between atoms: C_25  and  C_26
REMARK                            x       y       z     vdW  Elec       q    Type
REMARK                         _______ _______ _______ _____ _____    ______ ____
ROOT
ATOM      1  C   UNL     1       2.785  -1.910   4.663  0.00  0.00    +0.044 C 
ATOM      2  N   UNL     1       2.023  -2.034   5.807  0.00  0.00    -0.311 N 
ATOM      3  C   UNL     1       2.432  -2.471   7.075  0.00  0.00    +0.072 A 
ATOM      4  C   UNL     1       1.387  -2.466   7.986  0.00  0.00    +0.028 A 
ATOM      5  C   UNL     1       1.648  -2.876   9.288  0.00  0.00    +0.022 A 
ATOM      6  C   UNL     1       2.925  -3.271   9.629  0.00  0.00    +0.113 A 
ATOM      7  N   UNL     1       3.902  -3.265   8.739  0.00  0.00    -0.238 NA
ATOM      8  C   UNL     1       3.699  -2.883   7.489  0.00  0.00    +0.149 A 
ATOM      9  N   UNL     1       4.872  -2.959   6.729  0.00  0.00    -0.242 N 
ATOM     10  C   UNL     1       5.049  -2.653   5.429  0.00  0.00    +0.247 C 
ATOM     11  O   UNL     1       6.179  -2.808   5.004  0.00  0.00    -0.270 OA
ATOM     12  C   UNL     1       4.108  -2.184   4.491  0.00  0.00    +0.091 C 
ATOM     13  H   UNL     1       1.088  -1.789   5.723  0.00  0.00    +0.152 HD
ENDROOT
BRANCH   1  17
ATOM     14  C   UNL     1       0.732  -0.501   1.223  0.00  0.00    -0.048 A 
ATOM     15  C   UNL     1       0.570   0.147   2.435  0.00  0.00    +0.004 A 
ATOM     16  C   UNL     1       1.234  -0.305   3.556  0.00  0.00    +0.010 A 
ATOM     17  C   UNL     1       2.071  -1.420   3.467  0.00  0.00    -0.004 A 
ATOM     18  C   UNL     1       2.229  -2.070   2.240  0.00  0.00    +0.010 A 
ATOM     19  C   UNL     1       1.555  -1.609   1.128  0.00  0.00    +0.004 A 
BRANCH  14  21
ATOM     20  C   UNL     1      -1.360  -0.689  -0.095  0.00  0.00    +0.009 C 
ATOM     21  C   UNL     1       0.004  -0.001   0.002  0.00  0.00    +0.032 C 
ENDBRANCH  14  21
ENDBRANCH   1  17
BRANCH   9  22
ATOM     22  C   UNL     1       6.062  -3.432   7.440  0.00  0.00    +0.211 C 
BRANCH  22  23
ATOM     23  C   UNL     1       6.152  -4.932   7.326  0.00  0.00    +0.231 C 
ATOM     24  O   UNL     1       5.305  -5.545   6.712  0.00  0.00    -0.274 OA
ATOM     25  N   UNL     1       7.174  -5.592   7.907  0.00  0.00    -0.310 N 
ATOM     26  H   UNL     1       7.851  -5.101   8.399  0.00  0.00    +0.149 HD
BRANCH  25  27
ATOM     27  C   UNL     1       7.261  -7.050   7.797  0.00  0.00    +0.140 C 
BRANCH  27  28
ATOM     28  C   UNL     1       8.486  -7.537   8.528  0.00  0.00    -0.016 A 
ATOM     29  C   UNL     1       9.637  -7.837   7.824  0.00  0.00    +0.006 A 
ATOM     30  C   UNL     1      10.761  -8.283   8.495  0.00  0.00    +0.000 A 
ATOM     31  C   UNL     1      10.733  -8.429   9.869  0.00  0.00    +0.001 A 
ATOM     32  C   UNL     1       9.583  -8.129  10.573  0.00  0.00    +0.015 A 
ATOM     33  C   UNL     1       8.460  -7.677   9.903  0.00  0.00    +0.023 A 
ATOM     34 BR   UNL     1       6.887  -7.260  10.867  0.00  0.00    -0.050 Br
ENDBRANCH  27  28
ENDBRANCH  25  27
ENDBRANCH  22  23
ENDBRANCH   9  22
TORSDOF 6
