REMARK  Name = ZINC12475136
REMARK  10 active torsions:
REMARK  status: ('A' for Active; 'I' for Inactive)
REMARK    1  A    between atoms: C_1  and  O_2
REMARK    2  A    between atoms: O_2  and  C_3
REMARK    3  A    between atoms: C_7  and  C_9
REMARK    4  A    between atoms: C_9  and  C_11
REMARK    5  A    between atoms: C_9  and  N_20
REMARK    6  A    between atoms: N_13  and  C_14
REMARK    7  A    between atoms: N_20  and  C_21
REMARK    8  A    between atoms: C_21  and  C_22
REMARK    9  A    between atoms: C_27  and  C_29
REMARK   10  A    between atoms: C_29  and  C_30
REMARK                            x       y       z     vdW  Elec       q    Type
REMARK                         _______ _______ _______ _____ _____    ______ ____
ROOT
ATOM      1  N   UNL     1      -0.811   5.887  -0.683  0.00  0.00    -0.281 N 
ATOM      2  C   UNL     1       0.109   5.919  -1.667  0.00  0.00    +0.221 C 
ATOM      3  O   UNL     1       1.003   5.100  -1.688  0.00  0.00    -0.275 OA
ENDROOT
BRANCH   1   4
ATOM      4  C   UNL     1      -0.730   4.864   0.363  0.00  0.00    +0.193 C 
BRANCH   4   9
ATOM      5  C   UNL     1      -2.726   1.664   0.133  0.00  0.00    +0.120 A 
ATOM      6  C   UNL     1      -4.011   2.154  -0.046  0.00  0.00    +0.045 A 
ATOM      7  C   UNL     1      -4.228   3.517  -0.097  0.00  0.00    +0.004 A 
ATOM      8  C   UNL     1      -3.167   4.393   0.041  0.00  0.00    +0.006 A 
ATOM      9  C   UNL     1      -1.885   3.907   0.219  0.00  0.00    -0.015 A 
ATOM     10  C   UNL     1      -1.662   2.544   0.266  0.00  0.00    +0.051 A 
BRANCH   5  12
ATOM     11  C   UNL     1      -3.651  -0.524   0.034  0.00  0.00    +0.277 C 
ATOM     12  O   UNL     1      -2.509   0.323   0.178  0.00  0.00    -0.495 OA
ENDBRANCH   5  12
ENDBRANCH   4   9
BRANCH   4  13
ATOM     13  C   UNL     1      -0.790   5.524   1.716  0.00  0.00    +0.238 C 
ATOM     14  O   UNL     1      -1.130   6.685   1.811  0.00  0.00    -0.273 OA
ATOM     15  N   UNL     1      -0.466   4.824   2.822  0.00  0.00    -0.311 N 
ATOM     16  H   UNL     1      -0.194   3.896   2.746  0.00  0.00    +0.149 HD
BRANCH  15  17
ATOM     17  C   UNL     1      -0.524   5.466   4.138  0.00  0.00    +0.073 C 
ATOM     18  C   UNL     1       0.788   6.208   4.401  0.00  0.00    +0.022 C 
ATOM     19  C   UNL     1       0.727   6.878   5.776  0.00  0.00    +0.002 C 
ATOM     20  C   UNL     1       0.519   5.812   6.854  0.00  0.00    +0.000 C 
ATOM     21  C   UNL     1      -0.793   5.070   6.590  0.00  0.00    +0.002 C 
ATOM     22  C   UNL     1      -0.732   4.400   5.216  0.00  0.00    +0.022 C 
ENDBRANCH  15  17
ENDBRANCH   4  13
ENDBRANCH   1   4
BRANCH   1  23
ATOM     23  C   UNL     1      -1.892   6.876  -0.658  0.00  0.00    +0.151 C 
BRANCH  23  24
ATOM     24  C   UNL     1      -1.305   8.258  -0.521  0.00  0.00    +0.007 A 
ATOM     25  C   UNL     1      -1.222   9.245  -1.446  0.00  0.00    +0.013 A 
ATOM     26  C   UNL     1      -0.636  10.446  -1.094  0.00  0.00    +0.008 A 
ATOM     27  C   UNL     1      -0.162  10.601   0.167  0.00  0.00    +0.045 A 
ATOM     28  S   UNL     1      -0.547   9.021   0.903  0.00  0.00    -0.100 S 
ENDBRANCH  23  24
ENDBRANCH   1  23
BRANCH   2  29
ATOM     29  C   UNL     1       0.026   6.971  -2.743  0.00  0.00    +0.133 C 
BRANCH  29  30
ATOM     30  C   UNL     1       1.163   6.787  -3.715  0.00  0.00    -0.014 A 
ATOM     31  C   UNL     1       2.345   7.422  -3.689  0.00  0.00    +0.087 A 
ATOM     32  N   UNL     1       3.127   6.995  -4.729  0.00  0.00    -0.360 N 
ATOM     33  H   UNL     1       4.025   7.309  -4.916  0.00  0.00    +0.165 HD
ATOM     34  C   UNL     1       2.445   6.057  -5.472  0.00  0.00    +0.047 A 
ATOM     35  C   UNL     1       1.185   5.886  -4.869  0.00  0.00    +0.003 A 
ATOM     36  C   UNL     1       0.270   4.983  -5.414  0.00  0.00    +0.010 A 
ATOM     37  C   UNL     1       0.603   4.271  -6.531  0.00  0.00    +0.001 A 
ATOM     38  C   UNL     1       1.844   4.437  -7.130  0.00  0.00    +0.002 A 
ATOM     39  C   UNL     1       2.763   5.322  -6.609  0.00  0.00    +0.026 A 
ENDBRANCH  29  30
ENDBRANCH   2  29
TORSDOF 9
