REMARK  Name = ZINC01466145
REMARK  7 active torsions:
REMARK  status: ('A' for Active; 'I' for Inactive)
REMARK    1  A    between atoms: C_1  and  C_2
REMARK    2  A    between atoms: C_2  and  N_3
REMARK    3  A    between atoms: C_4  and  C_6
REMARK    4  A    between atoms: C_10  and  N_11
REMARK    5  A    between atoms: C_12  and  C_14
REMARK    6  A    between atoms: C_14  and  C_16
REMARK    7  A    between atoms: C_14  and  N_17
REMARK                            x       y       z     vdW  Elec       q    Type
REMARK                         _______ _______ _______ _____ _____    ______ ____
ROOT
ATOM      1  N   UNL     1       2.342   3.289  -0.002  0.00  0.00    -0.278 N 
ATOM      2  C   UNL     1       1.635   4.437   0.012  0.00  0.00    +0.238 C 
ATOM      3  O   UNL     1       0.423   4.402   0.023  0.00  0.00    -0.273 OA
ATOM      4  H   UNL     1       3.312   3.317  -0.012  0.00  0.00    +0.155 HD
ENDROOT
BRANCH   1   9
ATOM      5  C   UNL     1       2.231   0.794  -0.015  0.00  0.00    +0.069 A 
ATOM      6  C   UNL     1       1.312  -0.331  -0.012  0.00  0.00    -0.023 A 
ATOM      7  C   UNL     1       0.002  -0.004   0.002  0.00  0.00    -0.004 A 
ATOM      8  S   UNL     1      -0.022   1.766   0.012  0.00  0.00    -0.077 S 
ATOM      9  C   UNL     1       1.684   2.069  -0.003  0.00  0.00    +0.084 A 
ATOM     10  C   UNL     1      -1.164  -0.944   0.007  0.00  0.00    +0.043 C 
ATOM     11  C   UNL     1      -0.660  -2.341  -0.384  0.00  0.00    +0.005 C 
ATOM     12  C   UNL     1       0.590  -2.663   0.440  0.00  0.00    +0.005 C 
ATOM     13  C   UNL     1       1.757  -1.789  -0.024  0.00  0.00    +0.037 C 
BRANCH   5  15
ATOM     14  N   UNL     1       4.362   0.490   1.130  0.00  0.00    -0.312 N 
ATOM     15  C   UNL     1       3.683   0.590  -0.030  0.00  0.00    +0.247 C 
ATOM     16  O   UNL     1       4.276   0.511  -1.090  0.00  0.00    -0.270 OA
ATOM     17  H   UNL     1       3.890   0.553   1.975  0.00  0.00    +0.149 HD
BRANCH  14  19
ATOM     18  C   UNL     1       6.332   0.208   2.552  0.00  0.00    +0.024 C 
ATOM     19  C   UNL     1       5.813   0.286   1.115  0.00  0.00    +0.101 C 
ENDBRANCH  14  19
ENDBRANCH   5  15
ENDBRANCH   1   9
BRANCH   2  20
ATOM     20  C   UNL     1       2.351   5.763   0.012  0.00  0.00    +0.168 C 
ATOM     21  C   UNL     1       3.240   5.862   1.253  0.00  0.00    +0.038 C 
BRANCH  20  22
ATOM     22  N   UNL     1       1.367   6.848   0.029  0.00  0.00    -0.222 N 
ATOM     23  C   UNL     1       0.451   7.031   0.996  0.00  0.00    +0.254 C 
ATOM     24  O   UNL     1       0.311   6.333   1.980  0.00  0.00    -0.270 OA
ATOM     25  C   UNL     1      -0.355   8.225   0.663  0.00  0.00    +0.049 A 
ATOM     26  C   UNL     1      -1.412   8.880   1.274  0.00  0.00    +0.014 A 
ATOM     27  C   UNL     1      -1.960  10.005   0.678  0.00  0.00    +0.001 A 
ATOM     28  C   UNL     1      -1.459  10.476  -0.522  0.00  0.00    +0.001 A 
ATOM     29  C   UNL     1      -0.402   9.831  -1.144  0.00  0.00    +0.014 A 
ATOM     30  C   UNL     1       0.156   8.706  -0.559  0.00  0.00    +0.049 A 
ATOM     31  C   UNL     1       1.257   7.791  -0.925  0.00  0.00    +0.254 C 
ATOM     32  O   UNL     1       1.948   7.875  -1.921  0.00  0.00    -0.270 OA
ENDBRANCH  20  22
ENDBRANCH   2  20
TORSDOF 5
