REMARK  Name = ZINC46876905
REMARK  8 active torsions:
REMARK  status: ('A' for Active; 'I' for Inactive)
REMARK    1  A    between atoms: C_1  and  C_2
REMARK    2  A    between atoms: N_10  and  C_29
REMARK    3  A    between atoms: C_11  and  S_13
REMARK    4  A    between atoms: S_13  and  C_14
REMARK    5  A    between atoms: C_14  and  C_16
REMARK    6  A    between atoms: C_14  and  C_17
REMARK    7  A    between atoms: N_19  and  C_20
REMARK    8  A    between atoms: C_23  and  C_27
REMARK                            x       y       z     vdW  Elec       q    Type
REMARK                         _______ _______ _______ _____ _____    ______ ____
ROOT
ATOM      1  C   UNL     1       0.086  -6.916  -0.793  0.00  0.00    +0.137 C 
ATOM      2  C   UNL     1       1.376  -6.388  -1.423  0.00  0.00    +0.029 C 
ENDROOT
BRANCH   1   3
ATOM      3  C   UNL     1      -0.010  -8.403  -1.014  0.00  0.00    +0.230 C 
ATOM      4  O   UNL     1       0.293  -9.169  -0.124  0.00  0.00    -0.274 OA
ATOM      5  N   UNL     1      -0.433  -8.882  -2.201  0.00  0.00    -0.285 N 
ATOM      6  H   UNL     1      -0.740  -8.271  -2.889  0.00  0.00    +0.155 HD
BRANCH   5   7
ATOM      7  C   UNL     1      -0.431 -10.257  -2.439  0.00  0.00    +0.035 A 
ATOM      8  C   UNL     1      -0.723 -11.141  -1.405  0.00  0.00    +0.024 A 
ATOM      9  C   UNL     1      -0.721 -12.498  -1.635  0.00  0.00    +0.022 A 
ATOM     10  C   UNL     1      -0.426 -12.989  -2.910  0.00  0.00    +0.070 A 
ATOM     11  C   UNL     1      -0.133 -12.098  -3.948  0.00  0.00    +0.060 A 
ATOM     12  C   UNL     1      -0.142 -10.740  -3.711  0.00  0.00    +0.044 A 
ATOM     13 CL   UNL     1       0.235 -12.701  -5.534  0.00  0.00    -0.082 Cl
BRANCH  10  14
ATOM     14  C   UNL     1      -0.423 -14.400  -3.154  0.00  0.00    +0.101 C 
ATOM     15  N   UNL     1      -0.420 -15.520  -3.346  0.00  0.00    -0.191 NA
ENDBRANCH  10  14
ENDBRANCH   5   7
ENDBRANCH   1   3
BRANCH   1  16
ATOM     16  S   UNL     1       0.096  -6.568   0.987  0.00  0.00    -0.075 S 
BRANCH  16  27
ATOM     17  C   UNL     1      -0.075   1.500   0.031  0.00  0.00    +0.044 C 
ATOM     18  C   UNL     1      -0.045  -0.006   0.019  0.00  0.00    -0.050 A 
ATOM     19  C   UNL     1      -0.042  -0.684  -1.193  0.00  0.00    +0.005 A 
ATOM     20  C   UNL     1      -0.016  -2.049  -1.236  0.00  0.00    +0.029 A 
ATOM     21  C   UNL     1       0.010  -2.778  -0.043  0.00  0.00    +0.079 A 
ATOM     22  C   UNL     1       0.007  -2.085   1.189  0.00  0.00    +0.065 A 
ATOM     23  C   UNL     1      -0.015  -0.691   1.203  0.00  0.00    +0.018 A 
ATOM     24  C   UNL     1       0.035  -2.873   2.429  0.00  0.00    +0.262 A 
ATOM     25  O   UNL     1       0.034  -2.334   3.520  0.00  0.00    -0.267 OA
ATOM     26  N   UNL     1       0.061  -4.221   2.312  0.00  0.00    -0.290 N 
ATOM     27  C   UNL     1       0.061  -4.809   1.079  0.00  0.00    +0.173 A 
ATOM     28  N   UNL     1       0.036  -4.126  -0.039  0.00  0.00    -0.223 NA
ATOM     29  C   UNL     1       0.089  -5.056   3.515  0.00  0.00    +0.154 C 
ENDBRANCH  16  27
ENDBRANCH   1  16
TORSDOF 5
