REMARK  Name = ZINC64609605
REMARK  9 active torsions:
REMARK  status: ('A' for Active; 'I' for Inactive)
REMARK    1  A    between atoms: C_1  and  O_2
REMARK    2  A    between atoms: O_2  and  C_3
REMARK    3  A    between atoms: C_7  and  C_11
REMARK    4  A    between atoms: C_8  and  O_9
REMARK    5  A    between atoms: O_9  and  C_10
REMARK    6  A    between atoms: C_12  and  C_22
REMARK    7  A    between atoms: C_22  and  N_23
REMARK    8  A    between atoms: N_23  and  C_24
REMARK    9  A    between atoms: C_24  and  C_25
REMARK                            x       y       z     vdW  Elec       q    Type
REMARK                         _______ _______ _______ _____ _____    ______ ____
ROOT
ATOM      1  C   UNL     1      -2.577  -4.156  -0.094  0.00  0.00    +0.080 A 
ATOM      2  C   UNL     1      -3.815  -4.781   0.129  0.00  0.00    -0.007 A 
ATOM      3  C   UNL     1      -3.879  -6.138   0.239  0.00  0.00    +0.017 A 
ATOM      4  C   UNL     1      -2.684  -6.875   0.124  0.00  0.00    +0.001 A 
ATOM      5  C   UNL     1      -2.679  -8.275   0.227  0.00  0.00    +0.011 A 
ATOM      6  C   UNL     1      -1.506  -8.956   0.110  0.00  0.00    +0.021 A 
ATOM      7  C   UNL     1      -0.306  -8.281  -0.111  0.00  0.00    +0.043 A 
ATOM      8  C   UNL     1      -0.274  -6.923  -0.216  0.00  0.00    +0.048 A 
ATOM      9  C   UNL     1      -1.466  -6.186  -0.101  0.00  0.00    +0.073 A 
ATOM     10  N   UNL     1      -1.463  -4.854  -0.206  0.00  0.00    -0.246 NA
ATOM     11 CL   UNL     1       1.169  -9.184  -0.254  0.00  0.00    -0.083 Cl
ENDROOT
BRANCH   1  16
ATOM     12  C   UNL     1      -2.385  -0.694  -1.571  0.00  0.00    +0.162 A 
ATOM     13  C   UNL     1      -2.418   0.085  -0.426  0.00  0.00    +0.049 A 
ATOM     14  C   UNL     1      -2.502  -0.510   0.821  0.00  0.00    +0.004 A 
ATOM     15  C   UNL     1      -2.555  -1.884   0.933  0.00  0.00    +0.014 A 
ATOM     16  C   UNL     1      -2.522  -2.680  -0.212  0.00  0.00    +0.046 A 
ATOM     17  C   UNL     1      -2.443  -2.079  -1.471  0.00  0.00    +0.171 A 
BRANCH  12  19
ATOM     18  C   UNL     1      -2.245   1.325  -2.821  0.00  0.00    +0.277 C 
ATOM     19  O   UNL     1      -2.302  -0.103  -2.793  0.00  0.00    -0.491 OA
ENDBRANCH  12  19
BRANCH  17  20
ATOM     20  O   UNL     1      -2.417  -2.846  -2.593  0.00  0.00    -0.491 OA
ATOM     21  C   UNL     1      -1.134  -3.261  -3.066  0.00  0.00    +0.277 C 
ENDBRANCH  17  20
ENDBRANCH   1  16
BRANCH   2  22
ATOM     22  C   UNL     1      -5.069  -3.953   0.246  0.00  0.00    +0.118 C 
BRANCH  22  23
ATOM     23  N   UNL     1      -5.534  -3.577  -1.095  0.00  0.00    -0.312 NA
ATOM     24  H   UNL     1      -4.812  -3.093  -1.606  0.00  0.00    +0.122 HD
BRANCH  23  25
ATOM     25  C   UNL     1      -6.758  -2.768  -1.020  0.00  0.00    +0.083 C 
BRANCH  25  26
ATOM     26  C   UNL     1      -7.212  -2.396  -2.433  0.00  0.00    -0.011 C 
ATOM     27  C   UNL     1      -6.163  -1.491  -3.082  0.00  0.00    +0.001 C 
ATOM     28  C   UNL     1      -6.063  -0.195  -2.270  0.00  0.00    -0.018 C 
ATOM     29  C   UNL     1      -7.440   0.467  -2.227  0.00  0.00    -0.078 C 
ATOM     30  N   UNL     1      -8.413  -0.428  -1.583  0.00  0.00    +0.382 N 
ATOM     31  C   UNL     1      -8.555  -1.662  -2.360  0.00  0.00    -0.064 C 
ATOM     32  C   UNL     1      -9.570  -2.591  -1.686  0.00  0.00    -0.015 C 
ATOM     33  C   UNL     1     -10.923  -1.886  -1.575  0.00  0.00    -0.003 C 
ATOM     34  C   UNL     1     -10.734  -0.583  -0.791  0.00  0.00    -0.019 C 
ATOM     35  C   UNL     1      -9.701   0.278  -1.511  0.00  0.00    -0.078 C 
ATOM     36  H   UNL     1      -8.099  -0.651  -0.651  0.00  0.00    -0.081 HD
ENDBRANCH  25  26
ENDBRANCH  23  25
ENDBRANCH  22  23
ENDBRANCH   2  22
TORSDOF 7
