REMARK  Name = ZINC09471165
REMARK  9 active torsions:
REMARK  status: ('A' for Active; 'I' for Inactive)
REMARK    1  A    between atoms: C_1  and  C_2
REMARK    2  A    between atoms: C_5  and  C_7
REMARK    3  A    between atoms: C_7  and  C_9
REMARK    4  A    between atoms: C_7  and  N_66
REMARK    5  A    between atoms: C_9  and  N_10
REMARK    6  A    between atoms: N_10  and  C_11
REMARK    7  A    between atoms: C_14  and  S_20
REMARK    8  A    between atoms: C_16  and  N_17
REMARK    9  A    between atoms: S_20  and  N_23
REMARK                            x       y       z     vdW  Elec       q    Type
REMARK                         _______ _______ _______ _____ _____    ______ ____
ROOT
ATOM      1  C   UNL     1       0.696   1.469  -1.205  0.00  0.00    +0.058 A 
ATOM      2  C   UNL     1      -0.392   0.657  -1.500  0.00  0.00    +0.027 A 
ATOM      3  C   UNL     1      -1.656   1.206  -1.587  0.00  0.00    +0.030 A 
ATOM      4  C   UNL     1      -1.841   2.559  -1.372  0.00  0.00    +0.108 A 
ATOM      5  C   UNL     1      -0.760   3.370  -1.078  0.00  0.00    +0.063 A 
ATOM      6  C   UNL     1       0.508   2.829  -0.994  0.00  0.00    +0.149 A 
ENDROOT
BRANCH   6   7
ATOM      7  N   UNL     1       1.665   3.697  -0.680  0.00  0.00    +0.058 N 
ATOM      8  O   UNL     1       2.555   3.287   0.043  0.00  0.00    -0.126 OA
ATOM      9  O   UNL     1       1.726   4.822  -1.143  0.00  0.00    -0.126 OA
ENDBRANCH   6   7
BRANCH   4  10
ATOM     10  S   UNL     1      -3.457   3.254  -1.478  0.00  0.00    +0.061 S 
ATOM     11  O   UNL     1      -4.371   2.195  -1.226  0.00  0.00    -0.153 OA
ATOM     12  O   UNL     1      -3.439   4.445  -0.703  0.00  0.00    -0.153 OA
BRANCH  10  13
ATOM     13  N   UNL     1      -3.689   3.716  -3.051  0.00  0.00    -0.177 NA
ATOM     14  C   UNL     1      -3.317   5.057  -3.441  0.00  0.00    +0.109 C 
ATOM     15  C   UNL     1      -4.507   6.016  -3.229  0.00  0.00    +0.017 C 
ATOM     16  C   UNL     1      -5.556   5.755  -4.226  0.00  0.00    +0.001 C 
ATOM     17  C   UNL     1      -6.172   4.361  -4.141  0.00  0.00    +0.001 C 
ATOM     18  C   UNL     1      -5.320   3.390  -4.921  0.00  0.00    +0.017 C 
ATOM     19  C   UNL     1      -4.273   2.744  -3.995  0.00  0.00    +0.109 C 
ENDBRANCH  10  13
ENDBRANCH   4  10
BRANCH   1  20
ATOM     20  N   UNL     1       1.977   0.918  -1.120  0.00  0.00    -0.343 N 
ATOM     21  H   UNL     1       2.746   1.496  -0.992  0.00  0.00    +0.146 HD
BRANCH  20  22
ATOM     22  C   UNL     1       2.160  -0.531  -1.226  0.00  0.00    +0.094 C 
BRANCH  22  23
ATOM     23  C   UNL     1       3.647  -0.868  -1.102  0.00  0.00    +0.017 C 
BRANCH  23  29
ATOM     24  C   UNL     1       3.894  -0.360  -3.457  0.00  0.00    -0.049 C 
ATOM     25  C   UNL     1       4.673   0.495  -4.460  0.00  0.00    +0.141 C 
ATOM     26  O   UNL     1       6.068   0.203  -4.346  0.00  0.00    -0.383 OA
ATOM     27  C   UNL     1       6.601   0.438  -3.040  0.00  0.00    +0.141 C 
ATOM     28  C   UNL     1       5.842  -0.418  -2.023  0.00  0.00    -0.049 C 
ATOM     29  N   UNL     1       4.405  -0.081  -2.099  0.00  0.00    +0.390 N 
ATOM     30  H   UNL     1       4.285   0.918  -1.895  0.00  0.00    -0.081 HD
ENDBRANCH  23  29
BRANCH  23  35
ATOM     31  C   UNL     1       3.979  -5.331  -3.429  0.00  0.00    +0.086 C 
ATOM     32  C   UNL     1       3.994  -4.284  -2.345  0.00  0.00    +0.102 A 
ATOM     33  C   UNL     1       4.251  -4.503  -1.043  0.00  0.00    +0.044 A 
ATOM     34  C   UNL     1       4.157  -3.252  -0.390  0.00  0.00    +0.043 A 
ATOM     35  C   UNL     1       3.849  -2.344  -1.333  0.00  0.00    +0.093 A 
ATOM     36  O   UNL     1       3.745  -2.975  -2.514  0.00  0.00    -0.466 OA
ENDBRANCH  23  35
ENDBRANCH  22  23
ENDBRANCH  20  22
ENDBRANCH   1  20
TORSDOF 8
