REMARK  Name = ZINC08672973
REMARK  7 active torsions:
REMARK  status: ('A' for Active; 'I' for Inactive)
REMARK    1  A    between atoms: C_1  and  O_2
REMARK    2  A    between atoms: O_2  and  C_3
REMARK    3  A    between atoms: C_3  and  C_5
REMARK    4  A    between atoms: C_8  and  N_11
REMARK    5  A    between atoms: C_15  and  N_54
REMARK    6  A    between atoms: N_21  and  C_24
REMARK    7  A    between atoms: C_27  and  N_30
REMARK                            x       y       z     vdW  Elec       q    Type
REMARK                         _______ _______ _______ _____ _____    ______ ____
ROOT
ATOM      1  N   UNL     1      -0.997  -0.737  -3.599  0.00  0.00    -0.212 N 
ATOM      2  C   UNL     1      -0.891   0.255  -4.492  0.00  0.00    +0.225 C 
ATOM      3  O   UNL     1      -1.061   0.146  -5.687  0.00  0.00    -0.275 OA
ATOM      4  C   UNL     1      -0.525   1.535  -3.773  0.00  0.00    +0.090 C 
ATOM      5  C   UNL     1      -0.437   1.107  -2.294  0.00  0.00    +0.029 C 
ATOM      6  C   UNL     1      -0.762  -0.371  -2.333  0.00  0.00    +0.213 C 
ATOM      7  O   UNL     1      -0.804  -1.106  -1.370  0.00  0.00    -0.277 OA
ENDROOT
BRANCH   5  13
ATOM      8  C   UNL     1      -1.048   3.244  -1.335  0.00  0.00    -0.059 C 
ATOM      9  C   UNL     1      -2.058   3.946  -0.423  0.00  0.00    +0.086 C 
ATOM     10  N   UNL     1      -3.404   3.821  -1.001  0.00  0.00    -0.333 N 
ATOM     11  C   UNL     1      -3.781   2.409  -1.151  0.00  0.00    +0.086 C 
ATOM     12  C   UNL     1      -2.771   1.708  -2.063  0.00  0.00    -0.059 C 
ATOM     13  N   UNL     1      -1.427   1.821  -1.460  0.00  0.00    +0.390 N 
ATOM     14  H   UNL     1      -1.444   1.397  -0.525  0.00  0.00    -0.081 HD
BRANCH  10  15
ATOM     15  C   UNL     1      -4.344   4.512  -0.232  0.00  0.00    +0.030 A 
ATOM     16  C   UNL     1      -5.457   3.847   0.268  0.00  0.00    +0.025 A 
ATOM     17  C   UNL     1      -6.382   4.531   1.033  0.00  0.00    +0.034 A 
ATOM     18  C   UNL     1      -6.207   5.879   1.291  0.00  0.00    +0.126 A 
ATOM     19  C   UNL     1      -5.103   6.544   0.790  0.00  0.00    +0.034 A 
ATOM     20  C   UNL     1      -4.171   5.865   0.029  0.00  0.00    +0.025 A 
BRANCH  18  21
ATOM     21  N   UNL     1      -7.203   6.610   2.105  0.00  0.00    +0.056 N 
ATOM     22  O   UNL     1      -7.050   7.797   2.333  0.00  0.00    -0.126 OA
ATOM     23  O   UNL     1      -8.175   6.025   2.547  0.00  0.00    -0.126 OA
ENDBRANCH  18  21
ENDBRANCH  10  15
ENDBRANCH   5  13
BRANCH   1  27
ATOM     24  C   UNL     1      -1.976  -4.644  -4.673  0.00  0.00    +0.059 A 
ATOM     25  C   UNL     1      -0.640  -4.289  -4.462  0.00  0.00    +0.017 A 
ATOM     26  C   UNL     1      -0.321  -2.998  -4.107  0.00  0.00    +0.025 A 
ATOM     27  C   UNL     1      -1.325  -2.047  -3.959  0.00  0.00    +0.044 A 
ATOM     28  C   UNL     1      -2.655  -2.397  -4.164  0.00  0.00    +0.025 A 
ATOM     29  C   UNL     1      -2.982  -3.685  -4.524  0.00  0.00    +0.017 A 
BRANCH  24  30
ATOM     30  C   UNL     1      -2.322  -6.027  -5.054  0.00  0.00    +0.339 C 
ATOM     31  O   UNL     1      -1.446  -6.859  -5.183  0.00  0.00    -0.245 OA
BRANCH  30  33
ATOM     32  C   UNL     1      -3.877  -7.745  -5.629  0.00  0.00    +0.280 C 
ATOM     33  O   UNL     1      -3.610  -6.367  -5.258  0.00  0.00    -0.464 OA
ENDBRANCH  30  33
ENDBRANCH  24  30
ENDBRANCH   1  27
TORSDOF 6
