REMARK  Name = ZINC19826040
REMARK  6 active torsions:
REMARK  status: ('A' for Active; 'I' for Inactive)
REMARK    1  A    between atoms: C_1  and  C_2
REMARK    2  A    between atoms: C_9  and  C_14
REMARK    3  A    between atoms: C_14  and  C_16
REMARK    4  A    between atoms: C_14  and  N_27
REMARK    5  A    between atoms: N_20  and  C_21
REMARK    6  A    between atoms: N_30  and  C_33
REMARK                            x       y       z     vdW  Elec       q    Type
REMARK                         _______ _______ _______ _____ _____    ______ ____
ROOT
ATOM      1  C   UNL     1       3.512   0.638  -0.028  0.00  0.00    +0.162 C 
ENDROOT
BRANCH   1  10
ATOM      2  C   UNL     1       7.169   2.216   6.277  0.00  0.00    +0.044 C 
ATOM      3  C   UNL     1       6.384   1.259   5.418  0.00  0.00    -0.050 A 
ATOM      4  C   UNL     1       6.116  -0.022   5.882  0.00  0.00    +0.005 A 
ATOM      5  C   UNL     1       5.400  -0.913   5.113  0.00  0.00    +0.026 A 
ATOM      6  C   UNL     1       4.941  -0.528   3.857  0.00  0.00    +0.049 A 
ATOM      7  C   UNL     1       5.214   0.771   3.390  0.00  0.00    -0.001 A 
ATOM      8  C   UNL     1       5.942   1.659   4.189  0.00  0.00    +0.013 A 
ATOM      9  C   UNL     1       4.731   1.165   2.065  0.00  0.00    +0.021 A 
ATOM     10  C   UNL     1       4.027   0.263   1.338  0.00  0.00    +0.042 A 
ATOM     11  C   UNL     1       3.780  -1.027   1.853  0.00  0.00    +0.254 A 
ATOM     12  O   UNL     1       3.148  -1.824   1.181  0.00  0.00    -0.268 OA
ATOM     13  N   UNL     1       4.223  -1.400   3.066  0.00  0.00    -0.322 N 
ATOM     14  H   UNL     1       4.006  -2.417   3.425  0.00  0.00    +0.169 HD
ENDBRANCH   1  10
BRANCH   1  15
ATOM     15  N   UNL     1       3.993  -0.335  -1.017  0.00  0.00    -0.286 NA
ATOM     16  C   UNL     1       5.460  -0.427  -0.995  0.00  0.00    +0.104 C 
ATOM     17  C   UNL     1       5.915  -1.506  -1.981  0.00  0.00    +0.120 C 
ATOM     18  N   UNL     1       5.431  -1.171  -3.327  0.00  0.00    -0.325 N 
ATOM     19  C   UNL     1       3.965  -1.079  -3.349  0.00  0.00    +0.120 C 
ATOM     20  C   UNL     1       3.509  -0.001  -2.364  0.00  0.00    +0.104 C 
BRANCH  18  21
ATOM     21  C   UNL     1       5.890  -2.098  -4.269  0.00  0.00    +0.065 A 
ATOM     22  C   UNL     1       5.604  -1.920  -5.616  0.00  0.00    +0.026 A 
ATOM     23  C   UNL     1       6.061  -2.835  -6.545  0.00  0.00    +0.002 A 
ATOM     24  C   UNL     1       6.795  -3.933  -6.134  0.00  0.00    +0.003 A 
ATOM     25  C   UNL     1       7.079  -4.116  -4.793  0.00  0.00    +0.040 A 
ATOM     26  C   UNL     1       6.628  -3.202  -3.858  0.00  0.00    +0.144 A 
ATOM     27  F   UNL     1       6.904  -3.382  -2.548  0.00  0.00    -0.204 F 
ENDBRANCH  18  21
ENDBRANCH   1  15
BRANCH   1  28
ATOM     28  C   UNL     1       2.005   0.637  -0.014  0.00  0.00    +0.173 A 
ATOM     29  N   UNL     1       1.223  -0.415  -0.012  0.00  0.00    -0.111 NA
ATOM     30  N   UNL     1       0.002  -0.004   0.002  0.00  0.00    -0.023 NA
ATOM     31  N   UNL     1      -0.015   1.283   0.009  0.00  0.00    -0.044 NA
ATOM     32  N   UNL     1       1.200   1.716  -0.000  0.00  0.00    -0.224 N 
BRANCH  32  33
ATOM     33  C   UNL     1       1.625   3.118   0.003  0.00  0.00    +0.111 C 
ATOM     34  C   UNL     1       1.095   3.808   1.261  0.00  0.00    +0.027 C 
ATOM     35  C   UNL     1       1.538   5.273   1.264  0.00  0.00    +0.002 C 
ATOM     36  C   UNL     1       0.984   5.976   0.024  0.00  0.00    +0.000 C 
ATOM     37  C   UNL     1       1.514   5.286  -1.234  0.00  0.00    +0.002 C 
ATOM     38  C   UNL     1       1.070   3.821  -1.237  0.00  0.00    +0.027 C 
ENDBRANCH  32  33
ENDBRANCH   1  28
TORSDOF 5
