REMARK  Name = ZINC36014171
REMARK  9 active torsions:
REMARK  status: ('A' for Active; 'I' for Inactive)
REMARK    1  A    between atoms: C_1  and  C_2
REMARK    2  A    between atoms: N_6  and  C_21
REMARK    3  A    between atoms: N_16  and  C_17
REMARK    4  A    between atoms: C_17  and  C_18
REMARK    5  A    between atoms: C_17  and  C_19
REMARK    6  A    between atoms: C_17  and  C_20
REMARK    7  A    between atoms: C_21  and  C_22
REMARK    8  A    between atoms: C_22  and  C_23
REMARK    9  A    between atoms: C_22  and  C_24
REMARK                            x       y       z     vdW  Elec       q    Type
REMARK                         _______ _______ _______ _____ _____    ______ ____
ROOT
ATOM      1  C   UNL     1       0.117   1.705   0.735  0.00  0.00    -0.004 C 
ATOM      2  C   UNL     1       0.029   0.241   0.301  0.00  0.00    +0.016 C 
ATOM      3  C   UNL     1      -1.400  -0.251   0.392  0.00  0.00    +0.200 C 
ATOM      4  O   UNL     1      -2.381   0.351   0.011  0.00  0.00    -0.277 OA
ATOM      5  N   UNL     1      -1.397  -1.471   0.967  0.00  0.00    -0.313 N 
ATOM      6  C   UNL     1      -0.019  -1.861   1.280  0.00  0.00    +0.006 C 
ATOM      7  N   UNL     1       0.788  -0.622   1.238  0.00  0.00    +0.401 N 
ATOM      8  C   UNL     1       0.052  -2.478   2.675  0.00  0.00    +0.025 C 
ATOM      9  C   UNL     1      -0.816  -3.741   2.717  0.00  0.00    +0.109 C 
ATOM     10  N   UNL     1      -0.401  -4.636   1.629  0.00  0.00    -0.286 N 
ATOM     11  C   UNL     1      -0.364  -4.113   0.257  0.00  0.00    +0.109 C 
ATOM     12  C   UNL     1       0.500  -2.848   0.235  0.00  0.00    +0.025 C 
ATOM     13  C   UNL     1      -0.060  -5.915   1.885  0.00  0.00    +0.303 C 
ATOM     14  O   UNL     1      -0.186  -6.365   3.008  0.00  0.00    -0.253 OA
ATOM     15  N   UNL     1       0.420  -6.695   0.897  0.00  0.00    -0.294 N 
ATOM     16  H   UNL     1       1.713  -0.809   0.881  0.00  0.00    -0.082 HD
ATOM     17  H   UNL     1       0.591  -6.317   0.020  0.00  0.00    +0.151 HD
ATOM     18  H   UNL     1       0.837  -0.198   2.153  0.00  0.00    -0.082 HD
ENDROOT
BRANCH  15  19
ATOM     19  C   UNL     1       0.685  -8.114   1.147  0.00  0.00    +0.028 C 
ATOM     20  C   UNL     1      -0.612  -8.808   1.568  0.00  0.00    +0.031 C 
ATOM     21  C   UNL     1       1.220  -8.766  -0.130  0.00  0.00    +0.031 C 
ATOM     22  C   UNL     1       1.722  -8.251   2.263  0.00  0.00    +0.031 C 
ENDBRANCH  15  19
BRANCH   5  23
ATOM     23  C   UNL     1      -2.587  -2.281   1.238  0.00  0.00    +0.109 C 
BRANCH  23  24
ATOM     24  C   UNL     1      -3.134  -1.936   2.624  0.00  0.00    +0.000 C 
ATOM     25  C   UNL     1      -3.647  -0.494   2.626  0.00  0.00    +0.009 C 
ATOM     26  C   UNL     1      -4.283  -2.885   2.970  0.00  0.00    +0.009 C 
ENDBRANCH  23  24
ENDBRANCH   5  23
TORSDOF 3
