REMARK  Name = ZINC09554208
REMARK  5 active torsions:
REMARK  status: ('A' for Active; 'I' for Inactive)
REMARK    1  A    between atoms: C_1  and  C_2
REMARK    2  A    between atoms: C_3  and  C_19
REMARK    3  A    between atoms: N_10  and  C_11
REMARK    4  A    between atoms: C_11  and  C_12
REMARK    5  A    between atoms: N_20  and  N_21
REMARK                            x       y       z     vdW  Elec       q    Type
REMARK                         _______ _______ _______ _____ _____    ______ ____
ROOT
ATOM      1  C   UNL     1       3.028   5.032  -0.001  0.00  0.00    +0.140 C 
ATOM      2  N   UNL     1       2.178   6.013   0.013  0.00  0.00    -0.187 NA
ENDROOT
BRANCH   2   3
ATOM      3  N   UNL     1       2.636   7.337   0.015  0.00  0.00    -0.205 N 
ATOM      4  C   UNL     1       1.733   8.380   0.030  0.00  0.00    +0.241 A 
ATOM      5  N   UNL     1       0.427   8.128   0.036  0.00  0.00    -0.180 NA
ATOM      6  C   UNL     1      -0.443   9.133   0.055  0.00  0.00    +0.224 A 
ATOM      7  N   UNL     1      -0.008  10.389   0.057  0.00  0.00    -0.181 NA
ATOM      8  C   UNL     1       1.297  10.641   0.045  0.00  0.00    +0.224 A 
ATOM      9  N   UNL     1       2.168   9.637   0.032  0.00  0.00    -0.180 NA
ATOM     10  N   UNL     1       1.748  11.945   0.047  0.00  0.00    -0.299 N 
ATOM     11  C   UNL     1       1.180  12.700  -1.077  0.00  0.00    +0.108 C 
ATOM     12  C   UNL     1       1.584  14.172  -0.961  0.00  0.00    +0.019 C 
ATOM     13  C   UNL     1       3.112  14.279  -0.969  0.00  0.00    +0.003 C 
ATOM     14  C   UNL     1       3.680  13.445   0.182  0.00  0.00    +0.019 C 
ATOM     15  C   UNL     1       3.216  11.995   0.033  0.00  0.00    +0.108 C 
ATOM     16  N   UNL     1      -1.799   8.872   0.066  0.00  0.00    -0.299 N 
ATOM     17  C   UNL     1      -2.450   9.524   1.209  0.00  0.00    +0.108 C 
ATOM     18  C   UNL     1      -3.966   9.335   1.109  0.00  0.00    +0.019 C 
ATOM     19  C   UNL     1      -4.290   7.839   1.099  0.00  0.00    +0.003 C 
ATOM     20  C   UNL     1      -3.560   7.175  -0.072  0.00  0.00    +0.019 C 
ATOM     21  C   UNL     1      -2.056   7.426   0.062  0.00  0.00    +0.108 C 
ATOM     22  H   UNL     1       3.589   7.521   0.006  0.00  0.00    +0.177 HD
ENDBRANCH   2   3
BRANCH   1  25
ATOM     23  C   UNL     1       4.818   2.491  -0.033  0.00  0.00    +0.064 C 
ATOM     24  C   UNL     1       3.311   2.516  -0.017  0.00  0.00    +0.026 A 
ATOM     25  C   UNL     1       2.547   3.640  -0.004  0.00  0.00    +0.023 A 
ATOM     26  C   UNL     1       1.142   3.194   0.008  0.00  0.00    +0.009 A 
ATOM     27  C   UNL     1      -0.083   3.858   0.024  0.00  0.00    +0.010 A 
ATOM     28  C   UNL     1      -1.245   3.138   0.032  0.00  0.00    +0.001 A 
ATOM     29  C   UNL     1      -1.214   1.751   0.017  0.00  0.00    +0.002 A 
ATOM     30  C   UNL     1      -0.013   1.076   0.008  0.00  0.00    +0.026 A 
ATOM     31  C   UNL     1       1.182   1.790   0.000  0.00  0.00    +0.050 A 
ATOM     32  N   UNL     1       2.507   1.413  -0.015  0.00  0.00    -0.339 N 
BRANCH  32  33
ATOM     33  C   UNL     1       2.985   0.029  -0.026  0.00  0.00    +0.157 C 
BRANCH  33  34
ATOM     34  C   UNL     1       3.134  -0.440  -1.451  0.00  0.00    -0.028 A 
ATOM     35  C   UNL     1       2.072  -1.050  -2.092  0.00  0.00    +0.008 A 
ATOM     36  C   UNL     1       2.206  -1.476  -3.400  0.00  0.00    +0.038 A 
ATOM     37  C   UNL     1       3.408  -1.300  -4.065  0.00  0.00    +0.123 A 
ATOM     38  C   UNL     1       4.472  -0.694  -3.420  0.00  0.00    +0.038 A 
ATOM     39  C   UNL     1       4.334  -0.264  -2.114  0.00  0.00    +0.008 A 
ATOM     40  F   UNL     1       3.541  -1.720  -5.342  0.00  0.00    -0.205 F 
ENDBRANCH  33  34
ENDBRANCH  32  33
ENDBRANCH   1  25
TORSDOF 4
