REMARK  Name = ZINC16534095
REMARK  9 active torsions:
REMARK  status: ('A' for Active; 'I' for Inactive)
REMARK    1  A    between atoms: C_1  and  C_2
REMARK    2  A    between atoms: C_7  and  N_8
REMARK    3  A    between atoms: C_9  and  O_38
REMARK    4  A    between atoms: C_10  and  C_21
REMARK    5  A    between atoms: C_11  and  C_13
REMARK    6  A    between atoms: C_13  and  C_14
REMARK    7  A    between atoms: N_25  and  C_29
REMARK    8  A    between atoms: C_29  and  C_30
REMARK    9  A    between atoms: C_33  and  C_36
REMARK                            x       y       z     vdW  Elec       q    Type
REMARK                         _______ _______ _______ _____ _____    ______ ____
ROOT
ATOM      1  N   UNL     1      -1.071   7.014  -3.096  0.00  0.00    -0.200 N 
ATOM      2  C   UNL     1       0.256   7.201  -2.926  0.00  0.00    +0.223 A 
ATOM      3  C   UNL     1       0.561   6.812  -1.624  0.00  0.00    +0.062 A 
ATOM      4  C   UNL     1      -0.648   6.375  -1.030  0.00  0.00    +0.079 A 
ATOM      5  N   UNL     1      -1.603   6.502  -1.908  0.00  0.00    -0.167 NA
ENDROOT
BRANCH   3   6
ATOM      6  C   UNL     1       1.880   6.845  -0.991  0.00  0.00    +0.043 C 
ATOM      7  C   UNL     1       2.953   6.299  -1.625  0.00  0.00    +0.099 C 
ATOM      8  C   UNL     1       4.292   6.248  -1.153  0.00  0.00    +0.269 C 
ATOM      9  O   UNL     1       4.703   6.687  -0.094  0.00  0.00    -0.268 OA
ATOM     10  N   UNL     1       5.020   5.622  -2.097  0.00  0.00    -0.216 N 
ATOM     11  C   UNL     1       4.228   5.279  -3.126  0.00  0.00    +0.313 C 
ATOM     12  O   UNL     1       4.598   4.699  -4.129  0.00  0.00    -0.252 OA
ATOM     13  N   UNL     1       2.962   5.666  -2.879  0.00  0.00    -0.265 N 
ATOM     14  H   UNL     1       2.197   5.534  -3.461  0.00  0.00    +0.157 HD
BRANCH  10  15
ATOM     15  C   UNL     1       6.459   5.355  -2.014  0.00  0.00    +0.153 C 
BRANCH  15  16
ATOM     16  C   UNL     1       6.684   4.015  -1.363  0.00  0.00    -0.029 A 
ATOM     17  C   UNL     1       6.829   3.932   0.010  0.00  0.00    +0.006 A 
ATOM     18  C   UNL     1       7.032   2.708   0.613  0.00  0.00    +0.019 A 
ATOM     19  C   UNL     1       7.101   1.552  -0.168  0.00  0.00    +0.052 A 
ATOM     20  C   UNL     1       6.959   1.644  -1.554  0.00  0.00    +0.019 A 
ATOM     21  C   UNL     1       6.752   2.874  -2.143  0.00  0.00    +0.006 A 
BRANCH  19  22
ATOM     22  C   UNL     1       7.315   0.278   0.451  0.00  0.00    +0.099 C 
ATOM     23  N   UNL     1       7.486  -0.732   0.941  0.00  0.00    -0.191 NA
ENDBRANCH  19  22
ENDBRANCH  15  16
ENDBRANCH  10  15
ENDBRANCH   3   6
BRANCH   1  30
ATOM     24  C   UNL     1      -2.860   5.025  -4.069  0.00  0.00    +0.046 C 
ATOM     25  C   UNL     1      -2.676   6.344  -4.775  0.00  0.00    -0.025 A 
ATOM     26  C   UNL     1      -3.386   6.616  -5.928  0.00  0.00    +0.005 A 
ATOM     27  C   UNL     1      -3.218   7.826  -6.575  0.00  0.00    +0.000 A 
ATOM     28  C   UNL     1      -2.339   8.767  -6.072  0.00  0.00    +0.002 A 
ATOM     29  C   UNL     1      -1.631   8.503  -4.916  0.00  0.00    +0.028 A 
ATOM     30  C   UNL     1      -1.793   7.287  -4.266  0.00  0.00    +0.072 A 
ENDBRANCH   1  30
BRANCH   2  31
ATOM     31  O   UNL     1       1.125   7.682  -3.846  0.00  0.00    -0.492 OA
ATOM     32  H   UNL     1       1.225   8.644  -3.828  0.00  0.00    +0.294 HD
ENDBRANCH   2  31
BRANCH   4  33
ATOM     33  C   UNL     1      -0.805   5.857   0.377  0.00  0.00    +0.093 C 
BRANCH  33  34
ATOM     34  C   UNL     1      -0.612   4.363   0.387  0.00  0.00    -0.041 A 
ATOM     35  C   UNL     1       0.650   3.831   0.579  0.00  0.00    +0.007 A 
ATOM     36  C   UNL     1       0.829   2.461   0.588  0.00  0.00    +0.038 A 
ATOM     37  C   UNL     1      -0.256   1.620   0.405  0.00  0.00    +0.123 A 
ATOM     38  C   UNL     1      -1.519   2.154   0.208  0.00  0.00    +0.038 A 
ATOM     39  C   UNL     1      -1.696   3.525   0.205  0.00  0.00    +0.007 A 
ATOM     40  F   UNL     1      -0.083   0.280   0.414  0.00  0.00    -0.205 F 
ENDBRANCH  33  34
ENDBRANCH   4  33
TORSDOF 8
