REMARK  Name = ZINC20850028
REMARK  11 active torsions:
REMARK  status: ('A' for Active; 'I' for Inactive)
REMARK    1  A    between atoms: C_1  and  C_2
REMARK    2  A    between atoms: C_2  and  C_37
REMARK    3  A    between atoms: C_6  and  C_26
REMARK    4  A    between atoms: C_11  and  S_13
REMARK    5  A    between atoms: S_13  and  C_14
REMARK    6  A    between atoms: C_14  and  C_15
REMARK    7  A    between atoms: C_15  and  C_17
REMARK    8  A    between atoms: C_20  and  O_23
REMARK    9  A    between atoms: O_23  and  C_24
REMARK   10  A    between atoms: C_29  and  O_32
REMARK   11  A    between atoms: O_32  and  C_33
REMARK                            x       y       z     vdW  Elec       q    Type
REMARK                         _______ _______ _______ _____ _____    ______ ____
ROOT
ATOM      1  C   UNL     1      -5.713   4.694   2.937  0.00  0.00    +0.011 C 
ATOM      2  C   UNL     1      -5.046   3.450   3.527  0.00  0.00    -0.023 C 
ATOM      3  C   UNL     1      -5.127   2.297   2.524  0.00  0.00    +0.058 C 
ATOM      4  C   UNL     1      -4.395   2.674   1.258  0.00  0.00    +0.020 C 
ATOM      5  C   UNL     1      -3.322   3.492   1.294  0.00  0.00    +0.041 C 
ATOM      6  C   UNL     1      -2.553   3.867   0.046  0.00  0.00    +0.175 C 
ATOM      7  N   UNL     1      -3.321   3.509  -1.139  0.00  0.00    -0.220 N 
ATOM      8  C   UNL     1      -4.404   2.692  -1.109  0.00  0.00    +0.219 A 
ATOM      9  N   UNL     1      -4.854   2.569  -2.328  0.00  0.00    -0.187 NA
ATOM     10  C   UNL     1      -4.092   3.291  -3.162  0.00  0.00    +0.211 A 
ATOM     11  N   UNL     1      -3.142   3.883  -2.470  0.00  0.00    -0.141 NA
ATOM     12  N   UNL     1      -4.864   2.147   0.078  0.00  0.00    -0.287 N 
ATOM     13  C   UNL     1      -2.872   4.037   2.511  0.00  0.00    +0.164 C 
ATOM     14  O   UNL     1      -1.897   4.763   2.511  0.00  0.00    -0.292 OA
ATOM     15  C   UNL     1      -3.568   3.741   3.809  0.00  0.00    +0.086 C 
ATOM     16  C   UNL     1      -5.751   3.054   4.826  0.00  0.00    +0.011 C 
ATOM     17  H   UNL     1      -5.584   1.315   0.095  0.00  0.00    +0.155 HD
ENDROOT
BRANCH   6  18
ATOM     18  C   UNL     1      -1.237   3.133   0.030  0.00  0.00    -0.018 A 
ATOM     19  C   UNL     1      -1.218   1.751   0.017  0.00  0.00    +0.009 A 
ATOM     20  C   UNL     1      -0.013   1.076   0.008  0.00  0.00    +0.046 A 
ATOM     21  C   UNL     1       1.179   1.786   0.000  0.00  0.00    +0.120 A 
ATOM     22  C   UNL     1       1.157   3.174   0.008  0.00  0.00    +0.046 A 
ATOM     23  C   UNL     1      -0.051   3.844   0.023  0.00  0.00    +0.009 A 
BRANCH  21  24
ATOM     24  O   UNL     1       2.366   1.125  -0.015  0.00  0.00    -0.495 OA
ATOM     25  C   UNL     1       3.553   1.921  -0.022  0.00  0.00    +0.277 C 
ENDBRANCH  21  24
ENDBRANCH   6  18
BRANCH  10  26
ATOM     26  S   UNL     1      -4.325   3.425  -4.903  0.00  0.00    -0.076 S 
BRANCH  26  27
ATOM     27  C   UNL     1      -5.776   2.389  -5.233  0.00  0.00    +0.157 C 
BRANCH  27  28
ATOM     28  C   UNL     1      -6.088   2.416  -6.707  0.00  0.00    +0.173 C 
ATOM     29  O   UNL     1      -5.399   3.070  -7.461  0.00  0.00    -0.291 OA
BRANCH  28  30
ATOM     30  C   UNL     1      -7.227   1.650  -7.231  0.00  0.00    +0.018 A 
ATOM     31  C   UNL     1      -8.021   0.890  -6.363  0.00  0.00    +0.015 A 
ATOM     32  C   UNL     1      -9.086   0.181  -6.856  0.00  0.00    +0.046 A 
ATOM     33  C   UNL     1      -9.372   0.208  -8.217  0.00  0.00    +0.120 A 
ATOM     34  C   UNL     1      -8.584   0.957  -9.084  0.00  0.00    +0.046 A 
ATOM     35  C   UNL     1      -7.519   1.674  -8.600  0.00  0.00    +0.015 A 
BRANCH  33  36
ATOM     36  O   UNL     1     -10.423  -0.500  -8.701  0.00  0.00    -0.495 OA
ATOM     37  C   UNL     1     -11.192  -1.248  -7.756  0.00  0.00    +0.277 C 
ENDBRANCH  33  36
ENDBRANCH  28  30
ENDBRANCH  27  28
ENDBRANCH  26  27
ENDBRANCH  10  26
TORSDOF 7
