REMARK  Name = ZINC39367152
REMARK  8 active torsions:
REMARK  status: ('A' for Active; 'I' for Inactive)
REMARK    1  A    between atoms: C_4  and  C_7
REMARK    2  A    between atoms: C_7  and  C_9
REMARK    3  A    between atoms: C_9  and  S_10
REMARK    4  A    between atoms: S_10  and  C_11
REMARK    5  A    between atoms: N_22  and  N_23
REMARK    6  A    between atoms: C_24  and  C_26
REMARK    7  A    between atoms: C_26  and  C_27
REMARK    8  A    between atoms: C_27  and  C_28
REMARK                            x       y       z     vdW  Elec       q    Type
REMARK                         _______ _______ _______ _____ _____    ______ ____
ROOT
ATOM      1  C   UNL     1       5.293  -4.571  -0.075  0.00  0.00    +0.241 C 
ATOM      2  N   UNL     1       4.585  -5.007   1.133  0.00  0.00    -0.316 N 
ATOM      3  C   UNL     1       3.203  -4.861   1.189  0.00  0.00    +0.041 A 
ATOM      4  C   UNL     1       2.537  -4.677   2.389  0.00  0.00    +0.024 A 
ATOM      5  C   UNL     1       1.162  -4.547   2.395  0.00  0.00    +0.002 A 
ATOM      6  C   UNL     1       0.444  -4.599   1.211  0.00  0.00    +0.001 A 
ATOM      7  C   UNL     1       1.092  -4.777   0.006  0.00  0.00    +0.015 A 
ATOM      8  C   UNL     1       2.479  -4.905  -0.015  0.00  0.00    +0.059 A 
ATOM      9  C   UNL     1       3.220  -5.072  -1.278  0.00  0.00    +0.267 C 
ATOM     10  O   UNL     1       2.622  -5.279  -2.317  0.00  0.00    -0.268 OA
ATOM     11  N   UNL     1       4.562  -4.993  -1.270  0.00  0.00    -0.186 N 
ATOM     12  H   UNL     1       5.071  -5.392   1.879  0.00  0.00    +0.149 HD
ENDROOT
BRANCH  11  13
ATOM     13  N   UNL     1       5.272  -5.322  -2.432  0.00  0.00    -0.229 N 
ATOM     14  C   UNL     1       5.417  -6.613  -2.791  0.00  0.00    +0.230 C 
ATOM     15  O   UNL     1       4.931  -7.490  -2.108  0.00  0.00    -0.274 OA
ATOM     16  H   UNL     1       5.661  -4.621  -2.978  0.00  0.00    +0.173 HD
BRANCH  14  17
ATOM     17  C   UNL     1       6.181  -6.967  -4.040  0.00  0.00    +0.102 C 
BRANCH  17  18
ATOM     18  C   UNL     1       6.195  -8.487  -4.216  0.00  0.00    +0.046 C 
BRANCH  18  19
ATOM     19  C   UNL     1       6.960  -8.841  -5.466  0.00  0.00    -0.022 A 
ATOM     20  C   UNL     1       8.410  -9.009  -5.582  0.00  0.00    +0.003 A 
ATOM     21  C   UNL     1       9.473  -8.913  -4.682  0.00  0.00    +0.010 A 
ATOM     22  C   UNL     1      10.750  -9.135  -5.114  0.00  0.00    +0.001 A 
ATOM     23  C   UNL     1      10.999  -9.455  -6.442  0.00  0.00    +0.002 A 
ATOM     24  C   UNL     1       9.965  -9.555  -7.347  0.00  0.00    +0.026 A 
ATOM     25  C   UNL     1       8.657  -9.334  -6.928  0.00  0.00    +0.047 A 
ATOM     26  N   UNL     1       7.440  -9.357  -7.571  0.00  0.00    -0.360 N 
ATOM     27  C   UNL     1       6.440  -9.067  -6.683  0.00  0.00    +0.087 A 
ATOM     28  H   UNL     1       7.310  -9.555  -8.511  0.00  0.00    +0.165 HD
ENDBRANCH  18  19
ENDBRANCH  17  18
ENDBRANCH  14  17
ENDBRANCH  11  13
BRANCH   1  29
ATOM     29  S   UNL     1       5.436  -2.762  -0.067  0.00  0.00    -0.110 S 
BRANCH  29  30
ATOM     30  C   UNL     1       3.716  -2.186  -0.046  0.00  0.00    +0.152 C 
BRANCH  30  31
ATOM     31  C   UNL     1       3.691  -0.679  -0.038  0.00  0.00    +0.173 C 
ATOM     32  O   UNL     1       4.731  -0.056  -0.045  0.00  0.00    -0.291 OA
BRANCH  31  36
ATOM     33  C   UNL     1      -0.017   1.380   0.010  0.00  0.00    +0.000 A 
ATOM     34  C   UNL     1       1.168   2.095   0.002  0.00  0.00    +0.001 A 
ATOM     35  C   UNL     1       2.377   1.433  -0.013  0.00  0.00    +0.011 A 
ATOM     36  C   UNL     1       2.405   0.035  -0.021  0.00  0.00    +0.018 A 
ATOM     37  C   UNL     1       1.203  -0.681  -0.013  0.00  0.00    +0.011 A 
ATOM     38  C   UNL     1       0.002  -0.004   0.002  0.00  0.00    +0.001 A 
ENDBRANCH  31  36
ENDBRANCH  30  31
ENDBRANCH  29  30
ENDBRANCH   1  29
TORSDOF 8
