REMARK  Name = ZINC21090817
REMARK  7 active torsions:
REMARK  status: ('A' for Active; 'I' for Inactive)
REMARK    1  A    between atoms: C_1  and  C_2
REMARK    2  A    between atoms: C_5  and  C_17
REMARK    3  A    between atoms: C_8  and  C_10
REMARK    4  A    between atoms: C_20  and  O_23
REMARK    5  A    between atoms: O_23  and  C_24
REMARK    6  A    between atoms: C_24  and  C_26
REMARK    7  A    between atoms: C_29  and  N_32
REMARK                            x       y       z     vdW  Elec       q    Type
REMARK                         _______ _______ _______ _____ _____    ______ ____
ROOT
ATOM      1  C   UNL     1      -0.523  -9.024   0.063  0.00  0.00    +0.013 A 
ATOM      2  C   UNL     1      -1.805  -8.508   0.004  0.00  0.00    +0.012 A 
ATOM      3  C   UNL     1      -2.000  -7.141  -0.021  0.00  0.00    +0.047 A 
ATOM      4  C   UNL     1      -0.909  -6.285   0.012  0.00  0.00    +0.132 A 
ATOM      5  C   UNL     1       0.377  -6.805   0.064  0.00  0.00    +0.047 A 
ATOM      6  C   UNL     1       0.566  -8.173   0.096  0.00  0.00    +0.012 A 
ENDROOT
BRANCH   1  11
ATOM      7  C   UNL     1       2.579 -10.999   2.642  0.00  0.00    +0.111 C 
ATOM      8  C   UNL     1       1.242 -10.582   2.084  0.00  0.00    +0.235 C 
ATOM      9  O   UNL     1       0.442 -10.007   2.792  0.00  0.00    -0.274 OA
ATOM     10  N   UNL     1       0.936 -10.848   0.799  0.00  0.00    -0.146 N 
ATOM     11  C   UNL     1      -0.314 -10.516   0.092  0.00  0.00    +0.319 C 
ATOM     12  O   UNL     1      -0.114 -11.021  -1.237  0.00  0.00    -0.447 OA
ATOM     13  C   UNL     1       1.120 -11.579  -1.282  0.00  0.00    +0.241 C 
ATOM     14  N   UNL     1       1.739 -11.499  -0.149  0.00  0.00    -0.135 NA
BRANCH  13  15
ATOM     15  C   UNL     1       1.693 -12.209  -2.490  0.00  0.00    +0.057 A 
ATOM     16  C   UNL     1       2.979 -12.762  -2.462  0.00  0.00    +0.031 A 
ATOM     17  C   UNL     1       3.468 -13.345  -3.619  0.00  0.00    +0.037 A 
ATOM     18  C   UNL     1       2.681 -13.353  -4.758  0.00  0.00    +0.126 A 
ATOM     19  N   UNL     1       1.474 -12.820  -4.755  0.00  0.00    -0.261 NA
ATOM     20  C   UNL     1       0.964 -12.258  -3.679  0.00  0.00    +0.124 A 
ATOM     21 BR   UNL     1       5.194 -14.116  -3.645  0.00  0.00    -0.049 Br
ENDBRANCH  13  15
ENDBRANCH   1  11
BRANCH   4  22
ATOM     22  O   UNL     1      -1.098  -4.940  -0.013  0.00  0.00    -0.422 OA
BRANCH  22  23
ATOM     23  C   UNL     1      -1.496  -4.356   1.134  0.00  0.00    +0.344 C 
ATOM     24  O   UNL     1      -1.755  -5.040   2.104  0.00  0.00    -0.245 OA
BRANCH  23  25
ATOM     25  C   UNL     1      -1.617  -2.886   1.212  0.00  0.00    +0.060 A 
ATOM     26  C   UNL     1      -2.029  -2.279   2.400  0.00  0.00    +0.017 A 
ATOM     27  C   UNL     1      -2.139  -0.905   2.466  0.00  0.00    +0.033 A 
ATOM     28  C   UNL     1      -1.843  -0.130   1.358  0.00  0.00    +0.126 A 
ATOM     29  C   UNL     1      -1.440  -0.726   0.177  0.00  0.00    +0.033 A 
ATOM     30  C   UNL     1      -1.319  -2.098   0.099  0.00  0.00    +0.017 A 
BRANCH  28  31
ATOM     31  N   UNL     1      -1.964   1.343   1.437  0.00  0.00    +0.056 N 
ATOM     32  O   UNL     1      -2.324   1.870   2.474  0.00  0.00    -0.126 OA
ATOM     33  O   UNL     1      -1.700   2.028   0.465  0.00  0.00    -0.126 OA
ENDBRANCH  28  31
ENDBRANCH  23  25
ENDBRANCH  22  23
ENDBRANCH   4  22
TORSDOF 6
