REMARK  Name = ZINC16677381
REMARK  9 active torsions:
REMARK  status: ('A' for Active; 'I' for Inactive)
REMARK    1  A    between atoms: C_1  and  C_2
REMARK    2  A    between atoms: C_3  and  C_29
REMARK    3  A    between atoms: C_4  and  C_23
REMARK    4  A    between atoms: C_6  and  C_21
REMARK    5  A    between atoms: C_7  and  S_9
REMARK    6  A    between atoms: S_9  and  C_10
REMARK    7  A    between atoms: C_10  and  C_11
REMARK    8  A    between atoms: N_13  and  C_14
REMARK    9  A    between atoms: C_29  and  C_31
REMARK                            x       y       z     vdW  Elec       q    Type
REMARK                         _______ _______ _______ _____ _____    ______ ____
ROOT
ATOM      1  C   UNL     1       3.784  -3.641  -2.551  0.00  0.00    +0.061 C 
ATOM      2  C   UNL     1       3.153  -3.174  -1.264  0.00  0.00    +0.013 C 
ATOM      3  C   UNL     1       1.893  -2.693  -1.278  0.00  0.00    +0.024 C 
ATOM      4  C   UNL     1       1.221  -2.207  -0.026  0.00  0.00    +0.096 C 
ATOM      5  C   UNL     1       1.952  -2.689   1.194  0.00  0.00    +0.069 C 
ATOM      6  C   UNL     1       3.220  -3.175   1.112  0.00  0.00    +0.080 C 
ATOM      7  N   UNL     1       3.866  -3.243  -0.103  0.00  0.00    -0.312 N 
ATOM      8  H   UNL     1       4.960  -3.355  -0.134  0.00  0.00    +0.152 HD
ENDROOT
BRANCH   4   9
ATOM      9  C   UNL     1       1.200  -0.700  -0.028  0.00  0.00    -0.035 A 
ATOM     10  C   UNL     1      -0.006  -0.025  -0.014  0.00  0.00    +0.004 A 
ATOM     11  C   UNL     1      -0.026   1.357  -0.016  0.00  0.00    +0.000 A 
ATOM     12  C   UNL     1       1.162   2.065  -0.032  0.00  0.00    +0.000 A 
ATOM     13  C   UNL     1       2.368   1.390  -0.046  0.00  0.00    +0.000 A 
ATOM     14  C   UNL     1       2.388   0.008  -0.044  0.00  0.00    +0.004 A 
ENDBRANCH   4   9
BRANCH   3  15
ATOM     15  C   UNL     1       1.191  -2.648  -2.493  0.00  0.00    +0.159 C 
ATOM     16  O   UNL     1       1.720  -3.038  -3.515  0.00  0.00    -0.293 OA
ATOM     17  C   UNL     1      -0.218  -2.115  -2.530  0.00  0.00    +0.091 C 
ENDBRANCH   3  15
BRANCH   5  18
ATOM     18  C   UNL     1       1.302  -2.637   2.469  0.00  0.00    +0.098 C 
ATOM     19  N   UNL     1       0.786  -2.596   3.480  0.00  0.00    -0.191 NA
ENDBRANCH   5  18
BRANCH   6  20
ATOM     20  S   UNL     1       4.043  -3.720   2.571  0.00  0.00    -0.100 S 
BRANCH  20  21
ATOM     21  C   UNL     1       5.628  -4.235   1.864  0.00  0.00    +0.171 C 
BRANCH  21  22
ATOM     22  C   UNL     1       6.522  -4.753   2.961  0.00  0.00    +0.227 C 
ATOM     23  O   UNL     1       6.128  -4.772   4.107  0.00  0.00    -0.275 OA
ATOM     24  N   UNL     1       7.761  -5.195   2.667  0.00  0.00    -0.285 N 
ATOM     25  H   UNL     1       8.092  -5.250   1.619  0.00  0.00    +0.155 HD
BRANCH  24  26
ATOM     26  C   UNL     1       8.627  -5.586   3.695  0.00  0.00    +0.033 A 
ATOM     27  C   UNL     1       9.991  -5.353   3.582  0.00  0.00    +0.024 A 
ATOM     28  C   UNL     1      10.842  -5.734   4.600  0.00  0.00    +0.017 A 
ATOM     29  C   UNL     1      10.338  -6.358   5.728  0.00  0.00    +0.018 A 
ATOM     30  C   UNL     1       8.980  -6.596   5.841  0.00  0.00    +0.017 A 
ATOM     31  C   UNL     1       8.124  -6.211   4.828  0.00  0.00    +0.024 A 
ATOM     32 BR   UNL     1      11.508  -6.885   7.117  0.00  0.00    -0.050 Br
ENDBRANCH  24  26
ENDBRANCH  21  22
ENDBRANCH  20  21
ENDBRANCH   6  20
TORSDOF 7
