REMARK  Name = ZINC08994702
REMARK  7 active torsions:
REMARK  status: ('A' for Active; 'I' for Inactive)
REMARK    1  A    between atoms: C_1  and  C_2
REMARK    2  A    between atoms: C_2  and  N_55
REMARK    3  A    between atoms: C_15  and  C_17
REMARK    4  A    between atoms: C_18  and  O_32
REMARK    5  A    between atoms: C_20  and  O_31
REMARK    6  A    between atoms: N_21  and  C_24
REMARK    7  A    between atoms: C_29  and  C_30
REMARK                            x       y       z     vdW  Elec       q    Type
REMARK                         _______ _______ _______ _____ _____    ______ ____
ROOT
ATOM      1  C   UNL     1       4.881  -3.349   0.919  0.00  0.00    +0.071 A 
ATOM      2  C   UNL     1       6.189  -3.398   0.468  0.00  0.00    +0.224 A 
ATOM      3  N   UNL     1       7.197  -3.314   1.343  0.00  0.00    -0.161 NA
ATOM      4  C   UNL     1       6.972  -3.196   2.632  0.00  0.00    +0.306 A 
ATOM      5  N   UNL     1       5.706  -3.148   3.128  0.00  0.00    -0.230 N 
ATOM      6  C   UNL     1       4.649  -3.222   2.294  0.00  0.00    +0.267 A 
ATOM      7  O   UNL     1       3.509  -3.180   2.729  0.00  0.00    -0.267 OA
ENDROOT
BRANCH   1  20
ATOM      8  C   UNL     1       1.586  -4.513  -0.440  0.00  0.00    -0.073 C 
ATOM      9  C   UNL     1       0.725  -3.310  -0.030  0.00  0.00    +0.019 C 
ATOM     10  C   UNL     1       1.609  -2.088  -0.027  0.00  0.00    -0.022 A 
ATOM     11  C   UNL     1       1.222  -0.683  -0.014  0.00  0.00    +0.003 A 
ATOM     12  C   UNL     1       0.002  -0.004   0.002  0.00  0.00    +0.010 A 
ATOM     13  C   UNL     1      -0.016   1.361   0.009  0.00  0.00    +0.001 A 
ATOM     14  C   UNL     1       1.170   2.083   0.002  0.00  0.00    +0.002 A 
ATOM     15  C   UNL     1       2.385   1.435  -0.013  0.00  0.00    +0.026 A 
ATOM     16  C   UNL     1       2.429   0.045  -0.021  0.00  0.00    +0.047 A 
ATOM     17  N   UNL     1       3.460  -0.870  -0.035  0.00  0.00    -0.359 N 
ATOM     18  H   UNL     1       4.403  -0.645  -0.043  0.00  0.00    +0.166 HD
ATOM     19  C   UNL     1       2.956  -2.138  -0.038  0.00  0.00    +0.011 A 
ATOM     20  C   UNL     1       3.731  -3.435  -0.051  0.00  0.00    +0.021 C 
ATOM     21  N   UNL     1       2.816  -4.518   0.384  0.00  0.00    +0.388 N 
ATOM     22  H   UNL     1       2.559  -4.362   1.365  0.00  0.00    -0.080 HD
BRANCH  21  24
ATOM     23  C   UNL     1       2.616  -6.894   0.924  0.00  0.00    -0.017 C 
ATOM     24  C   UNL     1       3.494  -5.826   0.268  0.00  0.00    -0.081 C 
ENDBRANCH  21  24
ENDBRANCH   1  20
BRANCH   5  25
ATOM     25  C   UNL     1       5.501  -3.021   4.509  0.00  0.00    +0.057 A 
ATOM     26  C   UNL     1       5.397  -4.155   5.303  0.00  0.00    +0.026 A 
ATOM     27  C   UNL     1       5.195  -4.028   6.663  0.00  0.00    +0.002 A 
ATOM     28  C   UNL     1       5.096  -2.772   7.234  0.00  0.00    +0.000 A 
ATOM     29  C   UNL     1       5.199  -1.641   6.446  0.00  0.00    +0.005 A 
ATOM     30  C   UNL     1       5.406  -1.762   5.085  0.00  0.00    -0.026 A 
ATOM     31  C   UNL     1       5.524  -0.529   4.228  0.00  0.00    +0.046 C 
ENDBRANCH   5  25
BRANCH   4  32
ATOM     32  O   UNL     1       8.018  -3.120   3.480  0.00  0.00    -0.479 OA
ATOM     33  H   UNL     1       8.902  -3.158   3.091  0.00  0.00    +0.295 HD
ENDBRANCH   4  32
BRANCH   2  34
ATOM     34  O   UNL     1       6.447  -3.526  -0.855  0.00  0.00    -0.492 OA
ATOM     35  H   UNL     1       7.389  -3.551  -1.071  0.00  0.00    +0.294 HD
ENDBRANCH   2  34
TORSDOF 5
