REMARK  Name = ZINC36118702
REMARK  8 active torsions:
REMARK  status: ('A' for Active; 'I' for Inactive)
REMARK    1  A    between atoms: C_4  and  C_7
REMARK    2  A    between atoms: C_7  and  C_8
REMARK    3  A    between atoms: C_8  and  N_9
REMARK    4  A    between atoms: C_10  and  C_12
REMARK    5  A    between atoms: C_15  and  C_18
REMARK    6  A    between atoms: C_18  and  N_19
REMARK    7  A    between atoms: N_19  and  C_20
REMARK    8  A    between atoms: C_29  and  O_30
REMARK                            x       y       z     vdW  Elec       q    Type
REMARK                         _______ _______ _______ _____ _____    ______ ____
ROOT
ATOM      1  C   UNL     1       6.928  -2.735   3.725  0.00  0.00    +0.075 C 
ATOM      2  C   UNL     1       7.258  -1.726   4.826  0.00  0.00    +0.013 C 
ATOM      3  C   UNL     1       7.999  -0.533   4.220  0.00  0.00    +0.006 C 
ATOM      4  C   UNL     1       9.296  -1.017   3.567  0.00  0.00    +0.006 C 
ATOM      5  C   UNL     1       8.966  -2.026   2.465  0.00  0.00    +0.006 C 
ATOM      6  C   UNL     1       8.225  -3.219   3.072  0.00  0.00    +0.013 C 
ENDROOT
BRANCH   1   8
ATOM      7  N   UNL     1       4.857  -1.573   3.033  0.00  0.00    -0.315 N 
ATOM      8  C   UNL     1       6.057  -2.078   2.685  0.00  0.00    +0.216 C 
ATOM      9  O   UNL     1       6.436  -2.004   1.536  0.00  0.00    -0.276 OA
ATOM     10  H   UNL     1       4.554  -1.632   3.953  0.00  0.00    +0.149 HD
BRANCH   7  11
ATOM     11  C   UNL     1       4.011  -0.934   2.023  0.00  0.00    +0.108 C 
BRANCH  11  12
ATOM     12  C   UNL     1       2.714  -0.450   2.675  0.00  0.00    +0.049 C 
BRANCH  12  16
ATOM     13  C   UNL     1      -0.019   1.526   0.010  0.00  0.00    +0.004 C 
ATOM     14  C   UNL     1       1.430   2.031  -0.001  0.00  0.00    +0.005 C 
ATOM     15  C   UNL     1       2.083   1.657   1.332  0.00  0.00    +0.030 C 
ATOM     16  C   UNL     1       1.843   0.207   1.636  0.00  0.00    -0.072 C 
ATOM     17  C   UNL     1       0.935  -0.514   1.061  0.00  0.00    -0.028 C 
ATOM     18  C   UNL     1       0.002  -0.004   0.002  0.00  0.00    +0.027 C 
ENDBRANCH  12  16
ENDBRANCH  11  12
ENDBRANCH   7  11
ENDBRANCH   1   8
BRANCH   4  19
ATOM     19  C   UNL     1      10.037   0.176   2.960  0.00  0.00    +0.105 C 
BRANCH  19  20
ATOM     20  N   UNL     1      11.334  -0.267   2.441  0.00  0.00    -0.339 N 
ATOM     21  H   UNL     1      11.593  -1.199   2.517  0.00  0.00    +0.146 HD
BRANCH  20  22
ATOM     22  C   UNL     1      12.179   0.634   1.847  0.00  0.00    +0.101 C 
ATOM     23  C   UNL     1      13.514   0.535   1.228  0.00  0.00    +0.114 C 
ATOM     24  N   UNL     1      14.381  -0.413   1.010  0.00  0.00    -0.366 N 
ATOM     25  C   UNL     1      14.215  -1.827   1.377  0.00  0.00    +0.116 C 
ATOM     26  C   UNL     1      15.500  -2.566   0.948  0.00  0.00    +0.023 C 
ATOM     27  C   UNL     1      16.549  -1.425   0.876  0.00  0.00    +0.023 C 
ATOM     28  C   UNL     1      15.688  -0.247   0.349  0.00  0.00    +0.116 C 
ATOM     29  C   UNL     1      13.432   1.992   0.964  0.00  0.00    +0.247 C 
ATOM     30  O   UNL     1      14.152   2.824   0.445  0.00  0.00    -0.282 OA
ATOM     31  C   UNL     1      12.111   1.995   1.589  0.00  0.00    +0.189 C 
BRANCH  31  32
ATOM     32  O   UNL     1      11.182   2.954   1.824  0.00  0.00    -0.502 OA
ATOM     33  H   UNL     1      11.438   3.833   1.515  0.00  0.00    +0.292 HD
ENDBRANCH  31  32
ENDBRANCH  20  22
ENDBRANCH  19  20
ENDBRANCH   4  19
TORSDOF 8
