REMARK  Name = ZINC30978830
REMARK  9 active torsions:
REMARK  status: ('A' for Active; 'I' for Inactive)
REMARK    1  A    between atoms: C_1  and  C_2
REMARK    2  A    between atoms: C_2  and  C_3
REMARK    3  A    between atoms: C_3  and  C_5
REMARK    4  A    between atoms: C_3  and  N_12
REMARK    5  A    between atoms: C_8  and  C_11
REMARK    6  A    between atoms: C_13  and  C_15
REMARK    7  A    between atoms: N_18  and  C_21
REMARK    8  A    between atoms: C_21  and  C_22
REMARK    9  A    between atoms: C_24  and  C_27
REMARK                            x       y       z     vdW  Elec       q    Type
REMARK                         _______ _______ _______ _____ _____    ______ ____
ROOT
ATOM      1  C   UNL     1       6.288   7.886   3.750  0.00  0.00    +0.071 C 
ATOM      2  C   UNL     1       5.702   8.991   2.867  0.00  0.00    -0.006 C 
ATOM      3  C   UNL     1       5.602   8.486   1.426  0.00  0.00    -0.077 C 
ATOM      4  N   UNL     1       4.746   7.294   1.381  0.00  0.00    +0.386 N 
ATOM      5  C   UNL     1       5.312   6.203   2.185  0.00  0.00    -0.077 C 
ATOM      6  C   UNL     1       5.404   6.640   3.649  0.00  0.00    -0.006 C 
ATOM      7  H   UNL     1       3.774   7.563   1.820  0.00  0.00    -0.081 HD
ENDROOT
BRANCH   1   9
ATOM      8  N   UNL     1       6.814   7.543   6.143  0.00  0.00    -0.308 N 
ATOM      9  C   UNL     1       6.333   8.356   5.181  0.00  0.00    +0.216 C 
ATOM     10  O   UNL     1       5.936   9.465   5.468  0.00  0.00    -0.276 OA
ATOM     11  H   UNL     1       7.174   6.537   5.883  0.00  0.00    +0.149 HD
BRANCH   8  12
ATOM     12  C   UNL     1       6.858   8.000   7.534  0.00  0.00    +0.103 C 
BRANCH  12  13
ATOM     13  C   UNL     1       6.830   6.808   8.455  0.00  0.00    -0.027 A 
ATOM     14  C   UNL     1       7.547   5.670   8.135  0.00  0.00    +0.006 A 
ATOM     15  C   UNL     1       7.526   4.578   8.982  0.00  0.00    +0.004 A 
ATOM     16  C   UNL     1       6.779   4.620  10.145  0.00  0.00    -0.050 A 
ATOM     17  C   UNL     1       6.059   5.756  10.463  0.00  0.00    +0.004 A 
ATOM     18  C   UNL     1       6.084   6.850   9.618  0.00  0.00    +0.006 A 
ATOM     19  C   UNL     1       6.751   3.427  11.066  0.00  0.00    +0.044 C 
ENDBRANCH  12  13
BRANCH  12  21
ATOM     20  C   UNL     1       8.114  10.072   6.925  0.00  0.00    +0.006 C 
ATOM     21  C   UNL     1       8.143   8.796   7.769  0.00  0.00    +0.024 C 
ENDBRANCH  12  21
ENDBRANCH   8  12
ENDBRANCH   1   9
BRANCH   4  22
ATOM     22  C   UNL     1       4.515   6.863  -0.004  0.00  0.00    +0.022 C 
BRANCH  22  23
ATOM     23  C   UNL     1       3.846   5.513  -0.004  0.00  0.00    +0.211 A 
ATOM     24  N   UNL     1       2.557   5.283   0.001  0.00  0.00    -0.193 NA
ATOM     25  C   UNL     1       2.427   3.937   0.001  0.00  0.00    +0.202 A 
ATOM     26  N   UNL     1       3.634   3.433  -0.014  0.00  0.00    -0.056 NA
ATOM     27  O   UNL     1       4.457   4.324  -0.017  0.00  0.00    -0.340 OA
BRANCH  25  28
ATOM     28  C   UNL     1       1.154   3.174   0.008  0.00  0.00    +0.023 A 
ATOM     29  C   UNL     1       1.174   1.781   0.000  0.00  0.00    +0.012 A 
ATOM     30  C   UNL     1      -0.013   1.076   0.008  0.00  0.00    +0.002 A 
ATOM     31  C   UNL     1      -1.220   1.750   0.017  0.00  0.00    +0.015 A 
ATOM     32  C   UNL     1      -1.246   3.133   0.031  0.00  0.00    +0.019 A 
ATOM     33  C   UNL     1      -0.065   3.848   0.023  0.00  0.00    +0.027 A 
ATOM     34 BR   UNL     1      -2.902   4.046   0.051  0.00  0.00    -0.050 Br
ENDBRANCH  25  28
ENDBRANCH  22  23
ENDBRANCH   4  22
TORSDOF 7
