REMARK  Name = ZINC39690709
REMARK  4 active torsions:
REMARK  status: ('A' for Active; 'I' for Inactive)
REMARK    1  A    between atoms: C_5  and  C_7
REMARK    2  A    between atoms: C_7  and  N_8
REMARK    3  A    between atoms: C_9  and  C_11
REMARK    4  A    between atoms: C_22  and  C_24
REMARK                            x       y       z     vdW  Elec       q    Type
REMARK                         _______ _______ _______ _____ _____    ______ ____
ROOT
ATOM      1  C   UNL     1       1.842  -4.510   3.037  0.00  0.00    +0.100 C 
ATOM      2  C   UNL     1       0.743  -3.980   3.985  0.00  0.00    +0.121 C 
ATOM      3  N   UNL     1      -0.262  -5.067   4.039  0.00  0.00    -0.297 N 
ATOM      4  C   UNL     1       0.542  -6.312   4.066  0.00  0.00    +0.115 C 
ATOM      5  C   UNL     1       1.709  -6.041   3.096  0.00  0.00    -0.004 C 
ATOM      6  C   UNL     1       2.996  -6.663   3.630  0.00  0.00    -0.010 C 
ATOM      7  C   UNL     1       2.861  -8.189   3.624  0.00  0.00    -0.082 C 
ATOM      8  N   UNL     1       2.600  -8.653   2.256  0.00  0.00    +0.379 N 
ATOM      9  C   UNL     1       1.314  -8.125   1.785  0.00  0.00    -0.082 C 
ATOM     10  C   UNL     1       1.383  -6.597   1.713  0.00  0.00    -0.010 C 
ATOM     11  C   UNL     1      -1.605  -4.951   4.059  0.00  0.00    +0.260 C 
ATOM     12  O   UNL     1      -2.121  -3.860   3.933  0.00  0.00    -0.271 OA
ATOM     13  H   UNL     1       3.337  -8.333   1.647  0.00  0.00    -0.086 HD
ATOM     14  H   UNL     1       2.572  -9.662   2.245  0.00  0.00    -0.086 HD
ENDROOT
BRANCH  11  15
ATOM     15  C   UNL     1      -2.465  -6.175   4.237  0.00  0.00    +0.296 C 
ATOM     16  C   UNL     1      -2.301  -6.720   5.662  0.00  0.00    +0.283 C 
ATOM     17  O   UNL     1      -3.140  -7.872   5.801  0.00  0.00    -0.484 OA
ATOM     18  C   UNL     1      -4.415  -7.759   5.338  0.00  0.00    +0.162 A 
ATOM     19  C   UNL     1      -5.373  -8.672   5.752  0.00  0.00    +0.049 A 
ATOM     20  C   UNL     1      -6.671  -8.572   5.287  0.00  0.00    +0.004 A 
ATOM     21  C   UNL     1      -7.017  -7.563   4.409  0.00  0.00    +0.004 A 
ATOM     22  C   UNL     1      -6.068  -6.649   3.993  0.00  0.00    +0.049 A 
ATOM     23  C   UNL     1      -4.764  -6.743   4.456  0.00  0.00    +0.163 A 
ATOM     24  O   UNL     1      -3.841  -5.831   4.043  0.00  0.00    -0.473 OA
ENDBRANCH  11  15
BRANCH   1  26
ATOM     25  N   UNL     1       2.649  -3.815   0.805  0.00  0.00    -0.311 N 
ATOM     26  C   UNL     1       1.605  -4.017   1.633  0.00  0.00    +0.218 C 
ATOM     27  O   UNL     1       0.476  -3.801   1.248  0.00  0.00    -0.275 OA
ATOM     28  H   UNL     1       3.553  -3.987   1.113  0.00  0.00    +0.149 HD
BRANCH  25  29
ATOM     29  C   UNL     1       2.420  -3.335  -0.560  0.00  0.00    +0.140 C 
BRANCH  29  34
ATOM     30  C   UNL     1       5.542  -1.819  -2.045  0.00  0.00    +0.000 A 
ATOM     31  C   UNL     1       6.164  -2.933  -2.578  0.00  0.00    +0.001 A 
ATOM     32  C   UNL     1       5.574  -4.177  -2.459  0.00  0.00    +0.015 A 
ATOM     33  C   UNL     1       4.362  -4.308  -1.805  0.00  0.00    +0.023 A 
ATOM     34  C   UNL     1       3.741  -3.193  -1.272  0.00  0.00    -0.016 A 
ATOM     35  C   UNL     1       4.331  -1.949  -1.392  0.00  0.00    +0.006 A 
ATOM     36 BR   UNL     1       3.554  -6.010  -1.642  0.00  0.00    -0.050 Br
ENDBRANCH  29  34
ENDBRANCH  25  29
ENDBRANCH   1  26
TORSDOF 4
