REMARK  Name = ZINC60041827
REMARK  12 active torsions:
REMARK  status: ('A' for Active; 'I' for Inactive)
REMARK    1  A    between atoms: C_1  and  C_2
REMARK    2  A    between atoms: C_2  and  N_3
REMARK    3  A    between atoms: N_3  and  C_4
REMARK    4  A    between atoms: C_5  and  N_20
REMARK    5  A    between atoms: N_6  and  C_13
REMARK    6  A    between atoms: C_13  and  C_14
REMARK    7  A    between atoms: C_21  and  C_23
REMARK    8  A    between atoms: C_23  and  N_24
REMARK    9  A    between atoms: N_24  and  C_25
REMARK   10  A    between atoms: N_24  and  C_32
REMARK   11  A    between atoms: C_25  and  C_26
REMARK   12  A    between atoms: C_32  and  C_33
REMARK                            x       y       z     vdW  Elec       q    Type
REMARK                         _______ _______ _______ _____ _____    ______ ____
ROOT
ATOM      1  N   UNL     1       0.455   0.346  -1.062  0.00  0.00    -0.266 N 
ATOM      2  C   UNL     1      -0.105  -0.269  -2.125  0.00  0.00    +0.203 C 
ATOM      3  O   UNL     1       0.600  -0.736  -2.996  0.00  0.00    -0.277 OA
ENDROOT
BRANCH   1   4
ATOM      4  C   UNL     1       1.850   0.549  -1.018  0.00  0.00    +0.140 A 
ATOM      5  C   UNL     1       2.626  -0.108  -0.085  0.00  0.00    +0.128 A 
ATOM      6  N   UNL     1       3.984   0.110  -0.067  0.00  0.00    -0.276 N 
ATOM      7  C   UNL     1       4.549   0.954  -0.949  0.00  0.00    +0.331 A 
ATOM      8  O   UNL     1       5.752   1.133  -0.916  0.00  0.00    -0.246 OA
ATOM      9  N   UNL     1       3.810   1.602  -1.865  0.00  0.00    -0.273 N 
ATOM     10  H   UNL     1       4.242   2.205  -2.490  0.00  0.00    +0.173 HD
ATOM     11  C   UNL     1       2.476   1.420  -1.930  0.00  0.00    +0.277 A 
ATOM     12  O   UNL     1       1.816   2.009  -2.768  0.00  0.00    -0.266 OA
BRANCH   5  13
ATOM     13  N   UNL     1       2.048  -0.970   0.817  0.00  0.00    -0.343 N 
ATOM     14  H   UNL     1       1.084  -1.079   0.834  0.00  0.00    +0.144 HD
ATOM     15  H   UNL     1       2.603  -1.468   1.436  0.00  0.00    +0.144 HD
ENDBRANCH   5  13
BRANCH   6  16
ATOM     16  C   UNL     1       4.819  -0.581   0.919  0.00  0.00    +0.163 C 
BRANCH  16  17
ATOM     17  C   UNL     1       5.290  -1.893   0.347  0.00  0.00    -0.028 A 
ATOM     18  C   UNL     1       4.532  -3.036   0.523  0.00  0.00    +0.005 A 
ATOM     19  C   UNL     1       4.964  -4.239  -0.002  0.00  0.00    +0.000 A 
ATOM     20  C   UNL     1       6.154  -4.300  -0.703  0.00  0.00    +0.000 A 
ATOM     21  C   UNL     1       6.912  -3.158  -0.880  0.00  0.00    +0.000 A 
ATOM     22  C   UNL     1       6.477  -1.953  -0.359  0.00  0.00    +0.005 A 
ENDBRANCH  16  17
ENDBRANCH   6  16
ENDBRANCH   1   4
BRANCH   1  24
ATOM     23  C   UNL     1      -0.762   2.272  -0.171  0.00  0.00    +0.025 C 
ATOM     24  C   UNL     1      -0.387   0.804   0.046  0.00  0.00    +0.110 C 
ENDBRANCH   1  24
BRANCH   2  25
ATOM     25  C   UNL     1      -1.604  -0.377  -2.230  0.00  0.00    +0.020 C 
BRANCH  25  26
ATOM     26  N   UNL     1      -1.959  -1.084  -3.468  0.00  0.00    +0.388 N 
ATOM     27  H   UNL     1      -1.533  -0.619  -4.255  0.00  0.00    -0.081 HD
BRANCH  26  28
ATOM     28  C   UNL     1      -3.419  -1.085  -3.631  0.00  0.00    -0.042 C 
BRANCH  28  29
ATOM     29  C   UNL     1      -3.775  -1.691  -4.963  0.00  0.00    -0.064 A 
ATOM     30  C   UNL     1      -3.762  -0.910  -6.104  0.00  0.00    +0.002 A 
ATOM     31  C   UNL     1      -4.090  -1.467  -7.326  0.00  0.00    +0.000 A 
ATOM     32  C   UNL     1      -4.429  -2.804  -7.408  0.00  0.00    +0.000 A 
ATOM     33  C   UNL     1      -4.441  -3.585  -6.267  0.00  0.00    +0.000 A 
ATOM     34  C   UNL     1      -4.110  -3.030  -5.046  0.00  0.00    +0.002 A 
ENDBRANCH  28  29
ENDBRANCH  26  28
BRANCH  26  35
ATOM     35  C   UNL     1      -1.474  -2.469  -3.397  0.00  0.00    -0.074 C 
BRANCH  35  36
ATOM     36  C   UNL     1      -2.091  -3.164  -2.181  0.00  0.00    -0.028 C 
ATOM     37  C   UNL     1      -1.253  -3.021  -0.899  0.00  0.00    +0.002 C 
ATOM     38  C   UNL     1      -1.606  -4.488  -0.600  0.00  0.00    +0.000 C 
ATOM     39  C   UNL     1      -1.791  -4.671  -2.115  0.00  0.00    +0.002 C 
ENDBRANCH  35  36
ENDBRANCH  26  35
ENDBRANCH  25  26
ENDBRANCH   2  25
TORSDOF 11
