REMARK  Name = ZINC02188821
REMARK  12 active torsions:
REMARK  status: ('A' for Active; 'I' for Inactive)
REMARK    1  A    between atoms: C_1  and  C_2
REMARK    2  A    between atoms: C_2  and  C_3
REMARK    3  A    between atoms: C_6  and  C_9
REMARK    4  A    between atoms: C_11  and  C_38
REMARK    5  A    between atoms: C_12  and  N_37
REMARK    6  A    between atoms: N_13  and  C_23
REMARK    7  A    between atoms: C_19  and  C_21
REMARK    8  A    between atoms: C_19  and  C_22
REMARK    9  A    between atoms: C_24  and  C_32
REMARK   10  A    between atoms: C_32  and  O_34
REMARK   11  A    between atoms: O_34  and  C_35
REMARK   12  A    between atoms: C_35  and  C_36
REMARK                            x       y       z     vdW  Elec       q    Type
REMARK                         _______ _______ _______ _____ _____    ______ ____
ROOT
ATOM      1  C   UNL     1       3.784   2.089  -0.601  0.00  0.00    +0.097 C 
ATOM      2  C   UNL     1       3.974   3.120   0.473  0.00  0.00    +0.077 C 
ATOM      3  C   UNL     1       2.910   3.720   1.065  0.00  0.00    +0.107 C 
ATOM      4  N   UNL     1       1.629   3.382   0.690  0.00  0.00    -0.254 N 
ATOM      5  C   UNL     1       1.383   2.201   0.036  0.00  0.00    +0.025 C 
ATOM      6  C   UNL     1       2.381   1.539  -0.586  0.00  0.00    +0.025 C 
ATOM      7  C   UNL     1       2.141   0.319  -1.243  0.00  0.00    +0.162 C 
ATOM      8  O   UNL     1       3.059  -0.245  -1.805  0.00  0.00    -0.292 OA
ATOM      9  C   UNL     1       0.771  -0.300  -1.264  0.00  0.00    +0.086 C 
ATOM     10  C   UNL     1       0.008   0.133  -0.007  0.00  0.00    -0.023 C 
ATOM     11  C   UNL     1      -0.027   1.663   0.035  0.00  0.00    +0.058 C 
ATOM     12  C   UNL     1       0.722  -0.399   1.237  0.00  0.00    +0.011 C 
ATOM     13  C   UNL     1      -1.421  -0.412  -0.054  0.00  0.00    +0.011 C 
ENDROOT
BRANCH   4  14
ATOM     14  C   UNL     1       0.579   4.243   0.974  0.00  0.00    +0.092 A 
ATOM     15  C   UNL     1      -0.158   4.347   2.147  0.00  0.00    +0.091 A 
ATOM     16  C   UNL     1      -1.216   5.342   2.188  0.00  0.00    -0.021 A 
ATOM     17  C   UNL     1      -1.368   6.067   1.059  0.00  0.00    -0.004 A 
ATOM     18  S   UNL     1      -0.127   5.453  -0.045  0.00  0.00    -0.077 S 
ATOM     19  C   UNL     1      -2.369   7.154   0.811  0.00  0.00    +0.043 C 
ATOM     20  C   UNL     1      -3.450   7.073   1.899  0.00  0.00    +0.005 C 
ATOM     21  C   UNL     1      -2.767   6.953   3.265  0.00  0.00    +0.005 C 
ATOM     22  C   UNL     1      -2.110   5.579   3.399  0.00  0.00    +0.037 C 
BRANCH  15  23
ATOM     23  C   UNL     1       0.122   3.487   3.299  0.00  0.00    +0.342 C 
ATOM     24  O   UNL     1       0.994   3.794   4.089  0.00  0.00    -0.245 OA
BRANCH  23  25
ATOM     25  O   UNL     1      -0.588   2.355   3.484  0.00  0.00    -0.461 OA
BRANCH  25  26
ATOM     26  C   UNL     1      -0.341   1.615   4.708  0.00  0.00    +0.229 C 
ATOM     27  C   UNL     1      -1.147   0.314   4.689  0.00  0.00    +0.048 C 
ENDBRANCH  25  26
ENDBRANCH  23  25
ENDBRANCH  15  23
ENDBRANCH   4  14
BRANCH   1  31
ATOM     28  C   UNL     1       4.547   3.873  -4.406  0.00  0.00    -0.048 A 
ATOM     29  C   UNL     1       5.329   2.821  -3.967  0.00  0.00    +0.004 A 
ATOM     30  C   UNL     1       5.082   2.244  -2.736  0.00  0.00    +0.005 A 
ATOM     31  C   UNL     1       4.054   2.719  -1.943  0.00  0.00    -0.035 A 
ATOM     32  C   UNL     1       3.269   3.768  -2.385  0.00  0.00    +0.005 A 
ATOM     33  C   UNL     1       3.519   4.349  -3.614  0.00  0.00    +0.004 A 
BRANCH  28  35
ATOM     34  C   UNL     1       3.999   3.782  -6.823  0.00  0.00    +0.009 C 
ATOM     35  C   UNL     1       4.816   4.503  -5.749  0.00  0.00    +0.032 C 
ENDBRANCH  28  35
ENDBRANCH   1  31
BRANCH   3  36
ATOM     36  N   UNL     1       3.112   4.667   2.041  0.00  0.00    -0.345 N 
ATOM     37  H   UNL     1       4.012   4.958   2.255  0.00  0.00    +0.144 HD
ATOM     38  H   UNL     1       2.355   5.044   2.515  0.00  0.00    +0.144 HD
ENDBRANCH   3  36
BRANCH   2  39
ATOM     39  C   UNL     1       5.300   3.477   0.879  0.00  0.00    +0.099 C 
ATOM     40  N   UNL     1       6.352   3.760   1.201  0.00  0.00    -0.191 NA
ENDBRANCH   2  39
TORSDOF 8
