REMARK  Name = ZINC13424417
REMARK  4 active torsions:
REMARK  status: ('A' for Active; 'I' for Inactive)
REMARK    1  A    between atoms: C_1  and  O_2
REMARK    2  A    between atoms: O_2  and  C_3
REMARK    3  A    between atoms: C_3  and  C_5
REMARK    4  A    between atoms: C_6  and  N_23
REMARK                            x       y       z     vdW  Elec       q    Type
REMARK                         _______ _______ _______ _____ _____    ______ ____
ROOT
ATOM      1  C   UNL     1      -1.115   7.405   0.897  0.00  0.00    +0.119 A 
ATOM      2  C   UNL     1      -1.067   6.059   1.197  0.00  0.00    +0.055 A 
ATOM      3  C   UNL     1      -1.187   5.105   0.106  0.00  0.00    +0.031 A 
ATOM      4  C   UNL     1      -1.164   3.683   0.173  0.00  0.00    -0.030 A 
ATOM      5  C   UNL     1      -1.297   2.962  -0.966  0.00  0.00    -0.005 A 
ATOM      6  C   UNL     1      -1.448   3.621  -2.197  0.00  0.00    +0.103 A 
ATOM      7  C   UNL     1      -1.344   5.676  -1.175  0.00  0.00    +0.089 A 
ATOM      8  S   UNL     1      -1.325   7.425  -0.873  0.00  0.00    -0.062 S 
ATOM      9  N   UNL     1      -1.579   2.878  -3.361  0.00  0.00    -0.312 N 
ATOM     10  C   UNL     1      -0.477   3.158  -4.292  0.00  0.00    +0.134 C 
ATOM     11  C   UNL     1      -0.628   2.275  -5.534  0.00  0.00    +0.178 C 
ATOM     12  O   UNL     1      -1.909   2.508  -6.125  0.00  0.00    -0.377 OA
ATOM     13  C   UNL     1      -3.006   2.245  -5.245  0.00  0.00    +0.178 C 
ATOM     14  C   UNL     1      -2.879   3.127  -4.001  0.00  0.00    +0.134 C 
ATOM     15  C   UNL     1      -1.292   1.455  -0.977  0.00  0.00    +0.039 C 
ATOM     16  C   UNL     1      -0.694   0.911   0.319  0.00  0.00    +0.005 C 
ATOM     17  C   UNL     1      -1.401   1.586   1.500  0.00  0.00    +0.005 C 
ATOM     18  C   UNL     1      -0.987   3.057   1.529  0.00  0.00    +0.036 C 
ATOM     19  N   UNL     1      -1.473   4.975  -2.327  0.00  0.00    -0.337 N 
ATOM     20  H   UNL     1      -1.583   5.436  -3.239  0.00  0.00    +0.168 HD
ENDROOT
BRANCH   2  21
ATOM     21  N   UNL     1      -0.908   5.627   2.505  0.00  0.00    -0.356 N 
ATOM     22  H   UNL     1      -0.480   4.776   2.686  0.00  0.00    +0.142 HD
ATOM     23  H   UNL     1      -1.226   6.176   3.239  0.00  0.00    +0.142 HD
ENDBRANCH   2  21
BRANCH   1  24
ATOM     24  C   UNL     1      -1.021   8.504   1.780  0.00  0.00    +0.348 C 
ATOM     25  O   UNL     1      -0.877   8.314   2.974  0.00  0.00    -0.244 OA
BRANCH  24  27
ATOM     26  C   UNL     1      -0.987  10.826   2.251  0.00  0.00    +0.280 C 
ATOM     27  O   UNL     1      -1.090   9.764   1.301  0.00  0.00    -0.464 OA
ENDBRANCH  24  27
ENDBRANCH   1  24
TORSDOF 3
