REMARK  Name = ZINC38774546
REMARK  7 active torsions:
REMARK  status: ('A' for Active; 'I' for Inactive)
REMARK    1  A    between atoms: C_1  and  C_2
REMARK    2  A    between atoms: C_2  and  C_3
REMARK    3  A    between atoms: N_15  and  C_18
REMARK    4  A    between atoms: C_18  and  C_19
REMARK    5  A    between atoms: C_19  and  N_20
REMARK    6  A    between atoms: C_21  and  C_23
REMARK    7  A    between atoms: C_24  and  C_25
REMARK                            x       y       z     vdW  Elec       q    Type
REMARK                         _______ _______ _______ _____ _____    ______ ____
ROOT
ATOM      1  C   UNL     1       0.731  -0.503   1.223  0.00  0.00    -0.021 A 
ATOM      2  C   UNL     1       2.066  -0.803   1.140  0.00  0.00    +0.006 A 
ATOM      3  C   UNL     1       2.775  -1.265   2.239  0.00  0.00    +0.001 A 
ATOM      4  C   UNL     1       2.121  -1.427   3.447  0.00  0.00    +0.017 A 
ATOM      5  C   UNL     1       0.785  -1.129   3.539  0.00  0.00    +0.041 A 
ATOM      6  C   UNL     1       0.032  -0.651   2.442  0.00  0.00    +0.083 A 
ATOM      7  N   UNL     1      -1.272  -0.398   2.693  0.00  0.00    -0.224 NA
ATOM      8  C   UNL     1      -1.810  -0.576   3.878  0.00  0.00    +0.162 A 
ATOM      9  S   UNL     1      -0.428  -1.181   4.837  0.00  0.00    -0.052 S 
ATOM     10  N   UNL     1      -3.113  -0.361   4.278  0.00  0.00    -0.313 N 
ATOM     11  C   UNL     1      -4.124   0.130   3.329  0.00  0.00    +0.088 C 
ATOM     12  C   UNL     1      -4.838   1.331   3.959  0.00  0.00    -0.059 C 
ATOM     13  N   UNL     1      -5.374   0.947   5.271  0.00  0.00    +0.383 N 
ATOM     14  C   UNL     1      -4.272   0.620   6.185  0.00  0.00    -0.059 C 
ATOM     15  C   UNL     1      -3.531  -0.622   5.664  0.00  0.00    +0.088 C 
ATOM     16  H   UNL     1      -5.973   0.142   5.166  0.00  0.00    -0.082 HD
ENDROOT
BRANCH   1  18
ATOM     17  C   UNL     1      -0.019   1.526   0.010  0.00  0.00    +0.009 C 
ATOM     18  C   UNL     1       0.002  -0.004   0.002  0.00  0.00    +0.034 C 
ENDBRANCH   1  18
BRANCH  13  19
ATOM     19  C   UNL     1      -6.152   2.063   5.825  0.00  0.00    -0.060 C 
BRANCH  19  20
ATOM     20  C   UNL     1      -6.814   1.624   7.133  0.00  0.00    +0.086 C 
BRANCH  20  21
ATOM     21  N   UNL     1      -7.590   2.737   7.686  0.00  0.00    -0.314 N 
ATOM     22  C   UNL     1      -8.263   2.579   8.842  0.00  0.00    +0.237 C 
ATOM     23  O   UNL     1      -8.227   1.513   9.428  0.00  0.00    -0.271 OA
ATOM     24  H   UNL     1      -7.619   3.587   7.219  0.00  0.00    +0.149 HD
BRANCH  22  25
ATOM     25  C   UNL     1      -9.039   3.692   9.395  0.00  0.00    +0.068 C 
ATOM     26  C   UNL     1      -9.713   3.534  10.552  0.00  0.00    +0.014 C 
BRANCH  26  27
ATOM     27  C   UNL     1     -10.492   4.652  11.107  0.00  0.00    -0.007 A 
ATOM     28  C   UNL     1     -10.541   5.878  10.435  0.00  0.00    +0.009 A 
ATOM     29  C   UNL     1     -11.274   6.920  10.961  0.00  0.00    +0.001 A 
ATOM     30  C   UNL     1     -11.960   6.757  12.152  0.00  0.00    +0.001 A 
ATOM     31  C   UNL     1     -11.918   5.549  12.824  0.00  0.00    +0.020 A 
ATOM     32  C   UNL     1     -11.193   4.493  12.308  0.00  0.00    +0.048 A 
ATOM     33 CL   UNL     1     -11.146   2.975  13.149  0.00  0.00    -0.083 Cl
ENDBRANCH  26  27
ENDBRANCH  22  25
ENDBRANCH  20  21
ENDBRANCH  19  20
ENDBRANCH  13  19
TORSDOF 6
