REMARK  Name = ZINC39533821
REMARK  7 active torsions:
REMARK  status: ('A' for Active; 'I' for Inactive)
REMARK    1  A    between atoms: C_4  and  C_7
REMARK    2  A    between atoms: C_10  and  C_13
REMARK    3  A    between atoms: C_13  and  C_15
REMARK    4  A    between atoms: C_13  and  N_26
REMARK    5  A    between atoms: C_15  and  N_16
REMARK    6  A    between atoms: N_16  and  S_17
REMARK    7  A    between atoms: S_17  and  C_20
REMARK                            x       y       z     vdW  Elec       q    Type
REMARK                         _______ _______ _______ _____ _____    ______ ____
ROOT
ATOM      1  C   UNL     1       7.434  -2.768  -0.085  0.00  0.00    +0.102 C 
ENDROOT
BRANCH   1   2
ATOM      2  N   UNL     1       7.393  -3.871   0.884  0.00  0.00    -0.291 NA
ATOM      3  C   UNL     1       6.381  -4.867   0.506  0.00  0.00    +0.100 C 
ATOM      4  C   UNL     1       6.425  -6.035   1.494  0.00  0.00    +0.097 C 
ATOM      5  N   UNL     1       6.183  -5.533   2.853  0.00  0.00    -0.302 NA
ATOM      6  C   UNL     1       7.194  -4.537   3.232  0.00  0.00    +0.136 C 
ATOM      7  C   UNL     1       7.151  -3.369   2.244  0.00  0.00    +0.115 C 
ATOM      8 BR   UNL     1       6.819  -3.878   5.045  0.00  0.00    -0.070 Br
ATOM      9  H   UNL     1       5.252  -5.153   2.938  0.00  0.00    +0.123 HD
ENDBRANCH   1   2
BRANCH   1  13
ATOM     10  C   UNL     1       3.579  -0.934  -0.321  0.00  0.00    -0.018 A 
ATOM     11  C   UNL     1       3.781  -2.209  -0.847  0.00  0.00    +0.009 A 
ATOM     12  C   UNL     1       5.027  -2.796  -0.768  0.00  0.00    +0.006 A 
ATOM     13  C   UNL     1       6.075  -2.122  -0.168  0.00  0.00    -0.029 A 
ATOM     14  C   UNL     1       5.881  -0.856   0.356  0.00  0.00    +0.006 A 
ATOM     15  C   UNL     1       4.640  -0.257   0.278  0.00  0.00    +0.009 A 
BRANCH  10  19
ATOM     16  C   UNL     1      -0.255   0.889  -0.555  0.00  0.00    +0.000 A 
ATOM     17  C   UNL     1      -0.062  -0.378  -1.074  0.00  0.00    +0.001 A 
ATOM     18  C   UNL     1       1.180  -0.975  -1.001  0.00  0.00    +0.008 A 
ATOM     19  C   UNL     1       2.241  -0.298  -0.403  0.00  0.00    -0.018 A 
ATOM     20  C   UNL     1       2.041   0.979   0.119  0.00  0.00    +0.008 A 
ATOM     21  C   UNL     1       0.795   1.566   0.040  0.00  0.00    +0.001 A 
ENDBRANCH  10  19
ENDBRANCH   1  13
BRANCH   1  22
ATOM     22  C   UNL     1       7.825  -3.312  -1.460  0.00  0.00    +0.129 C 
BRANCH  22  23
ATOM     23  N   UNL     1       9.090  -4.044  -1.355  0.00  0.00    -0.188 NA
ATOM     24  H   UNL     1       9.646  -3.940  -0.566  0.00  0.00    +0.148 HD
BRANCH  23  25
ATOM     25  S   UNL     1       9.570  -5.048  -2.581  0.00  0.00    +0.058 S 
ATOM     26  O   UNL     1      10.830  -5.583  -2.198  0.00  0.00    -0.153 OA
ATOM     27  O   UNL     1       8.456  -5.873  -2.891  0.00  0.00    -0.153 OA
BRANCH  25  28
ATOM     28  C   UNL     1       9.861  -4.040  -3.996  0.00  0.00    +0.105 A 
ATOM     29  C   UNL     1       8.832  -3.779  -4.882  0.00  0.00    +0.028 A 
ATOM     30  C   UNL     1       9.059  -2.988  -5.992  0.00  0.00    +0.002 A 
ATOM     31  C   UNL     1      10.316  -2.458  -6.217  0.00  0.00    +0.000 A 
ATOM     32  C   UNL     1      11.345  -2.718  -5.331  0.00  0.00    +0.002 A 
ATOM     33  C   UNL     1      11.116  -3.505  -4.218  0.00  0.00    +0.028 A 
ENDBRANCH  25  28
ENDBRANCH  23  25
ENDBRANCH  22  23
ENDBRANCH   1  22
TORSDOF 7
