REMARK  Name = ZINC12470527
REMARK  5 active torsions:
REMARK  status: ('A' for Active; 'I' for Inactive)
REMARK    1  A    between atoms: C_8  and  N_57
REMARK    2  A    between atoms: C_13  and  C_16
REMARK    3  A    between atoms: C_16  and  N_17
REMARK    4  A    between atoms: N_17  and  S_18
REMARK    5  A    between atoms: S_18  and  C_21
REMARK                            x       y       z     vdW  Elec       q    Type
REMARK                         _______ _______ _______ _____ _____    ______ ____
ROOT
ATOM      1  C   UNL     1      -2.401  -0.024  -0.291  0.00  0.00    -0.078 C 
ATOM      2  C   UNL     1      -3.527  -0.481  -1.221  0.00  0.00    -0.018 C 
ATOM      3  C   UNL     1      -3.553  -2.011  -1.269  0.00  0.00    +0.001 C 
ATOM      4  C   UNL     1      -2.188  -2.522  -1.741  0.00  0.00    -0.012 C 
ATOM      5  C   UNL     1      -1.101  -2.006  -0.797  0.00  0.00    -0.074 C 
ATOM      6  N   UNL     1      -1.113  -0.527  -0.814  0.00  0.00    +0.382 N 
ATOM      7  H   UNL     1      -0.998  -0.204  -1.782  0.00  0.00    -0.081 HD
ENDROOT
BRANCH   6  15
ATOM      8  C   UNL     1       3.396   3.319   0.227  0.00  0.00    +0.000 A 
ATOM      9  C   UNL     1       4.183   2.254  -0.171  0.00  0.00    +0.000 A 
ATOM     10  C   UNL     1       3.597   1.043  -0.484  0.00  0.00    +0.004 A 
ATOM     11  C   UNL     1       2.224   0.891  -0.399  0.00  0.00    -0.046 A 
ATOM     12  C   UNL     1       1.437   1.955  -0.001  0.00  0.00    -0.046 A 
ATOM     13  C   UNL     1       2.026   3.169   0.312  0.00  0.00    +0.004 A 
ATOM     14  C   UNL     1      -0.019   1.539   0.011  0.00  0.00    +0.020 C 
ATOM     15  C   UNL     1       0.002  -0.004   0.002  0.00  0.00    -0.060 C 
ATOM     16  C   UNL     1       1.351  -0.313  -0.682  0.00  0.00    +0.020 C 
ENDBRANCH   6  15
BRANCH   4  17
ATOM     17  C   UNL     1      -2.185  -4.052  -1.736  0.00  0.00    +0.107 C 
BRANCH  17  18
ATOM     18  N   UNL     1      -3.143  -4.546  -2.728  0.00  0.00    -0.190 NA
ATOM     19  H   UNL     1      -3.807  -3.945  -3.103  0.00  0.00    +0.148 HD
BRANCH  18  20
ATOM     20  S   UNL     1      -3.094  -6.130  -3.210  0.00  0.00    +0.060 S 
ATOM     21  O   UNL     1      -4.151  -6.303  -4.144  0.00  0.00    -0.153 OA
ATOM     22  O   UNL     1      -1.740  -6.415  -3.531  0.00  0.00    -0.153 OA
BRANCH  20  23
ATOM     23  C   UNL     1      -3.497  -7.114  -1.805  0.00  0.00    +0.131 A 
ATOM     24  C   UNL     1      -4.636  -7.860  -1.798  0.00  0.00    +0.031 A 
ATOM     25  C   UNL     1      -4.973  -8.646  -0.698  0.00  0.00    +0.003 A 
ATOM     26  C   UNL     1      -4.171  -8.689   0.402  0.00  0.00    +0.010 A 
ATOM     27  C   UNL     1      -2.989  -7.932   0.429  0.00  0.00    +0.002 A 
ATOM     28  C   UNL     1      -2.641  -7.137  -0.691  0.00  0.00    +0.097 A 
ATOM     29  N   UNL     1      -1.513  -6.420  -0.672  0.00  0.00    -0.253 NA
ATOM     30  C   UNL     1      -0.711  -6.438   0.364  0.00  0.00    +0.111 A 
ATOM     31  C   UNL     1      -0.991  -7.202   1.495  0.00  0.00    +0.020 A 
ATOM     32  C   UNL     1      -2.133  -7.950   1.546  0.00  0.00    +0.011 A 
ENDBRANCH  20  23
ENDBRANCH  18  20
ENDBRANCH  17  18
ENDBRANCH   4  17
TORSDOF 5
