REMARK  Name = ZINC08629313
REMARK  7 active torsions:
REMARK  status: ('A' for Active; 'I' for Inactive)
REMARK    1  A    between atoms: C_1  and  C_2
REMARK    2  A    between atoms: C_2  and  C_4
REMARK    3  A    between atoms: C_2  and  O_16
REMARK    4  A    between atoms: O_16  and  C_17
REMARK    5  A    between atoms: C_17  and  C_19
REMARK    6  A    between atoms: C_32  and  C_33
REMARK    7  A    between atoms: C_36  and  O_39
REMARK                            x       y       z     vdW  Elec       q    Type
REMARK                         _______ _______ _______ _____ _____    ______ ____
ROOT
ATOM      1  C   UNL     1       2.452   0.075   0.187  0.00  0.00    +0.073 A 
ATOM      2  C   UNL     1       1.212  -0.701   0.161  0.00  0.00    +0.015 A 
ATOM      3  C   UNL     1       1.220  -2.099   0.188  0.00  0.00    +0.011 A 
ATOM      4  C   UNL     1       0.039  -2.780   0.163  0.00  0.00    +0.001 A 
ATOM      5  C   UNL     1      -1.175  -2.100   0.109  0.00  0.00    +0.002 A 
ATOM      6  C   UNL     1      -1.219  -0.741   0.081  0.00  0.00    +0.028 A 
ATOM      7  C   UNL     1      -0.020  -0.002   0.106  0.00  0.00    +0.072 A 
ATOM      8  N   UNL     1      -0.032   1.328   0.079  0.00  0.00    -0.247 NA
ATOM      9  C   UNL     1       1.077   2.061   0.101  0.00  0.00    +0.072 A 
ATOM     10  C   UNL     1       2.345   1.458   0.156  0.00  0.00    -0.007 A 
ATOM     11  C   UNL     1       3.415   2.521   0.170  0.00  0.00    +0.043 C 
ATOM     12  C   UNL     1       2.684   3.869   0.117  0.00  0.00    +0.042 C 
ATOM     13  C   UNL     1       1.215   3.530   0.075  0.00  0.00    -0.021 C 
ATOM     14  C   UNL     1       0.204   4.415   0.024  0.00  0.00    +0.013 C 
ENDROOT
BRANCH  14  15
ATOM     15  C   UNL     1       0.480   5.856   0.141  0.00  0.00    -0.024 A 
ATOM     16  C   UNL     1      -0.575   6.766   0.255  0.00  0.00    +0.011 A 
ATOM     17  C   UNL     1      -0.311   8.113   0.371  0.00  0.00    +0.046 A 
ATOM     18  C   UNL     1       1.001   8.570   0.360  0.00  0.00    +0.117 A 
ATOM     19  C   UNL     1       2.053   7.670   0.241  0.00  0.00    +0.046 A 
ATOM     20  C   UNL     1       1.800   6.321   0.132  0.00  0.00    +0.011 A 
BRANCH  18  21
ATOM     21  O   UNL     1       1.256   9.899   0.468  0.00  0.00    -0.507 OA
ATOM     22  H   UNL     1       1.297  10.362  -0.380  0.00  0.00    +0.292 HD
ENDBRANCH  18  21
ENDBRANCH  14  15
BRANCH   1  23
ATOM     23  C   UNL     1       3.771  -0.590   0.244  0.00  0.00    +0.341 C 
ATOM     24  O   UNL     1       4.348  -0.884  -0.784  0.00  0.00    -0.245 OA
BRANCH  23  25
ATOM     25  O   UNL     1       4.333  -0.870   1.435  0.00  0.00    -0.450 OA
BRANCH  25  27
ATOM     26  C   UNL     1       6.734  -0.466   1.405  0.00  0.00    +0.060 C 
ATOM     27  C   UNL     1       5.630  -1.524   1.415  0.00  0.00    +0.239 C 
BRANCH  27  28
ATOM     28  C   UNL     1       5.775  -2.390   2.640  0.00  0.00    +0.151 A 
ATOM     29  N   UNL     1       5.092  -3.563   2.685  0.00  0.00    -0.307 N 
ATOM     30  H   UNL     1       4.529  -3.821   1.938  0.00  0.00    +0.170 HD
ATOM     31  C   UNL     1       5.193  -4.379   3.761  0.00  0.00    +0.259 A 
ATOM     32  O   UNL     1       4.590  -5.435   3.812  0.00  0.00    -0.267 OA
ATOM     33  C   UNL     1       6.055  -3.936   4.867  0.00  0.00    +0.065 A 
ATOM     34  C   UNL     1       6.222  -4.699   6.021  0.00  0.00    +0.015 A 
ATOM     35  C   UNL     1       7.041  -4.236   7.027  0.00  0.00    +0.001 A 
ATOM     36  C   UNL     1       7.699  -3.019   6.900  0.00  0.00    +0.002 A 
ATOM     37  C   UNL     1       7.546  -2.250   5.768  0.00  0.00    +0.028 A 
ATOM     38  C   UNL     1       6.721  -2.698   4.734  0.00  0.00    +0.078 A 
ATOM     39  N   UNL     1       6.542  -1.973   3.601  0.00  0.00    -0.230 NA
ENDBRANCH  27  28
ENDBRANCH  25  27
ENDBRANCH  23  25
ENDBRANCH   1  23
TORSDOF 6
