REMARK  Name = ZINC02309572
REMARK  11 active torsions:
REMARK  status: ('A' for Active; 'I' for Inactive)
REMARK    1  A    between atoms: C_1  and  C_2
REMARK    2  A    between atoms: C_2  and  O_3
REMARK    3  A    between atoms: O_3  and  C_4
REMARK    4  A    between atoms: C_7  and  C_10
REMARK    5  A    between atoms: C_12  and  C_36
REMARK    6  A    between atoms: C_13  and  S_22
REMARK    7  A    between atoms: S_22  and  C_23
REMARK    8  A    between atoms: C_23  and  C_24
REMARK    9  A    between atoms: N_26  and  C_27
REMARK   10  A    between atoms: C_30  and  C_33
REMARK   11  A    between atoms: C_33  and  C_35
REMARK                            x       y       z     vdW  Elec       q    Type
REMARK                         _______ _______ _______ _____ _____    ______ ____
ROOT
ATOM      1  C   UNL     1       1.113  -6.023  -1.852  0.00  0.00    +0.097 C 
ATOM      2  C   UNL     1       0.415  -6.433  -3.116  0.00  0.00    +0.069 C 
ATOM      3  C   UNL     1       1.118  -6.712  -4.246  0.00  0.00    +0.080 C 
ATOM      4  N   UNL     1       2.491  -6.630  -4.243  0.00  0.00    -0.311 N 
ATOM      5  C   UNL     1       3.188  -6.663  -3.066  0.00  0.00    +0.016 C 
ATOM      6  C   UNL     1       2.575  -6.389  -1.896  0.00  0.00    +0.024 C 
ATOM      7  C   UNL     1       3.280  -6.437  -0.681  0.00  0.00    +0.162 C 
ATOM      8  O   UNL     1       2.701  -6.178   0.355  0.00  0.00    -0.292 OA
ATOM      9  C   UNL     1       4.739  -6.803  -0.640  0.00  0.00    +0.080 C 
ATOM     10  C   UNL     1       5.056  -7.724  -1.823  0.00  0.00    +0.014 C 
ATOM     11  C   UNL     1       4.656  -7.010  -3.111  0.00  0.00    +0.051 C 
ATOM     12  H   UNL     1       2.970  -6.546  -5.082  0.00  0.00    +0.152 HD
ENDROOT
BRANCH   1  16
ATOM     13  C   UNL     1       0.740  -1.795  -1.353  0.00  0.00    +0.121 A 
ATOM     14  C   UNL     1       0.217  -2.656  -0.399  0.00  0.00    +0.046 A 
ATOM     15  C   UNL     1       0.339  -4.022  -0.563  0.00  0.00    +0.008 A 
ATOM     16  C   UNL     1       0.981  -4.532  -1.676  0.00  0.00    -0.034 A 
ATOM     17  C   UNL     1       1.503  -3.676  -2.628  0.00  0.00    +0.008 A 
ATOM     18  C   UNL     1       1.379  -2.309  -2.472  0.00  0.00    +0.046 A 
BRANCH  13  19
ATOM     19  O   UNL     1       0.622  -0.451  -1.194  0.00  0.00    -0.492 OA
BRANCH  19  21
ATOM     20  C   UNL     1      -0.084   1.537  -0.014  0.00  0.00    +0.048 C 
ATOM     21  C   UNL     1      -0.048   0.007  -0.018  0.00  0.00    +0.225 C 
ENDBRANCH  19  21
ENDBRANCH  13  19
ENDBRANCH   1  16
BRANCH   2  22
ATOM     22  C   UNL     1      -1.013  -6.531  -3.132  0.00  0.00    +0.098 C 
ATOM     23  N   UNL     1      -2.147  -6.609  -3.145  0.00  0.00    -0.191 NA
ENDBRANCH   2  22
BRANCH   3  24
ATOM     24  S   UNL     1       0.269  -7.182  -5.716  0.00  0.00    -0.100 S 
BRANCH  24  25
ATOM     25  C   UNL     1       1.596  -7.447  -6.925  0.00  0.00    +0.171 C 
BRANCH  25  26
ATOM     26  C   UNL     1       0.998  -7.859  -8.245  0.00  0.00    +0.227 C 
ATOM     27  O   UNL     1      -0.205  -7.964  -8.360  0.00  0.00    -0.275 OA
ATOM     28  N   UNL     1       1.800  -8.111  -9.298  0.00  0.00    -0.285 N 
ATOM     29  H   UNL     1       2.756  -7.964  -9.226  0.00  0.00    +0.155 HD
BRANCH  28  30
ATOM     30  C   UNL     1       1.256  -8.583 -10.491  0.00  0.00    +0.033 A 
ATOM     31  C   UNL     1       1.968  -9.497 -11.264  0.00  0.00    +0.024 A 
ATOM     32  C   UNL     1       1.436  -9.965 -12.438  0.00  0.00    +0.013 A 
ATOM     33  C   UNL     1       0.176  -9.522 -12.859  0.00  0.00    +0.017 A 
ATOM     34  C   UNL     1      -0.536  -8.603 -12.078  0.00  0.00    +0.013 A 
ATOM     35  C   UNL     1       0.001  -8.145 -10.903  0.00  0.00    +0.024 A 
BRANCH  33  36
ATOM     36  C   UNL     1      -0.397 -10.020 -14.116  0.00  0.00    +0.160 C 
ATOM     37  O   UNL     1       0.177 -10.884 -14.745  0.00  0.00    -0.292 OA
ATOM     38  C   UNL     1      -1.700  -9.458 -14.625  0.00  0.00    +0.091 C 
ENDBRANCH  33  36
ENDBRANCH  28  30
ENDBRANCH  25  26
ENDBRANCH  24  25
ENDBRANCH   3  24
TORSDOF 9
