REMARK  Name = ZINC37993145
REMARK  3 active torsions:
REMARK  status: ('A' for Active; 'I' for Inactive)
REMARK    1  A    between atoms: C_4  and  N_19
REMARK    2  A    between atoms: C_6  and  C_7
REMARK    3  A    between atoms: N_9  and  C_10
REMARK                            x       y       z     vdW  Elec       q    Type
REMARK                         _______ _______ _______ _____ _____    ______ ____
ROOT
ATOM      1  C   UNL     1      -1.266  -0.763   0.011  0.00  0.00    +0.245 C 
ATOM      2  O   UNL     1      -1.247  -1.979   0.004  0.00  0.00    -0.270 OA
ATOM      3  N   UNL     1      -2.443  -0.108   0.026  0.00  0.00    -0.300 N 
ATOM      4  H   UNL     1      -2.459   0.862   0.031  0.00  0.00    +0.150 HD
ENDROOT
BRANCH   3   5
ATOM      5  C   UNL     1      -3.700  -0.861   0.034  0.00  0.00    +0.159 C 
ATOM      6  C   UNL     1      -4.809  -0.003   0.650  0.00  0.00    +0.032 C 
ATOM      7  C   UNL     1      -5.909  -0.878   1.224  0.00  0.00    +0.004 C 
ATOM      8  C   UNL     1      -6.685  -1.654   0.176  0.00  0.00    +0.019 C 
ATOM      9  C   UNL     1      -5.797  -2.705  -0.493  0.00  0.00    +0.104 C 
ATOM     10  N   UNL     1      -5.083  -2.074  -1.615  0.00  0.00    -0.314 N 
ATOM     11  C   UNL     1      -4.092  -1.212  -1.385  0.00  0.00    +0.233 C 
ATOM     12  O   UNL     1      -3.506  -0.705  -2.318  0.00  0.00    -0.274 OA
ATOM     13  H   UNL     1      -5.333  -2.289  -2.527  0.00  0.00    +0.149 HD
ENDBRANCH   3   5
BRANCH   1  19
ATOM     14  C   UNL     1      -0.017   1.392   0.010  0.00  0.00    +0.014 A 
ATOM     15  C   UNL     1       1.170   2.095   0.002  0.00  0.00    +0.023 A 
ATOM     16  C   UNL     1       2.378   1.419  -0.013  0.00  0.00    +0.071 A 
ATOM     17  C   UNL     1       2.403   0.034  -0.021  0.00  0.00    +0.145 A 
ATOM     18  C   UNL     1       1.224  -0.680  -0.013  0.00  0.00    +0.047 A 
ATOM     19  C   UNL     1       0.002  -0.004   0.002  0.00  0.00    +0.039 A 
ATOM     20 CL   UNL     1       3.868   2.310  -0.023  0.00  0.00    -0.081 Cl
BRANCH  17  21
ATOM     21  N   UNL     1       3.699  -0.682  -0.037  0.00  0.00    +0.058 N 
ATOM     22  O   UNL     1       3.723  -1.890  -0.044  0.00  0.00    -0.126 OA
ATOM     23  O   UNL     1       4.734  -0.057  -0.044  0.00  0.00    -0.126 OA
ENDBRANCH  17  21
ENDBRANCH   1  19
TORSDOF 3
