REMARK  Name = ZINC36203788
REMARK  6 active torsions:
REMARK  status: ('A' for Active; 'I' for Inactive)
REMARK    1  A    between atoms: C_1  and  C_2
REMARK    2  A    between atoms: C_4  and  N_20
REMARK    3  A    between atoms: C_7  and  S_8
REMARK    4  A    between atoms: S_8  and  N_11
REMARK    5  A    between atoms: C_15  and  C_18
REMARK    6  A    between atoms: C_18  and  O_19
REMARK                            x       y       z     vdW  Elec       q    Type
REMARK                         _______ _______ _______ _____ _____    ______ ____
ROOT
ATOM      1  S   UNL     1       0.263   0.175   2.713  0.00  0.00    +0.061 S 
ATOM      2  O   UNL     1      -0.848   1.059   2.787  0.00  0.00    -0.153 OA
ATOM      3  O   UNL     1       0.525  -0.804   3.709  0.00  0.00    -0.153 OA
ENDROOT
BRANCH   1  10
ATOM      4  C   UNL     1      -0.436   1.488   0.079  0.00  0.00    +0.046 C 
ATOM      5  C   UNL     1      -0.206  -0.000   0.029  0.00  0.00    -0.022 A 
ATOM      6  C   UNL     1      -0.313  -0.677  -1.171  0.00  0.00    +0.038 A 
ATOM      7  C   UNL     1      -0.102  -2.042  -1.217  0.00  0.00    +0.127 A 
ATOM      8  C   UNL     1       0.218  -2.731  -0.061  0.00  0.00    +0.034 A 
ATOM      9  C   UNL     1       0.326  -2.054   1.139  0.00  0.00    +0.031 A 
ATOM     10  C   UNL     1       0.119  -0.688   1.184  0.00  0.00    +0.108 A 
BRANCH   7  11
ATOM     11  N   UNL     1      -0.218  -2.767  -2.502  0.00  0.00    +0.056 N 
ATOM     12  O   UNL     1      -0.497  -2.164  -3.513  0.00  0.00    -0.126 OA
ATOM     13  O   UNL     1      -0.033  -3.961  -2.542  0.00  0.00    -0.126 OA
ENDBRANCH   7  11
ENDBRANCH   1  10
BRANCH   1  14
ATOM     14  N   UNL     1       1.616   1.124   2.614  0.00  0.00    -0.176 NA
ATOM     15  C   UNL     1       2.940   0.576   2.938  0.00  0.00    +0.109 C 
ATOM     16  C   UNL     1       3.884   0.837   1.760  0.00  0.00    +0.017 C 
ATOM     17  C   UNL     1       3.886   2.332   1.435  0.00  0.00    +0.008 C 
ATOM     18  C   UNL     1       2.476   2.769   1.030  0.00  0.00    +0.030 C 
ATOM     19  C   UNL     1       1.517   2.529   2.194  0.00  0.00    +0.115 C 
BRANCH  18  20
ATOM     20  C   UNL     1       2.486   4.257   0.672  0.00  0.00    +0.160 C 
BRANCH  20  21
ATOM     21  O   UNL     1       3.293   4.462  -0.489  0.00  0.00    -0.395 OA
ATOM     22  H   UNL     1       3.345   5.385  -0.774  0.00  0.00    +0.209 HD
ENDBRANCH  20  21
ENDBRANCH  18  20
ENDBRANCH   1  14
TORSDOF 5
