REMARK  Name = ZINC00639300
REMARK  9 active torsions:
REMARK  status: ('A' for Active; 'I' for Inactive)
REMARK    1  A    between atoms: C_1  and  O_2
REMARK    2  A    between atoms: O_2  and  C_3
REMARK    3  A    between atoms: C_3  and  C_5
REMARK    4  A    between atoms: C_6  and  N_32
REMARK    5  A    between atoms: C_10  and  O_31
REMARK    6  A    between atoms: C_14  and  C_16
REMARK    7  A    between atoms: C_21  and  O_22
REMARK    8  A    between atoms: O_22  and  C_23
REMARK    9  A    between atoms: C_23  and  C_24
REMARK                            x       y       z     vdW  Elec       q    Type
REMARK                         _______ _______ _______ _____ _____    ______ ____
ROOT
ATOM      1  C   UNL     1      -2.046  -0.429   1.256  0.00  0.00    +0.105 C 
ATOM      2  C   UNL     1      -3.217   0.253   1.192  0.00  0.00    +0.195 C 
ATOM      3  O   UNL     1      -3.656   0.804   0.050  0.00  0.00    -0.441 OA
ATOM      4  C   UNL     1      -3.163   0.379  -1.139  0.00  0.00    +0.138 A 
ATOM      5  C   UNL     1      -3.877   0.639  -2.303  0.00  0.00    +0.092 A 
ATOM      6  C   UNL     1      -3.388   0.212  -3.526  0.00  0.00    +0.120 A 
ATOM      7  C   UNL     1      -2.185  -0.477  -3.588  0.00  0.00    +0.046 A 
ATOM      8  C   UNL     1      -1.477  -0.735  -2.431  0.00  0.00    +0.012 A 
ATOM      9  C   UNL     1      -1.962  -0.310  -1.207  0.00  0.00    +0.007 A 
ATOM     10  C   UNL     1      -1.175  -0.602   0.043  0.00  0.00    +0.098 C 
ENDROOT
BRANCH  10  11
ATOM     11  C   UNL     1      -0.006   0.345   0.129  0.00  0.00    +0.007 A 
ATOM     12  C   UNL     1      -0.223   1.709   0.180  0.00  0.00    +0.008 A 
ATOM     13  C   UNL     1       0.850   2.578   0.258  0.00  0.00    +0.001 A 
ATOM     14  C   UNL     1       2.142   2.085   0.286  0.00  0.00    +0.004 A 
ATOM     15  C   UNL     1       2.363   0.722   0.236  0.00  0.00    +0.046 A 
ATOM     16  C   UNL     1       1.289  -0.152   0.157  0.00  0.00    +0.125 A 
BRANCH  16  17
ATOM     17  O   UNL     1       1.504  -1.493   0.108  0.00  0.00    -0.487 OA
BRANCH  17  18
ATOM     18  C   UNL     1       2.863  -1.933   0.141  0.00  0.00    +0.264 C 
BRANCH  18  19
ATOM     19  C   UNL     1       2.905  -3.438   0.078  0.00  0.00    -0.010 A 
ATOM     20  C   UNL     1       2.885  -4.179   1.245  0.00  0.00    +0.008 A 
ATOM     21  C   UNL     1       2.919  -5.560   1.188  0.00  0.00    +0.015 A 
ATOM     22  C   UNL     1       2.984  -6.200  -0.037  0.00  0.00    +0.018 A 
ATOM     23  C   UNL     1       3.009  -5.457  -1.204  0.00  0.00    +0.015 A 
ATOM     24  C   UNL     1       2.970  -4.077  -1.146  0.00  0.00    +0.008 A 
ATOM     25 BR   UNL     1       3.037  -8.088  -0.116  0.00  0.00    -0.050 Br
ENDBRANCH  18  19
ENDBRANCH  17  18
ENDBRANCH  16  17
ENDBRANCH  10  11
BRANCH   2  26
ATOM     26  N   UNL     1      -3.974   0.382   2.326  0.00  0.00    -0.329 N 
ATOM     27  H   UNL     1      -4.769   0.937   2.318  0.00  0.00    +0.145 HD
ATOM     28  H   UNL     1      -3.715  -0.083   3.138  0.00  0.00    +0.145 HD
ENDBRANCH   2  26
BRANCH   1  29
ATOM     29  C   UNL     1      -1.639  -0.984   2.478  0.00  0.00    +0.341 C 
ATOM     30  O   UNL     1      -1.784  -2.176   2.684  0.00  0.00    -0.245 OA
BRANCH  29  32
ATOM     31  C   UNL     1      -0.695  -0.830   4.647  0.00  0.00    +0.280 C 
ATOM     32  O   UNL     1      -1.086  -0.197   3.427  0.00  0.00    -0.465 OA
ENDBRANCH  29  32
ENDBRANCH   1  29
BRANCH   6  33
ATOM     33  O   UNL     1      -4.086   0.466  -4.664  0.00  0.00    -0.507 OA
ATOM     34  H   UNL     1      -4.721  -0.225  -4.899  0.00  0.00    +0.292 HD
ENDBRANCH   6  33
TORSDOF 8
