REMARK  Name = ZINC05193550
REMARK  6 active torsions:
REMARK  status: ('A' for Active; 'I' for Inactive)
REMARK    1  A    between atoms: C_1  and  C_2
REMARK    2  A    between atoms: C_7  and  C_13
REMARK    3  A    between atoms: C_13  and  S_14
REMARK    4  A    between atoms: S_14  and  C_15
REMARK    5  A    between atoms: C_18  and  C_21
REMARK    6  A    between atoms: N_19  and  N_20
REMARK                            x       y       z     vdW  Elec       q    Type
REMARK                         _______ _______ _______ _____ _____    ______ ____
ROOT
ATOM      1  C   UNL     1      -1.365  -8.644   0.669  0.00  0.00    +0.209 A 
ATOM      2  N   UNL     1      -0.267  -9.310   0.947  0.00  0.00    -0.121 NA
ATOM      3  N   UNL     1      -0.482 -10.574   0.857  0.00  0.00    -0.127 NA
ATOM      4  C   UNL     1      -1.732 -10.792   0.517  0.00  0.00    +0.182 A 
ATOM      5  N   UNL     1      -2.336  -9.563   0.391  0.00  0.00    -0.224 N 
ENDROOT
BRANCH   4   6
ATOM      6  C   UNL     1      -2.369 -12.110   0.313  0.00  0.00    +0.021 A 
ATOM      7  C   UNL     1      -3.595 -12.200  -0.348  0.00  0.00    +0.014 A 
ATOM      8  C   UNL     1      -4.186 -13.432  -0.536  0.00  0.00    +0.039 A 
ATOM      9  C   UNL     1      -3.563 -14.580  -0.071  0.00  0.00    +0.123 A 
ATOM     10  C   UNL     1      -2.346 -14.496   0.586  0.00  0.00    +0.039 A 
ATOM     11  C   UNL     1      -1.744 -13.269   0.775  0.00  0.00    +0.014 A 
ATOM     12  F   UNL     1      -4.146 -15.784  -0.257  0.00  0.00    -0.205 F 
ENDBRANCH   4   6
BRANCH   5  13
ATOM     13  N   UNL     1      -3.637  -9.313   0.056  0.00  0.00    -0.295 N 
ATOM     14  H   UNL     1      -3.742  -9.224  -0.943  0.00  0.00    +0.163 HD
ATOM     15  H   UNL     1      -4.248 -10.028   0.422  0.00  0.00    +0.163 HD
ENDBRANCH   5  13
BRANCH   1  16
ATOM     16  S   UNL     1      -1.551  -6.892   0.665  0.00  0.00    -0.078 S 
BRANCH  16  17
ATOM     17  C   UNL     1       0.095  -6.274   1.112  0.00  0.00    +0.133 C 
BRANCH  17  24
ATOM     18  C   UNL     1      -0.018   1.503   0.010  0.00  0.00    +0.045 C 
ATOM     19  C   UNL     1       0.002  -0.004   0.002  0.00  0.00    -0.034 A 
ATOM     20  C   UNL     1       0.006  -0.697  -1.217  0.00  0.00    +0.008 A 
ATOM     21  C   UNL     1       0.025  -2.059  -1.216  0.00  0.00    +0.047 A 
ATOM     22  C   UNL     1       0.040  -2.750   0.010  0.00  0.00    +0.141 A 
ATOM     23  N   UNL     1       0.059  -4.082   0.013  0.00  0.00    -0.233 NA
ATOM     24  C   UNL     1       0.074  -4.768   1.145  0.00  0.00    +0.059 A 
ATOM     25  C   UNL     1       0.071  -4.104   2.356  0.00  0.00    +0.094 A 
ATOM     26  C   UNL     1       0.051  -2.704   2.361  0.00  0.00    +0.259 A 
ATOM     27  O   UNL     1       0.048  -2.088   3.415  0.00  0.00    -0.267 OA
ATOM     28  N   UNL     1       0.037  -2.046   1.182  0.00  0.00    -0.268 N 
ATOM     29  C   UNL     1       0.022  -0.685   1.170  0.00  0.00    +0.099 A 
ENDBRANCH  17  24
ENDBRANCH  16  17
ENDBRANCH   1  16
TORSDOF 5
