REMARK  Name = ZINC26973162
REMARK  4 active torsions:
REMARK  status: ('A' for Active; 'I' for Inactive)
REMARK    1  A    between atoms: C_9  and  C_12
REMARK    2  A    between atoms: N_14  and  N_15
REMARK    3  A    between atoms: C_16  and  C_18
REMARK    4  A    between atoms: C_22  and  C_24
REMARK                            x       y       z     vdW  Elec       q    Type
REMARK                         _______ _______ _______ _____ _____    ______ ____
ROOT
ATOM      1  C   UNL     1       1.198  -2.089  -0.017  0.00  0.00    +0.273 C 
ATOM      2  O   UNL     1       0.261  -2.534   0.611  0.00  0.00    -0.270 OA
ATOM      3  N   UNL     1       2.211  -2.900  -0.382  0.00  0.00    -0.231 N 
ATOM      4  H   UNL     1       3.061  -2.496  -0.951  0.00  0.00    +0.173 HD
ENDROOT
BRANCH   1  13
ATOM      5  C   UNL     1      -0.091   4.126   0.030  0.00  0.00    +0.004 A 
ATOM      6  C   UNL     1      -1.269   3.403   0.034  0.00  0.00    +0.004 A 
ATOM      7  C   UNL     1      -1.234   2.021   0.030  0.00  0.00    +0.049 A 
ATOM      8  C   UNL     1      -0.016   1.357   0.009  0.00  0.00    +0.163 A 
ATOM      9  C   UNL     1       1.168   2.084   0.002  0.00  0.00    +0.162 A 
ATOM     10  C   UNL     1       1.126   3.471   0.014  0.00  0.00    +0.049 A 
ATOM     11  O   UNL     1       2.373   1.453  -0.018  0.00  0.00    -0.484 OA
ATOM     12  C   UNL     1       2.381   0.069   0.348  0.00  0.00    +0.283 C 
ATOM     13  C   UNL     1       1.229  -0.629  -0.390  0.00  0.00    +0.297 C 
ATOM     14  O   UNL     1       0.002  -0.004   0.002  0.00  0.00    -0.472 OA
ENDBRANCH   1  13
BRANCH   3  15
ATOM     15  N   UNL     1       2.181  -4.257  -0.035  0.00  0.00    -0.230 N 
ATOM     16  C   UNL     1       3.194  -5.067  -0.400  0.00  0.00    +0.260 C 
ATOM     17  O   UNL     1       4.133  -4.621  -1.029  0.00  0.00    -0.269 OA
ATOM     18  H   UNL     1       1.331  -4.661   0.535  0.00  0.00    +0.173 HD
BRANCH  16  19
ATOM     19  C   UNL     1       3.163  -6.500  -0.034  0.00  0.00    +0.039 A 
ATOM     20  C   UNL     1       2.087  -7.013   0.695  0.00  0.00    +0.013 A 
ATOM     21  C   UNL     1       2.054  -8.351   1.033  0.00  0.00    +0.002 A 
ATOM     22  C   UNL     1       3.088  -9.189   0.663  0.00  0.00    +0.019 A 
ATOM     23  C   UNL     1       4.172  -8.688  -0.061  0.00  0.00    +0.052 A 
ATOM     24  C   UNL     1       4.209  -7.339  -0.410  0.00  0.00    +0.032 A 
BRANCH  23  25
ATOM     25  C   UNL     1       5.244  -9.558  -0.443  0.00  0.00    +0.099 C 
ATOM     26  N   UNL     1       6.094 -10.248  -0.746  0.00  0.00    -0.191 NA
ENDBRANCH  23  25
ENDBRANCH  16  19
ENDBRANCH   3  15
TORSDOF 4
