REMARK  Name = ZINC40070611
REMARK  13 active torsions:
REMARK  status: ('A' for Active; 'I' for Inactive)
REMARK    1  A    between atoms: C_1  and  C_2
REMARK    2  A    between atoms: C_3  and  C_37
REMARK    3  A    between atoms: C_4  and  C_36
REMARK    4  A    between atoms: C_7  and  C_8
REMARK    5  A    between atoms: C_8  and  C_10
REMARK    6  A    between atoms: C_10  and  C_12
REMARK    7  A    between atoms: C_10  and  S_13
REMARK    8  A    between atoms: S_13  and  C_14
REMARK    9  A    between atoms: C_18  and  C_27
REMARK   10  A    between atoms: N_19  and  C_20
REMARK   11  A    between atoms: C_27  and  C_29
REMARK   12  A    between atoms: C_27  and  N_30
REMARK   13  A    between atoms: C_37  and  C_39
REMARK                            x       y       z     vdW  Elec       q    Type
REMARK                         _______ _______ _______ _____ _____    ______ ____
ROOT
ATOM      1  C   UNL     1      -0.286  -2.361   6.539  0.00  0.00    +0.241 C 
ATOM      2  N   UNL     1      -1.485  -3.215   6.467  0.00  0.00    -0.237 N 
ATOM      3  N   UNL     1      -1.036  -4.484   6.082  0.00  0.00    -0.172 NA
ATOM      4  C   UNL     1       0.236  -4.505   5.918  0.00  0.00    +0.139 C 
ATOM      5  N   UNL     1       0.815  -3.267   6.169  0.00  0.00    -0.257 N 
ATOM      6  H   UNL     1      -2.401  -2.951   6.650  0.00  0.00    +0.171 HD
ENDROOT
BRANCH   5   7
ATOM      7  C   UNL     1       2.173  -2.942   6.086  0.00  0.00    +0.038 A 
ATOM      8  C   UNL     1       2.820  -2.966   4.857  0.00  0.00    +0.026 A 
ATOM      9  C   UNL     1       4.161  -2.645   4.778  0.00  0.00    +0.040 A 
ATOM     10  C   UNL     1       4.860  -2.301   5.922  0.00  0.00    +0.124 A 
ATOM     11  C   UNL     1       4.217  -2.277   7.148  0.00  0.00    +0.040 A 
ATOM     12  C   UNL     1       2.875  -2.591   7.232  0.00  0.00    +0.026 A 
ATOM     13  F   UNL     1       6.172  -1.988   5.842  0.00  0.00    -0.205 F 
ENDBRANCH   5   7
BRANCH   4  14
ATOM     14  C   UNL     1       1.012  -5.729   5.504  0.00  0.00    +0.119 C 
ATOM     15  C   UNL     1       2.116  -6.003   6.527  0.00  0.00    +0.032 C 
BRANCH  14  16
ATOM     16  N   UNL     1       0.106  -6.884   5.439  0.00  0.00    -0.293 NA
ATOM     17  C   UNL     1      -0.500  -7.151   6.750  0.00  0.00    +0.085 C 
ATOM     18  C   UNL     1      -1.543  -8.263   6.614  0.00  0.00    +0.015 C 
ATOM     19  C   UNL     1      -0.866  -9.527   6.076  0.00  0.00    +0.002 C 
ATOM     20  C   UNL     1      -0.201  -9.210   4.734  0.00  0.00    +0.015 C 
ATOM     21  C   UNL     1       0.803  -8.070   4.925  0.00  0.00    +0.085 C 
ENDBRANCH  14  16
ENDBRANCH   4  14
BRANCH   1  22
ATOM     22  S   UNL     1      -0.408  -0.990   5.357  0.00  0.00    -0.107 S 
BRANCH  22  23
ATOM     23  C   UNL     1      -0.656  -1.810   3.758  0.00  0.00    +0.119 C 
ATOM     24  C   UNL     1      -1.998  -2.544   3.764  0.00  0.00    +0.027 C 
BRANCH  23  25
ATOM     25  C   UNL     1      -0.652  -0.778   2.659  0.00  0.00    +0.192 C 
ATOM     26  O   UNL     1      -0.951   0.372   2.905  0.00  0.00    -0.289 OA
BRANCH  25  33
ATOM     27  C   UNL     1      -0.570   1.160   0.232  0.00  0.00    +0.047 C 
ATOM     28  C   UNL     1      -0.255  -0.314   0.247  0.00  0.00    -0.012 A 
ATOM     29  C   UNL     1       0.149  -1.101  -0.855  0.00  0.00    +0.041 A 
ATOM     30  C   UNL     1       0.330  -2.395  -0.388  0.00  0.00    +0.024 A 
ATOM     31  N   UNL     1       0.057  -2.419   0.923  0.00  0.00    -0.355 N 
ATOM     32  H   UNL     1       0.105  -3.203   1.492  0.00  0.00    +0.166 HD
ATOM     33  C   UNL     1      -0.299  -1.151   1.339  0.00  0.00    +0.087 A 
ATOM     34  C   UNL     1       0.762  -3.576  -1.218  0.00  0.00    +0.064 C 
BRANCH  29  35
ATOM     35  C   UNL     1       0.341  -0.637  -2.233  0.00  0.00    +0.162 C 
ATOM     36  O   UNL     1      -0.595  -0.626  -3.005  0.00  0.00    -0.292 OA
ATOM     37  C   UNL     1       1.700  -0.174  -2.691  0.00  0.00    +0.091 C 
ENDBRANCH  29  35
ENDBRANCH  25  33
ENDBRANCH  23  25
ENDBRANCH  22  23
ENDBRANCH   1  22
TORSDOF 8
