REMARK  Name = ZINC39672899
REMARK  9 active torsions:
REMARK  status: ('A' for Active; 'I' for Inactive)
REMARK    1  A    between atoms: C_1  and  C_2
REMARK    2  A    between atoms: C_3  and  C_12
REMARK    3  A    between atoms: C_7  and  O_8
REMARK    4  A    between atoms: O_8  and  C_9
REMARK    5  A    between atoms: C_9  and  C_11
REMARK    6  A    between atoms: C_16  and  C_25
REMARK    7  A    between atoms: N_27  and  C_28
REMARK    8  A    between atoms: C_28  and  C_29
REMARK    9  A    between atoms: C_29  and  N_35
REMARK                            x       y       z     vdW  Elec       q    Type
REMARK                         _______ _______ _______ _____ _____    ______ ____
ROOT
ATOM      1  C   UNL     1      -3.223   0.782  -3.496  0.00  0.00    +0.247 C 
ATOM      2  O   UNL     1      -3.635   1.781  -4.052  0.00  0.00    -0.270 OA
ATOM      3  N   UNL     1      -2.589  -0.172  -4.206  0.00  0.00    -0.296 N 
ATOM      4  C   UNL     1      -2.053  -1.464  -3.716  0.00  0.00    +0.121 C 
ATOM      5  C   UNL     1      -2.378  -2.473  -4.840  0.00  0.00    +0.100 C 
ATOM      6  C   UNL     1      -2.518  -1.615  -6.109  0.00  0.00    -0.004 C 
ATOM      7  C   UNL     1      -2.276  -0.169  -5.655  0.00  0.00    +0.115 C 
ATOM      8  C   UNL     1      -3.924  -1.752  -6.687  0.00  0.00    -0.010 C 
ATOM      9  C   UNL     1      -4.021  -0.936  -7.979  0.00  0.00    -0.082 C 
ATOM     10  N   UNL     1      -3.024  -1.421  -8.942  0.00  0.00    +0.379 N 
ATOM     11  C   UNL     1      -1.672  -1.200  -8.417  0.00  0.00    -0.082 C 
ATOM     12  C   UNL     1      -1.475  -2.027  -7.143  0.00  0.00    -0.010 C 
ATOM     13  H   UNL     1      -3.165  -2.407  -9.102  0.00  0.00    -0.086 HD
ATOM     14  H   UNL     1      -3.131  -0.923  -9.813  0.00  0.00    -0.086 HD
ENDROOT
BRANCH   1  17
ATOM     15  C   UNL     1      -5.266   2.316  -2.138  0.00  0.00    +0.048 C 
ATOM     16  C   UNL     1      -4.400   1.347  -1.375  0.00  0.00    +0.004 A 
ATOM     17  C   UNL     1      -3.418   0.613  -2.040  0.00  0.00    +0.043 A 
ATOM     18  C   UNL     1      -2.620  -0.282  -1.326  0.00  0.00    +0.013 A 
ATOM     19  C   UNL     1      -2.804  -0.438   0.033  0.00  0.00    +0.004 A 
ATOM     20  C   UNL     1      -3.778   0.290   0.690  0.00  0.00    +0.047 A 
ATOM     21  C   UNL     1      -4.574   1.187  -0.011  0.00  0.00    +0.135 A 
BRANCH  21  22
ATOM     22  O   UNL     1      -5.526   1.904   0.642  0.00  0.00    -0.426 OA
BRANCH  22  23
ATOM     23  C   UNL     1      -5.221   3.154   1.028  0.00  0.00    +0.309 C 
ATOM     24  O   UNL     1      -4.098   3.574   0.880  0.00  0.00    -0.251 OA
ATOM     25  C   UNL     1      -6.279   4.031   1.645  0.00  0.00    +0.136 C 
ENDBRANCH  22  23
ENDBRANCH  21  22
ENDBRANCH   1  17
BRANCH   5  26
ATOM     26  C   UNL     1      -3.670  -3.190  -4.543  0.00  0.00    +0.218 C 
ATOM     27  O   UNL     1      -4.558  -2.618  -3.947  0.00  0.00    -0.275 OA
ATOM     28  N   UNL     1      -3.839  -4.467  -4.940  0.00  0.00    -0.313 N 
ATOM     29  H   UNL     1      -3.104  -4.947  -5.353  0.00  0.00    +0.149 HD
BRANCH  28  30
ATOM     30  C   UNL     1      -5.131  -5.129  -4.748  0.00  0.00    +0.126 C 
BRANCH  30  31
ATOM     31  C   UNL     1      -4.998  -6.615  -5.086  0.00  0.00    +0.038 C 
ATOM     32  C   UNL     1      -4.475  -6.768  -6.516  0.00  0.00    +0.024 C 
ATOM     33  C   UNL     1      -5.454  -6.110  -7.490  0.00  0.00    +0.002 C 
ATOM     34  C   UNL     1      -6.822  -6.784  -7.373  0.00  0.00    +0.000 C 
ATOM     35  C   UNL     1      -7.345  -6.630  -5.943  0.00  0.00    +0.002 C 
ATOM     36  C   UNL     1      -6.367  -7.289  -4.969  0.00  0.00    +0.024 C 
BRANCH  31  37
ATOM     37  N   UNL     1      -4.059  -7.247  -4.150  0.00  0.00    -0.291 NA
ATOM     38  C   UNL     1      -4.523  -7.107  -2.763  0.00  0.00    +0.113 C 
ATOM     39  C   UNL     1      -3.548  -7.830  -1.829  0.00  0.00    +0.175 C 
ATOM     40  O   UNL     1      -2.234  -7.299  -2.017  0.00  0.00    -0.377 OA
ATOM     41  C   UNL     1      -1.750  -7.420  -3.357  0.00  0.00    +0.175 C 
ATOM     42  C   UNL     1      -2.707  -6.693  -4.306  0.00  0.00    +0.113 C 
ENDBRANCH  31  37
ENDBRANCH  30  31
ENDBRANCH  28  30
ENDBRANCH   5  26
TORSDOF 7
