REMARK  Name = ZINC50635608
REMARK  6 active torsions:
REMARK  status: ('A' for Active; 'I' for Inactive)
REMARK    1  A    between atoms: C_1  and  C_2
REMARK    2  A    between atoms: C_7  and  C_23
REMARK    3  A    between atoms: N_9  and  S_10
REMARK    4  A    between atoms: S_10  and  C_13
REMARK    5  A    between atoms: C_15  and  N_20
REMARK    6  A    between atoms: C_18  and  N_19
REMARK                            x       y       z     vdW  Elec       q    Type
REMARK                         _______ _______ _______ _____ _____    ______ ____
ROOT
ATOM      1  C   UNL     1       1.875   1.850   1.364  0.00  0.00    +0.128 A 
ATOM      2  C   UNL     1       1.322   3.112   1.268  0.00  0.00    +0.063 A 
ATOM      3  C   UNL     1       1.942   4.083   0.503  0.00  0.00    +0.128 A 
ATOM      4  C   UNL     1       3.116   3.794  -0.168  0.00  0.00    +0.034 A 
ATOM      5  C   UNL     1       3.674   2.534  -0.076  0.00  0.00    +0.027 A 
ATOM      6  C   UNL     1       3.057   1.558   0.696  0.00  0.00    +0.051 A 
ENDROOT
BRANCH   1   7
ATOM      7  S   UNL     1       1.084   0.613   2.339  0.00  0.00    +0.063 S 
ATOM      8  O   UNL     1      -0.127   1.185   2.816  0.00  0.00    -0.153 OA
ATOM      9  O   UNL     1       2.075   0.089   3.212  0.00  0.00    -0.153 OA
BRANCH   7  16
ATOM     10  C   UNL     1      -0.903   1.017   0.363  0.00  0.00    +0.026 C 
ATOM     11  C   UNL     1      -0.313  -0.389   0.235  0.00  0.00    +0.077 C 
ATOM     12  C   UNL     1      -1.433  -1.428   0.345  0.00  0.00    +0.020 C 
ATOM     13  C   UNL     1      -0.822  -2.831   0.356  0.00  0.00    +0.003 C 
ATOM     14  C   UNL     1       0.096  -2.980   1.571  0.00  0.00    +0.020 C 
ATOM     15  C   UNL     1       1.234  -1.959   1.475  0.00  0.00    +0.077 C 
ATOM     16  N   UNL     1       0.656  -0.617   1.316  0.00  0.00    -0.171 NA
ATOM     17  C   UNL     1       2.078  -2.010   2.750  0.00  0.00    +0.026 C 
ENDBRANCH   7  16
ENDBRANCH   1   7
BRANCH   6  18
ATOM     18  N   UNL     1       3.621   0.284   0.796  0.00  0.00    -0.356 N 
ATOM     19  H   UNL     1       3.148  -0.420   1.266  0.00  0.00    +0.142 HD
ATOM     20  H   UNL     1       4.486   0.104   0.396  0.00  0.00    +0.142 HD
ENDBRANCH   6  18
BRANCH   3  21
ATOM     21  N   UNL     1       1.347   5.434   0.402  0.00  0.00    +0.056 N 
ATOM     22  O   UNL     1       0.320   5.688   0.987  0.00  0.00    -0.126 OA
ATOM     23  O   UNL     1       1.888   6.285  -0.267  0.00  0.00    -0.126 OA
ENDBRANCH   3  21
TORSDOF 4
