REMARK  Name = ZINC22188996
REMARK  7 active torsions:
REMARK  status: ('A' for Active; 'I' for Inactive)
REMARK    1  A    between atoms: C_7  and  S_16
REMARK    2  A    between atoms: C_9  and  C_11
REMARK    3  A    between atoms: S_16  and  C_17
REMARK    4  A    between atoms: C_17  and  C_18
REMARK    5  A    between atoms: N_20  and  C_21
REMARK    6  A    between atoms: C_21  and  C_22
REMARK    7  A    between atoms: N_24  and  C_25
REMARK                            x       y       z     vdW  Elec       q    Type
REMARK                         _______ _______ _______ _____ _____    ______ ____
ROOT
ATOM      1  C   UNL     1       4.829   0.544  -0.004  0.00  0.00    +0.171 C 
ENDROOT
BRANCH   1   2
ATOM      2  C   UNL     1       3.671   1.508   0.008  0.00  0.00    +0.224 C 
ATOM      3  O   UNL     1       3.877   2.703   0.018  0.00  0.00    -0.275 OA
ATOM      4  N   UNL     1       2.406   1.042   0.007  0.00  0.00    -0.306 N 
ATOM      5  H   UNL     1       2.220  -0.042  -0.002  0.00  0.00    +0.149 HD
BRANCH   4   6
ATOM      6  C   UNL     1       1.280   1.979   0.018  0.00  0.00    +0.200 C 
BRANCH   6   7
ATOM      7  C   UNL     1      -0.015   1.208   0.015  0.00  0.00    +0.234 C 
ATOM      8  O   UNL     1       0.001  -0.004   0.004  0.00  0.00    -0.274 OA
ATOM      9  N   UNL     1      -1.191   1.867   0.018  0.00  0.00    -0.283 N 
ATOM     10  H   UNL     1      -1.207   2.963   0.102  0.00  0.00    +0.155 HD
BRANCH   9  11
ATOM     11  C   UNL     1      -2.391   1.155  -0.086  0.00  0.00    +0.047 A 
ATOM     12  C   UNL     1      -2.510  -0.099   0.499  0.00  0.00    +0.024 A 
ATOM     13  C   UNL     1      -3.698  -0.796   0.399  0.00  0.00    +0.002 A 
ATOM     14  C   UNL     1      -4.765  -0.252  -0.291  0.00  0.00    +0.001 A 
ATOM     15  C   UNL     1      -4.649   0.994  -0.880  0.00  0.00    +0.017 A 
ATOM     16  C   UNL     1      -3.465   1.699  -0.779  0.00  0.00    +0.039 A 
ATOM     17 BR   UNL     1      -3.307   3.402  -1.585  0.00  0.00    -0.048 Br
ENDBRANCH   9  11
ENDBRANCH   6   7
ENDBRANCH   4   6
ENDBRANCH   1   2
BRANCH   1  18
ATOM     18  S   UNL     1       6.385   1.469   0.000  0.00  0.00    -0.096 S 
BRANCH  18  25
ATOM     19  C   UNL     1      10.869   1.831  -0.007  0.00  0.00    +0.001 A 
ATOM     20  C   UNL     1      11.721   0.730  -0.019  0.00  0.00    +0.002 A 
ATOM     21  C   UNL     1      11.228  -0.541  -0.029  0.00  0.00    +0.028 A 
ATOM     22  C   UNL     1       9.841  -0.745  -0.028  0.00  0.00    +0.076 A 
ATOM     23  C   UNL     1       8.976   0.378  -0.016  0.00  0.00    +0.032 A 
ATOM     24  C   UNL     1       9.514   1.668  -0.005  0.00  0.00    +0.012 A 
ATOM     25  C   UNL     1       7.535   0.135  -0.014  0.00  0.00    +0.109 A 
ATOM     26  N   UNL     1       7.123  -1.126  -0.018  0.00  0.00    -0.218 NA
ATOM     27  C   UNL     1       7.991  -2.138  -0.035  0.00  0.00    +0.197 A 
ATOM     28  N   UNL     1       9.302  -1.971  -0.037  0.00  0.00    -0.225 NA
BRANCH  27  29
ATOM     29  C   UNL     1       7.462  -3.514  -0.045  0.00  0.00    +0.172 A 
ATOM     30  C   UNL     1       6.146  -3.864  -0.045  0.00  0.00    +0.053 A 
ATOM     31  C   UNL     1       6.101  -5.271  -0.057  0.00  0.00    +0.042 A 
ATOM     32  C   UNL     1       7.377  -5.707  -0.064  0.00  0.00    +0.196 A 
ATOM     33  O   UNL     1       8.196  -4.644  -0.062  0.00  0.00    -0.460 OA
ENDBRANCH  27  29
ENDBRANCH  18  25
ENDBRANCH   1  18
TORSDOF 7
