REMARK  Name = ZINC08845529
REMARK  5 active torsions:
REMARK  status: ('A' for Active; 'I' for Inactive)
REMARK    1  A    between atoms: C_1  and  C_2
REMARK    2  A    between atoms: C_5  and  C_8
REMARK    3  A    between atoms: C_11  and  C_20
REMARK    4  A    between atoms: N_18  and  C_19
REMARK    5  A    between atoms: C_25  and  O_26
REMARK                            x       y       z     vdW  Elec       q    Type
REMARK                         _______ _______ _______ _____ _____    ______ ____
ROOT
ATOM      1  C   UNL     1       0.051  -4.237   0.005  0.00  0.00    +0.141 C 
ATOM      2  C   UNL     1      -1.293  -4.796   0.382  0.00  0.00    +0.035 A 
ATOM      3  C   UNL     1      -2.657  -4.891   0.085  0.00  0.00    +0.102 A 
ATOM      4  N   UNL     1      -3.210  -5.654   1.007  0.00  0.00    -0.173 NA
ATOM      5  N   UNL     1      -2.330  -6.051   1.857  0.00  0.00    -0.272 N 
ATOM      6  H   UNL     1      -2.511  -6.622   2.620  0.00  0.00    +0.189 HD
ATOM      7  C   UNL     1      -1.104  -5.549   1.525  0.00  0.00    +0.126 A 
ATOM      8  C   UNL     1       0.316  -5.492   1.892  0.00  0.00    +0.265 C 
ATOM      9  O   UNL     1       0.807  -6.051   2.853  0.00  0.00    -0.268 OA
ATOM     10  N   UNL     1       0.997  -4.732   1.014  0.00  0.00    -0.288 N 
ATOM     11  C   UNL     1       2.433  -4.446   1.057  0.00  0.00    +0.133 C 
ENDROOT
BRANCH   1  16
ATOM     12  C   UNL     1      -0.100   1.539   0.084  0.00  0.00    +0.044 C 
ATOM     13  C   UNL     1      -0.060   0.033   0.064  0.00  0.00    -0.050 A 
ATOM     14  C   UNL     1      -0.149  -0.677   1.246  0.00  0.00    +0.004 A 
ATOM     15  C   UNL     1      -0.113  -2.059   1.227  0.00  0.00    +0.006 A 
ATOM     16  C   UNL     1       0.011  -2.731   0.025  0.00  0.00    -0.022 A 
ATOM     17  C   UNL     1       0.099  -2.021  -1.157  0.00  0.00    +0.006 A 
ATOM     18  C   UNL     1       0.059  -0.639  -1.139  0.00  0.00    +0.004 A 
ENDBRANCH   1  16
BRANCH   3  19
ATOM     19  C   UNL     1      -3.353  -4.249  -1.058  0.00  0.00    +0.044 A 
ATOM     20  C   UNL     1      -2.623  -3.573  -2.032  0.00  0.00    +0.014 A 
ATOM     21  C   UNL     1      -3.275  -2.978  -3.093  0.00  0.00    +0.001 A 
ATOM     22  C   UNL     1      -4.653  -3.050  -3.192  0.00  0.00    +0.004 A 
ATOM     23  C   UNL     1      -5.388  -3.718  -2.231  0.00  0.00    +0.046 A 
ATOM     24  C   UNL     1      -4.745  -4.325  -1.164  0.00  0.00    +0.126 A 
BRANCH  24  25
ATOM     25  O   UNL     1      -5.465  -4.987  -0.222  0.00  0.00    -0.506 OA
ATOM     26  H   UNL     1      -5.750  -4.433   0.517  0.00  0.00    +0.292 HD
ENDBRANCH  24  25
ENDBRANCH   3  19
TORSDOF 3
