REMARK  Name = ZINC04222441
REMARK  15 active torsions:
REMARK  status: ('A' for Active; 'I' for Inactive)
REMARK    1  A    between atoms: CD1_1  and  CG_2
REMARK    2  A    between atoms: CG_2  and  CD2_3
REMARK    3  A    between atoms: CG_2  and  CB_4
REMARK    4  A    between atoms: CB_4  and  CA_5
REMARK    5  A    between atoms: CA_5  and  C_7
REMARK    6  A    between atoms: CA_5  and  N_9
REMARK    7  A    between atoms: C_7  and  O_8
REMARK    8  A    between atoms: C_10  and  C_12
REMARK    9  A    between atoms: C_12  and  C_13
REMARK   10  A    between atoms: C_21  and  C_23
REMARK   11  A    between atoms: C_31  and  C_41
REMARK   12  A    between atoms: C_34  and  O_40
REMARK   13  A    between atoms: C_36  and  C_37
REMARK   14  A    between atoms: C_36  and  C_38
REMARK   15  A    between atoms: C_38  and  O_39
REMARK                            x       y       z     vdW  Elec       q    Type
REMARK                         _______ _______ _______ _____ _____    ______ ____
ROOT
ATOM      1  C   UNK A   0       4.619   4.246   1.057  0.00  0.00    +0.054 C 
ATOM      2  C   UNK A   0       4.415   5.744   0.893  0.00  0.00    +0.058 A 
ATOM      3  C   UNK A   0       3.264   6.220   0.354  0.00  0.00    +0.015 A 
ATOM      4  S   UNK A   0       3.517   7.974   0.380  0.00  0.00    -0.057 S 
ATOM      5  C   UNK A   0       5.103   7.949   1.093  0.00  0.00    +0.165 A 
ATOM      6  N   UNK A   0       5.314   6.659   1.252  0.00  0.00    -0.229 NA
ATOM      7  N   UNK A   0       5.934   9.015   1.412  0.00  0.00    -0.258 N 
ATOM      8  C   UNK A   0       5.532  10.279   1.170  0.00  0.00    +0.285 C 
ATOM      9  O   UNK A   0       4.441  10.485   0.671  0.00  0.00    -0.266 OA
ATOM     10  C   UNK A   0       2.095   5.438  -0.130  0.00  0.00    +0.049 C 
ATOM     11  C   UNK A   0       2.502   3.958  -0.268  0.00  0.00    +0.011 C 
ATOM     12  C   UNK A   0       3.262   3.533   0.991  0.00  0.00    -0.019 C 
ATOM     13  C   UNK A   0       3.536   2.026   0.958  0.00  0.00    +0.010 C 
ATOM     14  C   UNK A   0       2.226   1.249   0.843  0.00  0.00    +0.032 C 
ATOM     15  C   UNK A   0       1.529   1.651  -0.461  0.00  0.00    +0.123 C 
ATOM     16  C   UNK A   0       1.212   3.144  -0.408  0.00  0.00    +0.021 C 
ATOM     17  C   UNK A   0       0.492   3.555  -1.694  0.00  0.00    +0.016 C 
ATOM     18  C   UNK A   0       2.441   3.877   2.235  0.00  0.00    +0.012 C 
ATOM     19  H   UNK A   0       6.803   8.851   1.810  0.00  0.00    +0.157 HD
ENDROOT
BRANCH   8  20
ATOM     20  C   UNK A   0       6.409  11.404   1.507  0.00  0.00    +0.189 A 
ATOM     21  C   UNK A   0       6.129  12.726   1.310  0.00  0.00    +0.054 A 
ATOM     22  C   UNK A   0       7.240  13.447   1.776  0.00  0.00    +0.042 A 
ATOM     23  C   UNK A   0       8.140  12.545   2.224  0.00  0.00    +0.196 A 
ATOM     24  O   UNK A   0       7.636  11.315   2.060  0.00  0.00    -0.458 OA
ENDBRANCH   8  20
BRANCH  15  25
ATOM     25  O   UNK A   0       0.316   0.909  -0.604  0.00  0.00    -0.391 OA
ATOM     26  H   UNK A   0       0.443  -0.050  -0.633  0.00  0.00    +0.210 HD
ENDBRANCH  15  25
BRANCH   1  27
ATOM     27  C   UNK A   0       5.277   3.965   2.409  0.00  0.00    +0.106 C 
BRANCH  27  29
ATOM     28  N   LEU A   1       7.466   4.359   3.493  0.00  0.00    -0.310 N 
ATOM     29  C   UNK A   0       6.689   4.495   2.400  0.00  0.00    +0.214 C 
ATOM     30  O   UNK A   0       7.125   5.042   1.410  0.00  0.00    -0.276 OA
ATOM     31  H   LEU A   1       7.117   3.921   4.285  0.00  0.00    +0.149 HD
BRANCH  28  32
ATOM     32  CA  LEU A   1       8.837   4.874   3.485  0.00  0.00    +0.098 C 
BRANCH  32  33
ATOM     33  CB  LEU A   1       9.679   4.100   4.502  0.00  0.00    +0.027 C 
BRANCH  33  35
ATOM     34  CD1 LEU A   1      10.571   2.560   2.748  0.00  0.00    +0.007 C 
ATOM     35  CG  LEU A   1       9.792   2.639   4.063  0.00  0.00    -0.015 C 
ATOM     36  CD2 LEU A   1      10.526   1.838   5.140  0.00  0.00    +0.007 C 
ENDBRANCH  33  35
ENDBRANCH  32  33
BRANCH  32  37
ATOM     37  C   LEU A   1       8.827   6.358   3.856  0.00  0.00    +0.178 C 
BRANCH  37  38
ATOM     38  O   LEU A   1       8.375   6.510   5.203  0.00  0.00    -0.393 OA
ATOM     39  H   LEU A   1       8.343   7.427   5.506  0.00  0.00    +0.209 HD
ENDBRANCH  37  38
ENDBRANCH  32  37
ENDBRANCH  28  32
ENDBRANCH  27  29
ENDBRANCH   1  27
BRANCH  16  40
ATOM     40  C   UNK A   0       0.303   3.427   0.790  0.00  0.00    +0.165 C 
BRANCH  40  41
ATOM     41  O   UNK A   0      -0.971   2.815   0.576  0.00  0.00    -0.394 OA
ATOM     42  H   UNK A   0      -1.600   2.953   1.297  0.00  0.00    +0.209 HD
ENDBRANCH  40  41
ENDBRANCH  16  40
TORSDOF 11
