REMARK  Name = ZINC35032070
REMARK  11 active torsions:
REMARK  status: ('A' for Active; 'I' for Inactive)
REMARK    1  A    between atoms: C_1  and  C_2
REMARK    2  A    between atoms: C_2  and  N_3
REMARK    3  A    between atoms: C_13  and  C_14
REMARK    4  A    between atoms: C_14  and  C_16
REMARK    5  A    between atoms: C_14  and  N_17
REMARK    6  A    between atoms: N_17  and  C_18
REMARK    7  A    between atoms: C_18  and  C_19
REMARK    8  A    between atoms: C_19  and  N_20
REMARK    9  A    between atoms: N_20  and  C_21
REMARK   10  A    between atoms: N_20  and  C_22
REMARK   11  A    between atoms: N_25  and  C_26
REMARK                            x       y       z     vdW  Elec       q    Type
REMARK                         _______ _______ _______ _____ _____    ______ ____
ROOT
ATOM      1  N   UNL     1       4.350  -0.610  -0.351  0.00  0.00    -0.277 N 
ATOM      2  C   UNL     1       4.973  -1.513   0.432  0.00  0.00    +0.307 C 
ATOM      3  O   UNL     1       4.321  -2.258   1.138  0.00  0.00    -0.252 OA
ATOM      4  N   UNL     1       6.319  -1.589   0.434  0.00  0.00    -0.268 N 
ATOM      5  H   UNL     1       6.841  -0.950  -0.075  0.00  0.00    +0.156 HD
ENDROOT
BRANCH   4   6
ATOM      6  C   UNL     1       6.962  -2.592   1.170  0.00  0.00    +0.053 A 
ATOM      7  C   UNL     1       6.373  -3.097   2.321  0.00  0.00    +0.026 A 
ATOM      8  C   UNL     1       7.009  -4.086   3.045  0.00  0.00    +0.022 A 
ATOM      9  C   UNL     1       8.234  -4.574   2.624  0.00  0.00    +0.042 A 
ATOM     10  C   UNL     1       8.825  -4.073   1.478  0.00  0.00    +0.041 A 
ATOM     11  C   UNL     1       8.189  -3.087   0.746  0.00  0.00    +0.064 A 
ATOM     12 CL   UNL     1       8.927  -2.464  -0.697  0.00  0.00    -0.082 Cl
ATOM     13 CL   UNL     1       9.031  -5.817   3.537  0.00  0.00    -0.083 Cl
ENDBRANCH   4   6
BRANCH   1  14
ATOM     14  C   UNL     1       2.888  -0.527  -0.352  0.00  0.00    +0.141 C 
ATOM     15  C   UNL     1       2.456   0.873   0.091  0.00  0.00    +0.036 C 
BRANCH  14  26
ATOM     16  N   UNL     1       1.633  -1.917  -1.950  0.00  0.00    -0.295 N 
ATOM     17  C   UNL     1       1.141  -2.201  -3.178  0.00  0.00    +0.262 A 
ATOM     18  O   UNL     1       0.474  -3.200  -3.377  0.00  0.00    -0.267 OA
ATOM     19  C   UNL     1       1.442  -1.256  -4.263  0.00  0.00    +0.066 A 
ATOM     20  C   UNL     1       0.983  -1.455  -5.563  0.00  0.00    +0.035 A 
ATOM     21  C   UNL     1       1.296  -0.536  -6.542  0.00  0.00    +0.042 A 
ATOM     22  C   UNL     1       2.063   0.583  -6.241  0.00  0.00    +0.022 A 
ATOM     23  C   UNL     1       2.526   0.798  -4.963  0.00  0.00    +0.030 A 
ATOM     24  C   UNL     1       2.222  -0.119  -3.954  0.00  0.00    +0.078 A 
ATOM     25  N   UNL     1       2.657   0.054  -2.681  0.00  0.00    -0.232 NA
ATOM     26  C   UNL     1       2.370  -0.796  -1.742  0.00  0.00    +0.133 A 
ATOM     27 CL   UNL     1       0.727  -0.779  -8.164  0.00  0.00    -0.084 Cl
BRANCH  16  29
ATOM     28  C   UNL     1       0.133  -2.336  -0.063  0.00  0.00    +0.027 C 
ATOM     29  C   UNL     1       1.362  -2.825  -0.832  0.00  0.00    +0.123 C 
ENDBRANCH  16  29
ENDBRANCH  14  26
ENDBRANCH   1  14
BRANCH   1  30
ATOM     30  C   UNL     1       5.136   0.288  -1.200  0.00  0.00    +0.091 C 
BRANCH  30  31
ATOM     31  C   UNL     1       5.463   1.567  -0.426  0.00  0.00    -0.060 C 
BRANCH  31  32
ATOM     32  N   UNL     1       6.251   2.467  -1.278  0.00  0.00    +0.377 N 
ATOM     33  C   UNL     1       6.463   3.742  -0.579  0.00  0.00    -0.097 C 
ATOM     34  C   UNL     1       7.550   1.849  -1.574  0.00  0.00    -0.097 C 
ATOM     35  H   UNL     1       5.754   2.635  -2.140  0.00  0.00    -0.083 HD
ENDBRANCH  31  32
ENDBRANCH  30  31
ENDBRANCH   1  30
TORSDOF 7
