REMARK  Name = ZINC13582385
REMARK  13 active torsions:
REMARK  status: ('A' for Active; 'I' for Inactive)
REMARK    1  A    between atoms: C_1  and  C_2
REMARK    2  A    between atoms: C_2  and  C_3
REMARK    3  A    between atoms: C_2  and  O_4
REMARK    4  A    between atoms: O_4  and  C_5
REMARK    5  A    between atoms: C_5  and  C_7
REMARK    6  A    between atoms: C_13  and  C_14
REMARK    7  A    between atoms: C_17  and  O_20
REMARK    8  A    between atoms: O_20  and  C_21
REMARK    9  A    between atoms: C_23  and  N_37
REMARK   10  A    between atoms: C_24  and  C_35
REMARK   11  A    between atoms: C_25  and  C_27
REMARK   12  A    between atoms: C_30  and  O_33
REMARK   13  A    between atoms: O_33  and  C_34
REMARK                            x       y       z     vdW  Elec       q    Type
REMARK                         _______ _______ _______ _____ _____    ______ ____
ROOT
ATOM      1  C   UNL     1      -3.933   2.746   0.924  0.00  0.00    +0.080 C 
ATOM      2  C   UNL     1      -3.760   1.411   0.667  0.00  0.00    +0.100 A 
ATOM      3  N   UNL     1      -2.643   0.690   1.034  0.00  0.00    -0.257 N 
ATOM      4  C   UNL     1      -2.611  -0.620   0.715  0.00  0.00    +0.271 A 
ATOM      5  O   UNL     1      -1.654  -1.310   1.011  0.00  0.00    -0.266 OA
ATOM      6  C   UNL     1      -3.758  -1.193   0.003  0.00  0.00    +0.079 A 
ATOM      7  C   UNL     1      -3.960  -2.467  -0.423  0.00  0.00    +0.028 C 
ATOM      8  S   UNL     1      -4.817   0.236  -0.154  0.00  0.00    -0.065 S 
ATOM      9  C   UNL     1      -1.605   1.339   1.713  0.00  0.00    +0.118 C 
ATOM     10  C   UNL     1      -1.626   2.648   2.044  0.00  0.00    +0.079 C 
ATOM     11  C   UNL     1      -2.830   3.483   1.658  0.00  0.00    +0.102 C 
ENDROOT
BRANCH   7  12
ATOM     12  C   UNL     1      -2.869  -3.446  -0.351  0.00  0.00    -0.024 A 
ATOM     13  C   UNL     1      -1.563  -3.070  -0.687  0.00  0.00    +0.011 A 
ATOM     14  C   UNL     1      -0.543  -3.991  -0.611  0.00  0.00    +0.046 A 
ATOM     15  C   UNL     1      -0.809  -5.296  -0.214  0.00  0.00    +0.120 A 
ATOM     16  C   UNL     1      -2.105  -5.677   0.115  0.00  0.00    +0.046 A 
ATOM     17  C   UNL     1      -3.132  -4.763   0.049  0.00  0.00    +0.011 A 
BRANCH  15  18
ATOM     18  O   UNL     1       0.200  -6.202  -0.147  0.00  0.00    -0.495 OA
ATOM     19  C   UNL     1       1.507  -5.745  -0.498  0.00  0.00    +0.277 C 
ENDBRANCH  15  18
ENDBRANCH   7  12
BRANCH  11  20
ATOM     20  C   UNL     1      -2.361   4.619   0.786  0.00  0.00    -0.034 A 
ATOM     21  C   UNL     1      -1.832   4.357  -0.465  0.00  0.00    +0.008 A 
ATOM     22  C   UNL     1      -1.407   5.397  -1.268  0.00  0.00    +0.046 A 
ATOM     23  C   UNL     1      -1.499   6.705  -0.815  0.00  0.00    +0.120 A 
ATOM     24  C   UNL     1      -2.025   6.965   0.442  0.00  0.00    +0.046 A 
ATOM     25  C   UNL     1      -2.454   5.922   1.240  0.00  0.00    +0.008 A 
BRANCH  23  26
ATOM     26  O   UNL     1      -1.077   7.729  -1.602  0.00  0.00    -0.495 OA
ATOM     27  C   UNL     1      -0.547   7.387  -2.884  0.00  0.00    +0.277 C 
ENDBRANCH  23  26
ENDBRANCH  11  20
BRANCH   9  28
ATOM     28  N   UNL     1      -0.503   0.600   2.068  0.00  0.00    -0.343 N 
ATOM     29  H   UNL     1       0.376   1.010   2.071  0.00  0.00    +0.144 HD
ATOM     30  H   UNL     1      -0.605  -0.331   2.321  0.00  0.00    +0.144 HD
ENDBRANCH   9  28
BRANCH   1  31
ATOM     31  C   UNL     1      -5.097   3.412   0.519  0.00  0.00    +0.339 C 
ATOM     32  O   UNL     1      -5.973   2.803  -0.070  0.00  0.00    -0.245 OA
BRANCH  31  33
ATOM     33  O   UNL     1      -5.249   4.729   0.781  0.00  0.00    -0.459 OA
BRANCH  33  35
ATOM     34  C   UNL     1      -6.823   6.493   1.281  0.00  0.00    +0.052 C 
ATOM     35  C   UNL     1      -6.461   5.343   0.340  0.00  0.00    +0.171 C 
ATOM     36  C   UNL     1      -6.271   5.885  -1.078  0.00  0.00    +0.052 C 
ENDBRANCH  33  35
ENDBRANCH  31  33
ENDBRANCH   1  31
BRANCH  10  37
ATOM     37  C   UNL     1      -0.526   3.239   2.745  0.00  0.00    +0.099 C 
ATOM     38  N   UNL     1       0.347   3.708   3.301  0.00  0.00    -0.191 NA
ENDBRANCH  10  37
TORSDOF 9
