REMARK  Name = ZINC63994242
REMARK  15 active torsions:
REMARK  status: ('A' for Active; 'I' for Inactive)
REMARK    1  A    between atoms: C_1  and  C_2
REMARK    2  A    between atoms: C_2  and  C_4
REMARK    3  A    between atoms: C_2  and  N_8
REMARK    4  A    between atoms: C_4  and  C_5
REMARK    5  A    between atoms: C_5  and  C_6
REMARK    6  A    between atoms: C_5  and  C_7
REMARK    7  A    between atoms: N_8  and  C_9
REMARK    8  A    between atoms: N_15  and  C_28
REMARK    9  A    between atoms: C_16  and  C_24
REMARK   10  A    between atoms: C_18  and  N_20
REMARK   11  A    between atoms: C_21  and  C_23
REMARK   12  A    between atoms: C_24  and  O_26
REMARK   13  A    between atoms: O_26  and  C_27
REMARK   14  A    between atoms: C_28  and  C_29
REMARK   15  A    between atoms: C_29  and  C_30
REMARK                            x       y       z     vdW  Elec       q    Type
REMARK                         _______ _______ _______ _____ _____    ______ ____
ROOT
ATOM      1  C   UNL     1      -0.138  -0.666   2.419  0.00  0.00    +0.044 A 
ATOM      2  C   UNL     1       0.448  -1.121   3.600  0.00  0.00    +0.033 A 
ATOM      3  C   UNL     1      -0.351  -1.264   4.718  0.00  0.00    +0.015 A 
ATOM      4  C   UNL     1      -1.703  -0.958   4.651  0.00  0.00    +0.105 A 
ATOM      5  N   UNL     1      -2.222  -0.526   3.502  0.00  0.00    -0.348 N 
ATOM      6  C   UNL     1      -1.492  -0.372   2.417  0.00  0.00    +0.107 A 
ATOM      7  N   UNL     1      -2.335  -1.166   5.875  0.00  0.00    -0.301 N 
ATOM      8  C   UNL     1      -1.371  -1.649   6.867  0.00  0.00    +0.208 C 
ATOM      9  C   UNL     1      -0.029  -1.725   6.121  0.00  0.00    +0.138 C 
ATOM     10  H   UNL     1      -3.168  -0.315   3.465  0.00  0.00    +0.167 HD
ENDROOT
BRANCH   9  11
ATOM     11  N   UNL     1       0.953  -0.832   6.740  0.00  0.00    -0.306 N 
ATOM     12  C   UNL     1       2.270  -1.042   6.549  0.00  0.00    +0.210 C 
ATOM     13  O   UNL     1       2.643  -1.971   5.864  0.00  0.00    -0.276 OA
ATOM     14  C   UNL     1       3.280  -0.122   7.187  0.00  0.00    +0.109 C 
ATOM     15  H   UNL     1       0.654  -0.089   7.288  0.00  0.00    +0.149 HD
ENDBRANCH   9  11
BRANCH   1  16
ATOM     16  N   UNL     1       0.629  -0.505   1.259  0.00  0.00    -0.340 N 
ATOM     17  H   UNL     1       1.577  -0.714   1.270  0.00  0.00    +0.146 HD
BRANCH  16  19
ATOM     18  C   UNL     1      -0.034   1.509   0.040  0.00  0.00    +0.028 C 
ATOM     19  C   UNL     1       0.001  -0.020   0.027  0.00  0.00    +0.068 C 
BRANCH  19  20
ATOM     20  C   UNL     1       0.809  -0.501  -1.180  0.00  0.00    +0.025 C 
BRANCH  20  21
ATOM     21  C   UNL     1       0.739  -2.027  -1.265  0.00  0.00    -0.015 C 
ATOM     22  C   UNL     1      -0.699  -2.456  -1.566  0.00  0.00    +0.007 C 
ATOM     23  C   UNL     1       1.662  -2.519  -2.382  0.00  0.00    +0.007 C 
ENDBRANCH  20  21
ENDBRANCH  19  20
ENDBRANCH  16  19
ENDBRANCH   1  16
BRANCH   8  24
ATOM     24  C   UNL     1      -1.277  -0.681   8.018  0.00  0.00    +0.330 C 
ATOM     25  O   UNL     1      -1.669   0.454   7.887  0.00  0.00    -0.249 OA
BRANCH  24  26
ATOM     26  O   UNL     1      -0.758  -1.081   9.190  0.00  0.00    -0.467 OA
ATOM     27  C   UNL     1      -0.700  -0.111  10.238  0.00  0.00    +0.280 C 
ENDBRANCH  24  26
ENDBRANCH   8  24
BRANCH   7  28
ATOM     28  C   UNL     1      -3.759  -0.935   6.133  0.00  0.00    +0.112 C 
BRANCH  28  29
ATOM     29  C   UNL     1      -4.544  -2.215   5.842  0.00  0.00    +0.052 C 
BRANCH  29  30
ATOM     30  C   UNL     1      -6.008  -1.978   6.107  0.00  0.00    -0.040 C 
ATOM     31  C   UNL     1      -6.953  -1.629   5.204  0.00  0.00    -0.001 A 
ATOM     32  C   UNL     1      -6.901  -1.376   3.759  0.00  0.00    +0.010 A 
ATOM     33  C   UNL     1      -8.038  -1.036   3.111  0.00  0.00    +0.001 A 
ATOM     34  C   UNL     1      -9.262  -0.919   3.784  0.00  0.00    +0.002 A 
ATOM     35  C   UNL     1      -9.389  -1.136   5.110  0.00  0.00    +0.026 A 
ATOM     36  C   UNL     1      -8.258  -1.500   5.891  0.00  0.00    +0.043 A 
ATOM     37  N   UNL     1      -8.126  -1.758   7.169  0.00  0.00    -0.380 N 
ATOM     38  C   UNL     1      -6.721  -2.087   7.437  0.00  0.00    +0.144 C 
ATOM     39  H   UNL     1      -8.838  -1.738   7.827  0.00  0.00    +0.160 HD
ENDBRANCH  29  30
ENDBRANCH  28  29
ENDBRANCH   7  28
TORSDOF 10
