REMARK  Name = ZINC12938252
REMARK  5 active torsions:
REMARK  status: ('A' for Active; 'I' for Inactive)
REMARK    1  A    between atoms: C_6  and  C_7
REMARK    2  A    between atoms: N_9  and  C_10
REMARK    3  A    between atoms: C_10  and  C_11
REMARK    4  A    between atoms: C_11  and  C_12
REMARK    5  A    between atoms: N_14  and  C_15
REMARK                            x       y       z     vdW  Elec       q    Type
REMARK                         _______ _______ _______ _____ _____    ______ ____
ROOT
ATOM      1  C   UNL     1      -5.103   1.358   1.069  0.00  0.00    +0.215 C 
ATOM      2  O   UNL     1      -4.707   2.056   1.979  0.00  0.00    -0.276 OA
ATOM      3  N   UNL     1      -4.279   1.049   0.049  0.00  0.00    -0.310 N 
ATOM      4  H   UNL     1      -4.595   0.491  -0.679  0.00  0.00    +0.149 HD
ENDROOT
BRANCH   3   5
ATOM      5  C   UNL     1      -2.904   1.556   0.038  0.00  0.00    +0.035 C 
ATOM      6  C   UNL     1      -2.188   1.063  -1.221  0.00  0.00    +0.029 C 
ATOM      7  C   UNL     1      -0.753   1.593  -1.232  0.00  0.00    -0.008 C 
ATOM      8  C   UNL     1      -0.013   1.086   0.008  0.00  0.00    +0.007 C 
ATOM      9  C   UNL     1      -0.729   1.579   1.267  0.00  0.00    -0.008 C 
ATOM     10  C   UNL     1      -2.164   1.050   1.278  0.00  0.00    +0.029 C 
ATOM     11  C   UNL     1      -0.750   3.109   1.275  0.00  0.00    +0.007 C 
ATOM     12  C   UNL     1      -1.490   3.616   0.036  0.00  0.00    -0.008 C 
ATOM     13  C   UNL     1      -0.773   3.123  -1.223  0.00  0.00    +0.007 C 
ATOM     14  C   UNL     1      -2.925   3.086   0.047  0.00  0.00    +0.029 C 
ENDBRANCH   3   5
BRANCH   1  15
ATOM     15  C   UNL     1      -6.517   0.837   1.080  0.00  0.00    +0.114 C 
BRANCH  15  16
ATOM     16  C   UNL     1      -7.233   1.330   2.338  0.00  0.00    +0.113 C 
BRANCH  16  19
ATOM     17  C   UNL     1      -9.432   1.132   3.369  0.00  0.00    +0.244 C 
ATOM     18  O   UNL     1      -9.035   1.831   4.281  0.00  0.00    -0.270 OA
ATOM     19  N   UNL     1      -8.607   0.823   2.349  0.00  0.00    -0.311 N 
ATOM     20  H   UNL     1      -8.924   0.265   1.621  0.00  0.00    +0.149 HD
BRANCH  17  26
ATOM     21  C   UNL     1     -11.279  -0.178   2.331  0.00  0.00    +0.014 A 
ATOM     22  C   UNL     1     -12.572  -0.658   2.350  0.00  0.00    +0.016 A 
ATOM     23  C   UNL     1     -13.417  -0.339   3.400  0.00  0.00    +0.018 A 
ATOM     24  C   UNL     1     -12.968   0.458   4.439  0.00  0.00    +0.016 A 
ATOM     25  C   UNL     1     -11.675   0.938   4.435  0.00  0.00    +0.014 A 
ATOM     26  C   UNL     1     -10.819   0.620   3.380  0.00  0.00    +0.037 A 
ATOM     27 BR   UNL     1     -15.191  -0.993   3.413  0.00  0.00    -0.050 Br
ENDBRANCH  17  26
ENDBRANCH  16  19
ENDBRANCH  15  16
ENDBRANCH   1  15
TORSDOF 5
