REMARK  Name = ZINC64871197
REMARK  5 active torsions:
REMARK  status: ('A' for Active; 'I' for Inactive)
REMARK    1  A    between atoms: C_1  and  C_2
REMARK    2  A    between atoms: C_5  and  C_8
REMARK    3  A    between atoms: C_11  and  C_15
REMARK    4  A    between atoms: N_25  and  C_28
REMARK    5  A    between atoms: C_28  and  C_29
REMARK                            x       y       z     vdW  Elec       q    Type
REMARK                         _______ _______ _______ _____ _____    ______ ____
ROOT
ATOM      1  C   UNL     1      -2.279  -6.641   1.480  0.00  0.00    -0.000 A 
ATOM      2  C   UNL     1      -3.189  -5.719   1.976  0.00  0.00    +0.008 A 
ATOM      3  C   UNL     1      -4.287  -6.140   2.696  0.00  0.00    +0.016 A 
ATOM      4  C   UNL     1      -4.479  -7.500   2.923  0.00  0.00    +0.063 A 
ATOM      5  C   UNL     1      -3.557  -8.434   2.420  0.00  0.00    +0.056 A 
ATOM      6  C   UNL     1      -2.461  -7.993   1.694  0.00  0.00    +0.034 A 
ATOM      7  N   UNL     1      -3.773  -9.783   2.661  0.00  0.00    -0.307 N 
ATOM      8  H   UNL     1      -3.145 -10.439   2.320  0.00  0.00    +0.170 HD
ATOM      9  C   UNL     1      -4.845 -10.190   3.363  0.00  0.00    +0.330 A 
ATOM     10  O   UNL     1      -4.999 -11.381   3.552  0.00  0.00    -0.246 OA
ATOM     11  N   UNL     1      -5.753  -9.338   3.863  0.00  0.00    -0.256 N 
ATOM     12  C   UNL     1      -5.636  -8.004   3.685  0.00  0.00    +0.265 A 
ATOM     13  O   UNL     1      -6.463  -7.238   4.141  0.00  0.00    -0.267 OA
ENDROOT
BRANCH   1  16
ATOM     14  C   UNL     1       0.059  -4.275  -0.021  0.00  0.00    +0.180 C 
ATOM     15  N   UNL     1      -0.668  -4.815   1.159  0.00  0.00    -0.265 NA
ATOM     16  C   UNL     1      -1.085  -6.164   0.696  0.00  0.00    +0.242 C 
ATOM     17  O   UNL     1      -1.431  -5.987  -0.690  0.00  0.00    -0.274 OA
ATOM     18  N   UNL     1      -0.706  -4.800  -1.176  0.00  0.00    -0.177 NA
ATOM     19  H   UNL     1      -0.058  -4.880   1.960  0.00  0.00    +0.127 HD
ATOM     20  H   UNL     1      -1.347  -4.106  -1.531  0.00  0.00    +0.156 HD
BRANCH  14  25
ATOM     21  C   UNL     1      -0.018   1.503   0.010  0.00  0.00    +0.044 C 
ATOM     22  C   UNL     1       0.002  -0.004   0.002  0.00  0.00    -0.050 A 
ATOM     23  C   UNL     1       0.006  -0.689  -1.199  0.00  0.00    +0.004 A 
ATOM     24  C   UNL     1       0.025  -2.071  -1.206  0.00  0.00    +0.007 A 
ATOM     25  C   UNL     1       0.040  -2.768  -0.013  0.00  0.00    -0.014 A 
ATOM     26  C   UNL     1       0.037  -2.084   1.188  0.00  0.00    +0.007 A 
ATOM     27  C   UNL     1       0.023  -0.702   1.195  0.00  0.00    +0.004 A 
ENDBRANCH  14  25
ENDBRANCH   1  16
BRANCH  11  28
ATOM     28  C   UNL     1      -6.894  -9.864   4.617  0.00  0.00    +0.165 C 
BRANCH  28  29
ATOM     29  C   UNL     1      -6.534  -9.950   6.078  0.00  0.00    -0.027 A 
ATOM     30  C   UNL     1      -5.959 -11.102   6.581  0.00  0.00    +0.007 A 
ATOM     31  C   UNL     1      -5.628 -11.182   7.920  0.00  0.00    +0.020 A 
ATOM     32  C   UNL     1      -5.873 -10.108   8.758  0.00  0.00    +0.041 A 
ATOM     33  C   UNL     1      -6.449  -8.956   8.254  0.00  0.00    +0.020 A 
ATOM     34  C   UNL     1      -6.774  -8.875   6.913  0.00  0.00    +0.007 A 
ATOM     35 CL   UNL     1      -5.459 -10.208  10.441  0.00  0.00    -0.084 Cl
ENDBRANCH  28  29
ENDBRANCH  11  28
TORSDOF 4
