REMARK  Name = ZINC36038454
REMARK  11 active torsions:
REMARK  status: ('A' for Active; 'I' for Inactive)
REMARK    1  A    between atoms: C_1  and  C_2
REMARK    2  A    between atoms: C_2  and  C_3
REMARK    3  A    between atoms: C_3  and  C_5
REMARK    4  A    between atoms: C_3  and  C_6
REMARK    5  A    between atoms: C_6  and  N_7
REMARK    6  A    between atoms: C_10  and  C_29
REMARK    7  A    between atoms: N_16  and  S_19
REMARK    8  A    between atoms: S_19  and  C_22
REMARK    9  A    between atoms: C_29  and  C_30
REMARK   10  A    between atoms: C_30  and  C_31
REMARK   11  A    between atoms: C_30  and  C_32
REMARK                            x       y       z     vdW  Elec       q    Type
REMARK                         _______ _______ _______ _____ _____    ______ ____
ROOT
ATOM      1  N   UNL     1       1.281  -2.762   2.306  0.00  0.00    -0.313 N 
ATOM      2  C   UNL     1       2.616  -2.911   2.429  0.00  0.00    +0.200 C 
ATOM      3  O   UNL     1       3.430  -2.772   1.540  0.00  0.00    -0.277 OA
ATOM      4  C   UNL     1       2.929  -3.280   3.863  0.00  0.00    +0.019 C 
ATOM      5  N   UNL     1       1.704  -2.925   4.620  0.00  0.00    +0.401 N 
ATOM      6  C   UNL     1       0.640  -3.013   3.600  0.00  0.00    +0.006 C 
ATOM      7  C   UNL     1       0.023  -4.410   3.623  0.00  0.00    +0.023 C 
ATOM      8  C   UNL     1      -1.054  -4.508   2.538  0.00  0.00    +0.109 C 
ATOM      9  N   UNL     1      -2.014  -3.412   2.725  0.00  0.00    -0.177 NA
ATOM     10  C   UNL     1      -1.510  -2.034   2.792  0.00  0.00    +0.109 C 
ATOM     11  C   UNL     1      -0.428  -1.956   3.875  0.00  0.00    +0.023 C 
ATOM     12  H   UNL     1       1.542  -3.586   5.365  0.00  0.00    -0.082 HD
ATOM     13  H   UNL     1       1.768  -1.986   4.983  0.00  0.00    -0.082 HD
ENDROOT
BRANCH   9  14
ATOM     14  S   UNL     1      -3.635  -3.724   2.859  0.00  0.00    +0.061 S 
ATOM     15  O   UNL     1      -4.311  -2.536   2.471  0.00  0.00    -0.153 OA
ATOM     16  O   UNL     1      -3.862  -4.973   2.220  0.00  0.00    -0.153 OA
BRANCH  14  17
ATOM     17  C   UNL     1      -3.980  -3.964   4.570  0.00  0.00    +0.107 A 
ATOM     18  C   UNL     1      -3.894  -5.229   5.122  0.00  0.00    +0.028 A 
ATOM     19  C   UNL     1      -4.165  -5.417   6.464  0.00  0.00    +0.003 A 
ATOM     20  C   UNL     1      -4.522  -4.342   7.256  0.00  0.00    +0.020 A 
ATOM     21  C   UNL     1      -4.608  -3.076   6.704  0.00  0.00    +0.043 A 
ATOM     22  C   UNL     1      -4.331  -2.887   5.362  0.00  0.00    +0.048 A 
ATOM     23 CL   UNL     1      -5.056  -1.725   7.697  0.00  0.00    -0.083 Cl
ENDBRANCH  14  17
ENDBRANCH   9  14
BRANCH   1  24
ATOM     24  C   UNL     1       0.581  -2.400   1.072  0.00  0.00    +0.109 C 
BRANCH  24  25
ATOM     25  C   UNL     1       0.498  -0.876   0.961  0.00  0.00    +0.003 C 
ATOM     26  C   UNL     1       1.905  -0.301   0.786  0.00  0.00    +0.009 C 
BRANCH  25  28
ATOM     27  C   UNL     1      -0.547   1.019  -0.287  0.00  0.00    +0.004 C 
ATOM     28  C   UNL     1      -0.361  -0.499  -0.248  0.00  0.00    +0.001 C 
ENDBRANCH  25  28
ENDBRANCH  24  25
ENDBRANCH   1  24
BRANCH   4  29
ATOM     29  C   UNL     1       3.213  -4.779   3.978  0.00  0.00    -0.004 C 
BRANCH  29  30
ATOM     30  C   UNL     1       4.506  -5.111   3.231  0.00  0.00    -0.018 C 
ATOM     31  C   UNL     1       5.688  -4.442   3.935  0.00  0.00    +0.007 C 
ATOM     32  C   UNL     1       4.713  -6.627   3.217  0.00  0.00    +0.007 C 
ENDBRANCH  29  30
ENDBRANCH   4  29
TORSDOF 7
