REMARK  Name = ZINC14478070
REMARK  7 active torsions:
REMARK  status: ('A' for Active; 'I' for Inactive)
REMARK    1  A    between atoms: C_1  and  C_2
REMARK    2  A    between atoms: C_4  and  C_37
REMARK    3  A    between atoms: C_6  and  N_8
REMARK    4  A    between atoms: N_8  and  S_9
REMARK    5  A    between atoms: S_9  and  C_12
REMARK    6  A    between atoms: C_25  and  C_28
REMARK    7  A    between atoms: C_33  and  N_34
REMARK                            x       y       z     vdW  Elec       q    Type
REMARK                         _______ _______ _______ _____ _____    ______ ____
ROOT
ATOM      1  C   UNL     1      -3.726   1.951  -0.219  0.00  0.00    +0.109 A 
ATOM      2  C   UNL     1      -3.822   0.571  -0.209  0.00  0.00    +0.030 A 
ATOM      3  C   UNL     1      -2.693  -0.192   0.018  0.00  0.00    +0.025 A 
ATOM      4  C   UNL     1      -1.468   0.428   0.236  0.00  0.00    +0.031 A 
ATOM      5  C   UNL     1      -1.369   1.808   0.229  0.00  0.00    -0.018 A 
ATOM      6  C   UNL     1      -2.510   2.565   0.003  0.00  0.00    +0.034 A 
ATOM      7  C   UNL     1      -0.072   2.535   0.464  0.00  0.00    +0.049 C 
ATOM      8  C   UNL     1      -0.260   3.421   1.688  0.00  0.00    -0.023 C 
ATOM      9  C   UNL     1       0.197   2.824   2.760  0.00  0.00    -0.030 C 
ATOM     10  C   UNL     1       0.757   1.457   2.408  0.00  0.00    +0.033 C 
ATOM     11  C   UNL     1       1.062   1.588   0.896  0.00  0.00    +0.029 C 
ATOM     12  C   UNL     1       0.978   0.240   0.205  0.00  0.00    +0.107 C 
ATOM     13  N   UNL     1      -0.335  -0.362   0.460  0.00  0.00    -0.336 N 
ATOM     14  H   UNL     1      -0.415  -1.276   0.773  0.00  0.00    +0.147 HD
ENDROOT
BRANCH  12  15
ATOM     15  C   UNL     1       1.167   0.425  -1.279  0.00  0.00    +0.003 A 
ATOM     16  C   UNL     1       0.074   0.381  -2.125  0.00  0.00    +0.008 A 
ATOM     17  C   UNL     1       0.246   0.556  -3.485  0.00  0.00    +0.000 A 
ATOM     18  C   UNL     1       1.512   0.763  -4.001  0.00  0.00    +0.002 A 
ATOM     19  C   UNL     1       2.605   0.802  -3.156  0.00  0.00    +0.033 A 
ATOM     20  C   UNL     1       2.432   0.633  -1.794  0.00  0.00    +0.131 A 
BRANCH  20  21
ATOM     21  N   UNL     1       3.603   0.674  -0.889  0.00  0.00    +0.057 N 
ATOM     22  O   UNL     1       4.704   0.950  -1.330  0.00  0.00    -0.126 OA
ATOM     23  O   UNL     1       3.464   0.431   0.296  0.00  0.00    -0.126 OA
ENDBRANCH  20  21
ENDBRANCH  12  15
BRANCH   1  24
ATOM     24  S   UNL     1      -5.163   2.928  -0.510  0.00  0.00    +0.072 S 
ATOM     25  O   UNL     1      -4.718   4.131  -1.121  0.00  0.00    -0.150 OA
ATOM     26  O   UNL     1      -6.119   2.072  -1.120  0.00  0.00    -0.150 OA
BRANCH  24  27
ATOM     27  N   UNL     1      -5.778   3.347   0.969  0.00  0.00    -0.216 N 
ATOM     28  H   UNL     1      -5.795   4.278   1.240  0.00  0.00    +0.174 HD
BRANCH  27  34
ATOM     29  C   UNL     1      -8.515  -0.676   1.655  0.00  0.00    +0.044 C 
ATOM     30  C   UNL     1      -7.600   0.397   2.186  0.00  0.00    -0.048 A 
ATOM     31  C   UNL     1      -7.248   0.406   3.523  0.00  0.00    +0.006 A 
ATOM     32  C   UNL     1      -6.409   1.389   4.014  0.00  0.00    -0.048 A 
ATOM     33  C   UNL     1      -5.919   2.366   3.170  0.00  0.00    +0.028 A 
ATOM     34  C   UNL     1      -6.271   2.361   1.826  0.00  0.00    +0.049 A 
ATOM     35  C   UNL     1      -7.118   1.374   1.337  0.00  0.00    +0.028 A 
ATOM     36  C   UNL     1      -6.028   1.395   5.472  0.00  0.00    +0.044 C 
ENDBRANCH  27  34
ENDBRANCH  24  27
ENDBRANCH   1  24
TORSDOF 5
