REMARK  Name = ZINC36567397
REMARK  13 active torsions:
REMARK  status: ('A' for Active; 'I' for Inactive)
REMARK    1  A    between atoms: C_1  and  C_2
REMARK    2  A    between atoms: C_2  and  C_3
REMARK    3  A    between atoms: C_3  and  N_4
REMARK    4  A    between atoms: N_4  and  C_5
REMARK    5  A    between atoms: C_5  and  C_7
REMARK    6  A    between atoms: C_5  and  C_10
REMARK    7  A    between atoms: C_8  and  C_9
REMARK    8  A    between atoms: N_12  and  C_13
REMARK    9  A    between atoms: C_13  and  S_14
REMARK   10  A    between atoms: S_14  and  C_17
REMARK   11  A    between atoms: C_20  and  C_23
REMARK   12  A    between atoms: C_24  and  C_26
REMARK   13  A    between atoms: C_26  and  C_27
REMARK                            x       y       z     vdW  Elec       q    Type
REMARK                         _______ _______ _______ _____ _____    ______ ____
ROOT
ATOM      1  C   UNL     1      -1.391  -2.738   1.269  0.00  0.00    +0.185 C 
ENDROOT
BRANCH   1   2
ATOM      2  C   UNL     1      -2.619  -2.395   2.073  0.00  0.00    +0.239 C 
ATOM      3  O   UNL     1      -3.432  -1.610   1.633  0.00  0.00    -0.273 OA
ATOM      4  N   UNL     1      -2.813  -2.960   3.281  0.00  0.00    -0.294 N 
ATOM      5  H   UNL     1      -2.163  -3.587   3.633  0.00  0.00    +0.150 HD
BRANCH   4   6
ATOM      6  C   UNL     1      -4.007  -2.627   4.063  0.00  0.00    +0.278 C 
BRANCH   6   7
ATOM      7  S   UNL     1      -5.295  -3.866   3.757  0.00  0.00    +0.013 S 
ATOM      8  O   UNL     1      -6.438  -3.592   4.556  0.00  0.00    -0.168 OA
ATOM      9  O   UNL     1      -5.427  -4.101   2.362  0.00  0.00    -0.168 OA
BRANCH   7  10
ATOM     10  C   UNL     1      -4.642  -5.368   4.407  0.00  0.00    +0.090 A 
ATOM     11  C   UNL     1      -3.891  -6.201   3.599  0.00  0.00    +0.027 A 
ATOM     12  C   UNL     1      -3.379  -7.380   4.108  0.00  0.00    +0.005 A 
ATOM     13  C   UNL     1      -3.617  -7.725   5.426  0.00  0.00    -0.050 A 
ATOM     14  C   UNL     1      -4.367  -6.891   6.234  0.00  0.00    +0.005 A 
ATOM     15  C   UNL     1      -4.876  -5.710   5.725  0.00  0.00    +0.027 A 
ATOM     16  C   UNL     1      -3.059  -9.010   5.981  0.00  0.00    +0.044 C 
ENDBRANCH   7  10
ENDBRANCH   6   7
ENDBRANCH   4   6
ENDBRANCH   1   2
BRANCH   1  17
ATOM     17  N   UNL     1      -1.413  -1.998   0.005  0.00  0.00    -0.286 N 
ATOM     18  C   UNL     1      -1.415  -2.666  -1.166  0.00  0.00    +0.221 C 
ATOM     19  O   UNL     1      -1.399  -3.879  -1.173  0.00  0.00    -0.275 OA
BRANCH  17  20
ATOM     20  C   UNL     1      -1.433  -0.534   0.013  0.00  0.00    +0.108 C 
BRANCH  20  22
ATOM     21  C   UNL     1      -0.019   1.526   0.010  0.00  0.00    +0.005 C 
ATOM     22  C   UNL     1       0.002  -0.004   0.002  0.00  0.00    +0.016 C 
ENDBRANCH  20  22
ENDBRANCH  17  20
BRANCH  18  23
ATOM     23  C   UNL     1      -1.438  -1.906  -2.467  0.00  0.00    +0.131 C 
BRANCH  23  24
ATOM     24  C   UNL     1      -1.436  -2.879  -3.618  0.00  0.00    -0.039 A 
ATOM     25  C   UNL     1      -0.237  -3.313  -4.153  0.00  0.00    +0.005 A 
ATOM     26  C   UNL     1      -0.235  -4.206  -5.208  0.00  0.00    +0.015 A 
ATOM     27  C   UNL     1      -1.431  -4.665  -5.728  0.00  0.00    +0.018 A 
ATOM     28  C   UNL     1      -2.630  -4.230  -5.192  0.00  0.00    +0.015 A 
ATOM     29  C   UNL     1      -2.632  -3.341  -4.134  0.00  0.00    +0.005 A 
ATOM     30 BR   UNL     1      -1.429  -5.886  -7.172  0.00  0.00    -0.050 Br
ENDBRANCH  23  24
ENDBRANCH  18  23
ENDBRANCH   1  17
BRANCH   1  31
ATOM     31  C   UNL     1      -0.159  -2.361   2.050  0.00  0.00    +0.000 C 
ATOM     32  C   UNL     1       0.767  -3.258   2.286  0.00  0.00    -0.032 C 
ATOM     33  C   UNL     1       2.000  -2.882   3.067  0.00  0.00    +0.035 C 
ENDBRANCH   1  31
TORSDOF 10
