REMARK  Name = ZINC06198524
REMARK  11 active torsions:
REMARK  status: ('A' for Active; 'I' for Inactive)
REMARK    1  A    between atoms: C_1  and  N_63
REMARK    2  A    between atoms: C_2  and  N_63
REMARK    3  A    between atoms: C_3  and  C_4
REMARK    4  A    between atoms: C_3  and  N_63
REMARK    5  A    between atoms: C_4  and  C_5
REMARK    6  A    between atoms: C_5  and  N_6
REMARK    7  A    between atoms: N_6  and  C_7
REMARK    8  A    between atoms: C_7  and  N_9
REMARK    9  A    between atoms: N_9  and  C_10
REMARK   10  A    between atoms: N_9  and  C_26
REMARK   11  A    between atoms: C_10  and  C_11
REMARK                            x       y       z     vdW  Elec       q    Type
REMARK                         _______ _______ _______ _____ _____    ______ ____
ROOT
ATOM      1  N   UNL     1       5.372   0.958  -1.406  0.00  0.00    -0.305 N 
ENDROOT
BRANCH   1   2
ATOM      2  C   UNL     1       5.051  -0.169  -2.285  0.00  0.00    +0.075 C 
ATOM      3  C   UNL     1       6.345  -0.794  -2.808  0.00  0.00    +0.022 C 
ATOM      4  C   UNL     1       6.009  -1.971  -3.726  0.00  0.00    +0.002 C 
ATOM      5  C   UNL     1       5.169  -1.476  -4.904  0.00  0.00    +0.000 C 
ATOM      6  C   UNL     1       3.874  -0.851  -4.381  0.00  0.00    +0.002 C 
ATOM      7  C   UNL     1       4.210   0.327  -3.464  0.00  0.00    +0.022 C 
ENDBRANCH   1   2
BRANCH   1   8
ATOM      8  C   UNL     1       6.129   1.975  -1.865  0.00  0.00    +0.133 C 
ATOM      9  S   UNL     1       6.601   2.017  -3.510  0.00  0.00    -0.019 S 
BRANCH   8  10
ATOM     10  N   UNL     1       6.514   2.959  -1.028  0.00  0.00    -0.326 N 
ATOM     11  H   UNL     1       6.311   2.898  -0.082  0.00  0.00    +0.148 HD
BRANCH  10  12
ATOM     12  C   UNL     1       7.240   4.120  -1.548  0.00  0.00    +0.101 C 
BRANCH  12  13
ATOM     13  C   UNL     1       7.557   5.080  -0.399  0.00  0.00    +0.000 C 
BRANCH  13  14
ATOM     14  C   UNL     1       8.315   6.293  -0.942  0.00  0.00    -0.078 C 
BRANCH  14  17
ATOM     15  C   UNL     1       9.562   6.608   1.109  0.00  0.00    -0.097 C 
ATOM     16  C   UNL     1       9.132   8.494  -0.348  0.00  0.00    -0.097 C 
ATOM     17  N   UNL     1       8.594   7.220   0.175  0.00  0.00    +0.376 N 
ATOM     18  H   UNL     1       7.719   7.409   0.678  0.00  0.00    -0.083 HD
ENDBRANCH  14  17
ENDBRANCH  13  14
ENDBRANCH  12  13
ENDBRANCH  10  12
ENDBRANCH   8  10
ENDBRANCH   1   8
BRANCH   1  19
ATOM     19  C   UNL     1       4.872   0.981  -0.030  0.00  0.00    +0.147 C 
BRANCH  19  20
ATOM     20  C   UNL     1       3.471   1.536  -0.013  0.00  0.00    +0.035 A 
ATOM     21  C   UNL     1       2.409   0.693  -0.052  0.00  0.00    +0.020 A 
ATOM     22  C   UNL     1       1.062   1.263  -0.034  0.00  0.00    +0.003 A 
ATOM     23  C   UNL     1      -0.071   0.441  -0.071  0.00  0.00    +0.059 A 
ATOM     24  C   UNL     1      -1.327   1.007  -0.056  0.00  0.00    +0.167 A 
ATOM     25  C   UNL     1      -1.472   2.398   0.005  0.00  0.00    +0.168 A 
ATOM     26  C   UNL     1      -0.359   3.218   0.040  0.00  0.00    +0.075 A 
ATOM     27  C   UNL     1       0.914   2.662   0.022  0.00  0.00    +0.053 A 
ATOM     28  N   UNL     1       2.036   3.465   0.058  0.00  0.00    -0.322 N 
ATOM     29  H   UNL     1       1.931   4.459   0.098  0.00  0.00    +0.169 HD
ATOM     30  C   UNL     1       3.270   2.930   0.041  0.00  0.00    +0.254 A 
ATOM     31  O   UNL     1       4.238   3.670   0.075  0.00  0.00    -0.268 OA
ATOM     32  O   UNL     1      -2.804   2.693   0.014  0.00  0.00    -0.453 OA
ATOM     33  C   UNL     1      -3.469   1.470   0.378  0.00  0.00    +0.466 C 
ATOM     34  O   UNL     1      -2.570   0.441  -0.076  0.00  0.00    -0.453 OA
ENDBRANCH  19  20
ENDBRANCH   1  19
TORSDOF 9
