REMARK  Name = ZINC09783698
REMARK  5 active torsions:
REMARK  status: ('A' for Active; 'I' for Inactive)
REMARK    1  A    between atoms: C_1  and  C_2
REMARK    2  A    between atoms: C_9  and  C_13
REMARK    3  A    between atoms: C_13  and  S_14
REMARK    4  A    between atoms: S_14  and  C_15
REMARK    5  A    between atoms: N_19  and  C_20
REMARK                            x       y       z     vdW  Elec       q    Type
REMARK                         _______ _______ _______ _____ _____    ______ ____
ROOT
ATOM      1  C   UNL     1       1.013  -2.910   1.061  0.00  0.00    +0.198 A 
ATOM      2  N   UNL     1       0.919  -4.131   0.592  0.00  0.00    -0.120 NA
ATOM      3  N   UNL     1       1.306  -4.109  -0.754  0.00  0.00    -0.112 NA
ATOM      4  C   UNL     1       1.617  -2.876  -1.068  0.00  0.00    +0.225 A 
ATOM      5  N   UNL     1       1.442  -2.099   0.045  0.00  0.00    -0.258 N 
ATOM      6  N   UNL     1       2.050  -2.434  -2.312  0.00  0.00    -0.299 N 
ATOM      7  C   UNL     1       2.205  -3.571  -3.256  0.00  0.00    +0.108 C 
ATOM      8  C   UNL     1       2.160  -2.886  -4.645  0.00  0.00    +0.020 C 
ATOM      9  C   UNL     1       1.105  -1.774  -4.449  0.00  0.00    +0.020 C 
ATOM     10  C   UNL     1       1.055  -1.530  -2.929  0.00  0.00    +0.108 C 
ENDROOT
BRANCH   5  11
ATOM     11  C   UNL     1       1.667  -0.718   0.131  0.00  0.00    +0.053 A 
ATOM     12  C   UNL     1       2.955  -0.214   0.012  0.00  0.00    +0.026 A 
ATOM     13  C   UNL     1       3.175   1.147   0.098  0.00  0.00    +0.003 A 
ATOM     14  C   UNL     1       2.112   2.009   0.301  0.00  0.00    +0.020 A 
ATOM     15  C   UNL     1       0.827   1.510   0.420  0.00  0.00    +0.043 A 
ATOM     16  C   UNL     1       0.602   0.149   0.335  0.00  0.00    +0.046 A 
ATOM     17 CL   UNL     1      -0.505   2.596   0.668  0.00  0.00    -0.083 Cl
ENDBRANCH   5  11
BRANCH   1  18
ATOM     18  S   UNL     1       0.647  -2.402   2.708  0.00  0.00    -0.079 S 
BRANCH  18  19
ATOM     19  C   UNL     1       0.140  -3.934   3.538  0.00  0.00    +0.133 C 
BRANCH  19  28
ATOM     20  C   UNL     1       2.969  -2.956   7.555  0.00  0.00    +0.047 C 
ATOM     21  C   UNL     1       1.540  -2.909   8.030  0.00  0.00    -0.008 A 
ATOM     22  C   UNL     1       1.258  -2.638   9.335  0.00  0.00    +0.008 A 
ATOM     23  C   UNL     1      -0.077  -2.598   9.760  0.00  0.00    +0.019 A 
ATOM     24  C   UNL     1      -1.078  -2.827   8.880  0.00  0.00    +0.096 A 
ATOM     25  N   UNL     1      -0.807  -3.099   7.573  0.00  0.00    -0.268 N 
ATOM     26  C   UNL     1       0.485  -3.145   7.129  0.00  0.00    +0.143 A 
ATOM     27  N   UNL     1       0.759  -3.416   5.854  0.00  0.00    -0.233 NA
ATOM     28  C   UNL     1      -0.205  -3.637   4.974  0.00  0.00    +0.059 A 
ATOM     29  C   UNL     1      -1.527  -3.602   5.373  0.00  0.00    +0.094 A 
ATOM     30  C   UNL     1      -1.822  -3.324   6.713  0.00  0.00    +0.259 A 
ATOM     31  O   UNL     1      -2.981  -3.285   7.097  0.00  0.00    -0.267 OA
ENDBRANCH  19  28
ENDBRANCH  18  19
ENDBRANCH   1  18
TORSDOF 4
