REMARK  Name = ZINC43129299
REMARK  4 active torsions:
REMARK  status: ('A' for Active; 'I' for Inactive)
REMARK    1  A    between atoms: C_1  and  C_2
REMARK    2  A    between atoms: C_2  and  C_4
REMARK    3  A    between atoms: C_2  and  N_11
REMARK    4  A    between atoms: N_11  and  C_12
REMARK                            x       y       z     vdW  Elec       q    Type
REMARK                         _______ _______ _______ _____ _____    ______ ____
ROOT
ATOM      1  N   UNL     1       0.837  -0.411   1.183  0.00  0.00    -0.282 N 
ATOM      2  C   UNL     1       0.424  -0.095   2.552  0.00  0.00    +0.134 C 
ATOM      3  C   UNL     1       2.042  -0.971   0.955  0.00  0.00    +0.308 C 
ATOM      4  O   UNL     1       2.385  -1.234  -0.182  0.00  0.00    -0.252 OA
ATOM      5  N   UNL     1       2.867  -1.238   1.986  0.00  0.00    -0.247 N 
ATOM      6  C   UNL     1       4.110  -1.816   1.751  0.00  0.00    +0.189 A 
ATOM      7  N   UNL     1       4.661  -2.166   0.605  0.00  0.00    -0.126 NA
ATOM      8  N   UNL     1       5.812  -2.685   0.548  0.00  0.00    -0.148 NA
ATOM      9  C   UNL     1       6.482  -2.882   1.666  0.00  0.00    +0.183 A 
ATOM     10  S   UNL     1       5.310  -2.244   2.855  0.00  0.00    -0.039 S 
ATOM     11  H   UNL     1       2.594  -1.029   2.893  0.00  0.00    +0.158 HD
ENDROOT
BRANCH   1  13
ATOM     12  C   UNL     1      -0.477   1.351   0.111  0.00  0.00    +0.033 C 
ATOM     13  C   UNL     1      -0.059  -0.120   0.061  0.00  0.00    +0.104 C 
BRANCH  13  14
ATOM     14  C   UNL     1      -1.284  -0.994   0.158  0.00  0.00    -0.027 A 
ATOM     15  C   UNL     1      -2.053  -0.982   1.307  0.00  0.00    +0.007 A 
ATOM     16  C   UNL     1      -3.176  -1.782   1.395  0.00  0.00    +0.020 A 
ATOM     17  C   UNL     1      -3.531  -2.596   0.334  0.00  0.00    +0.041 A 
ATOM     18  C   UNL     1      -2.761  -2.607  -0.815  0.00  0.00    +0.020 A 
ATOM     19  C   UNL     1      -1.641  -1.802  -0.905  0.00  0.00    +0.007 A 
ATOM     20 CL   UNL     1      -4.941  -3.602   0.445  0.00  0.00    -0.084 Cl
ENDBRANCH  13  14
ENDBRANCH   1  13
TORSDOF 2
