REMARK  Name = ZINC39666139
REMARK  12 active torsions:
REMARK  status: ('A' for Active; 'I' for Inactive)
REMARK    1  A    between atoms: C_1  and  C_2
REMARK    2  A    between atoms: C_5  and  O_8
REMARK    3  A    between atoms: O_8  and  C_9
REMARK    4  A    between atoms: C_9  and  C_11
REMARK    5  A    between atoms: C_9  and  C_12
REMARK    6  A    between atoms: C_12  and  N_13
REMARK    7  A    between atoms: C_14  and  C_16
REMARK    8  A    between atoms: C_27  and  C_29
REMARK    9  A    between atoms: C_33  and  O_36
REMARK   10  A    between atoms: C_34  and  C_35
REMARK   11  A    between atoms: O_36  and  C_37
REMARK   12  A    between atoms: C_37  and  C_39
REMARK                            x       y       z     vdW  Elec       q    Type
REMARK                         _______ _______ _______ _____ _____    ______ ____
ROOT
ATOM      1  C   UNL     1      -3.939  -7.451  -0.269  0.00  0.00    +0.100 C 
ATOM      2  C   UNL     1      -3.837  -6.659  -1.591  0.00  0.00    +0.121 C 
ATOM      3  N   UNL     1      -4.146  -7.651  -2.647  0.00  0.00    -0.296 N 
ATOM      4  C   UNL     1      -5.241  -8.470  -2.075  0.00  0.00    +0.115 C 
ATOM      5  C   UNL     1      -4.864  -8.637  -0.589  0.00  0.00    -0.004 C 
ATOM      6  C   UNL     1      -4.125  -9.956  -0.379  0.00  0.00    -0.010 C 
ATOM      7  C   UNL     1      -5.082 -11.120  -0.649  0.00  0.00    -0.082 C 
ATOM      8  N   UNL     1      -6.233 -11.030   0.258  0.00  0.00    +0.379 N 
ATOM      9  C   UNL     1      -6.991  -9.803  -0.014  0.00  0.00    -0.082 C 
ATOM     10  C   UNL     1      -6.115  -8.583   0.282  0.00  0.00    -0.010 C 
ATOM     11  C   UNL     1      -3.563  -7.780  -3.856  0.00  0.00    +0.247 C 
ATOM     12  O   UNL     1      -3.870  -8.704  -4.583  0.00  0.00    -0.270 OA
ATOM     13  H   UNL     1      -6.831 -11.831   0.120  0.00  0.00    -0.086 HD
ATOM     14  H   UNL     1      -5.907 -11.018   1.213  0.00  0.00    -0.086 HD
ENDROOT
BRANCH  11  15
ATOM     15  C   UNL     1      -2.549  -6.798  -4.296  0.00  0.00    +0.043 A 
ATOM     16  C   UNL     1      -2.694  -5.448  -3.971  0.00  0.00    +0.013 A 
ATOM     17  C   UNL     1      -1.746  -4.535  -4.384  0.00  0.00    +0.004 A 
ATOM     18  C   UNL     1      -0.651  -4.952  -5.118  0.00  0.00    +0.047 A 
ATOM     19  C   UNL     1      -0.498  -6.292  -5.446  0.00  0.00    +0.135 A 
ATOM     20  C   UNL     1      -1.442  -7.218  -5.033  0.00  0.00    +0.004 A 
ATOM     21  C   UNL     1      -1.274  -8.675  -5.383  0.00  0.00    +0.048 C 
BRANCH  19  22
ATOM     22  O   UNL     1       0.580  -6.696  -6.168  0.00  0.00    -0.426 OA
BRANCH  22  23
ATOM     23  C   UNL     1       0.434  -6.832  -7.496  0.00  0.00    +0.309 C 
ATOM     24  O   UNL     1      -0.603  -6.508  -8.026  0.00  0.00    -0.251 OA
ATOM     25  C   UNL     1       1.563  -7.386  -8.325  0.00  0.00    +0.136 C 
ENDBRANCH  22  23
ENDBRANCH  19  22
ENDBRANCH  11  15
BRANCH   1  27
ATOM     26  N   UNL     1      -2.344  -8.252   1.444  0.00  0.00    -0.312 N 
ATOM     27  C   UNL     1      -2.579  -7.946   0.153  0.00  0.00    +0.218 C 
ATOM     28  O   UNL     1      -1.696  -8.068  -0.670  0.00  0.00    -0.275 OA
ATOM     29  H   UNL     1      -3.050  -8.154   2.102  0.00  0.00    +0.149 HD
BRANCH  26  30
ATOM     30  C   UNL     1      -1.022  -8.732   1.854  0.00  0.00    +0.148 C 
BRANCH  30  31
ATOM     31  C   UNL     1      -1.023  -9.005   3.360  0.00  0.00    +0.187 C 
ATOM     32  C   UNL     1       0.358  -9.507   3.788  0.00  0.00    +0.053 C 
BRANCH  31  33
ATOM     33  O   UNL     1      -1.330  -7.799   4.062  0.00  0.00    -0.488 OA
BRANCH  33  38
ATOM     34  C   UNL     1      -3.536  -8.333   9.217  0.00  0.00    +0.044 C 
ATOM     35  C   UNL     1      -2.946  -8.190   7.837  0.00  0.00    -0.050 A 
ATOM     36  C   UNL     1      -2.678  -9.316   7.081  0.00  0.00    +0.007 A 
ATOM     37  C   UNL     1      -2.136  -9.188   5.817  0.00  0.00    +0.046 A 
ATOM     38  C   UNL     1      -1.863  -7.928   5.305  0.00  0.00    +0.121 A 
ATOM     39  C   UNL     1      -2.133  -6.799   6.066  0.00  0.00    +0.046 A 
ATOM     40  C   UNL     1      -2.679  -6.933   7.328  0.00  0.00    +0.007 A 
ENDBRANCH  33  38
ENDBRANCH  31  33
ENDBRANCH  30  31
ENDBRANCH  26  30
ENDBRANCH   1  27
TORSDOF 8
