REMARK  Name = ZINC09486096
REMARK  5 active torsions:
REMARK  status: ('A' for Active; 'I' for Inactive)
REMARK    1  A    between atoms: C_1  and  C_2
REMARK    2  A    between atoms: C_4  and  C_25
REMARK    3  A    between atoms: N_17  and  C_19
REMARK    4  A    between atoms: C_28  and  S_31
REMARK    5  A    between atoms: S_31  and  C_32
REMARK                            x       y       z     vdW  Elec       q    Type
REMARK                         _______ _______ _______ _____ _____    ______ ____
ROOT
ATOM      1  C   UNL     1      -0.093   1.501   0.016  0.00  0.00    +0.068 C 
ATOM      2  C   UNL     1      -0.060  -0.005   0.007  0.00  0.00    +0.070 A 
ATOM      3  C   UNL     1      -0.121  -0.825  -1.142  0.00  0.00    +0.050 A 
ATOM      4  C   UNL     1      -0.223  -0.557  -2.525  0.00  0.00    +0.010 A 
ATOM      5  C   UNL     1      -0.258  -1.657  -3.395  0.00  0.00    +0.090 A 
ATOM      6  C   UNL     1      -0.192  -2.966  -2.872  0.00  0.00    +0.150 A 
ATOM      7  N   UNL     1      -0.229  -4.030  -3.759  0.00  0.00    -0.292 N 
ATOM      8  H   UNL     1      -0.185  -4.938  -3.421  0.00  0.00    +0.172 HD
ATOM      9  C   UNL     1      -0.326  -3.819  -5.082  0.00  0.00    +0.328 A 
ATOM     10  O   UNL     1      -0.356  -4.782  -5.823  0.00  0.00    -0.247 OA
ATOM     11  N   UNL     1      -0.392  -2.593  -5.623  0.00  0.00    -0.274 N 
ATOM     12  H   UNL     1      -0.462  -2.500  -6.586  0.00  0.00    +0.173 HD
ATOM     13  C   UNL     1      -0.363  -1.485  -4.850  0.00  0.00    +0.264 A 
ATOM     14  O   UNL     1      -0.423  -0.376  -5.345  0.00  0.00    -0.267 OA
ATOM     15  N   UNL     1      -0.097  -3.168  -1.573  0.00  0.00    -0.209 NA
ATOM     16  C   UNL     1      -0.060  -2.162  -0.703  0.00  0.00    +0.166 A 
ATOM     17  N   UNL     1       0.035  -2.114   0.663  0.00  0.00    -0.214 N 
ATOM     18  N   UNL     1       0.036  -0.771   1.056  0.00  0.00    -0.169 NA
ENDROOT
BRANCH  17  19
ATOM     19  C   UNL     1       0.119  -3.219   1.520  0.00  0.00    +0.068 A 
ATOM     20  C   UNL     1      -0.562  -4.390   1.214  0.00  0.00    +0.028 A 
ATOM     21  C   UNL     1      -0.477  -5.478   2.060  0.00  0.00    +0.002 A 
ATOM     22  C   UNL     1       0.286  -5.403   3.210  0.00  0.00    +0.000 A 
ATOM     23  C   UNL     1       0.966  -4.239   3.518  0.00  0.00    +0.002 A 
ATOM     24  C   UNL     1       0.889  -3.149   2.673  0.00  0.00    +0.028 A 
ENDBRANCH  17  19
BRANCH   4  25
ATOM     25  C   UNL     1      -0.291   0.827  -3.035  0.00  0.00    -0.016 A 
ATOM     26  C   UNL     1       0.844   1.643  -3.000  0.00  0.00    +0.009 A 
ATOM     27  C   UNL     1       0.778   2.932  -3.476  0.00  0.00    +0.015 A 
ATOM     28  C   UNL     1      -0.418   3.425  -3.992  0.00  0.00    +0.008 A 
ATOM     29  C   UNL     1      -1.550   2.615  -4.029  0.00  0.00    +0.015 A 
ATOM     30  C   UNL     1      -1.488   1.322  -3.559  0.00  0.00    +0.009 A 
BRANCH  28  31
ATOM     31  S   UNL     1      -0.499   5.077  -4.600  0.00  0.00    -0.129 S 
ATOM     32  C   UNL     1      -2.217   5.256  -5.155  0.00  0.00    +0.090 C 
ENDBRANCH  28  31
ENDBRANCH   4  25
TORSDOF 3
