REMARK  Name = ZINC00044291
REMARK  3 active torsions:
REMARK  status: ('A' for Active; 'I' for Inactive)
REMARK    1  A    between atoms: C_1  and  O_2
REMARK    2  A    between atoms: O_2  and  C_3
REMARK    3  A    between atoms: C_6  and  C_9
REMARK                            x       y       z     vdW  Elec       q    Type
REMARK                         _______ _______ _______ _____ _____    ______ ____
ROOT
ATOM      1  C   UNL     1      -4.981  -2.629   0.035  0.00  0.00    +0.133 C 
ATOM      2  C   UNL     1      -5.304  -3.120   1.455  0.00  0.00    +0.085 C 
ATOM      3  C   UNL     1      -4.464  -4.320   1.796  0.00  0.00    +0.058 C 
ATOM      4  C   UNL     1      -4.034  -4.492   3.129  0.00  0.00    +0.043 C 
ATOM      5  C   UNL     1      -4.392  -3.560   4.118  0.00  0.00    +0.013 C 
ATOM      6  C   UNL     1      -3.971  -3.735   5.403  0.00  0.00    +0.001 C 
ATOM      7  C   UNL     1      -3.188  -4.831   5.753  0.00  0.00    +0.004 C 
ATOM      8  C   UNL     1      -2.821  -5.756   4.821  0.00  0.00    +0.051 C 
ATOM      9  C   UNL     1      -3.239  -5.613   3.490  0.00  0.00    +0.188 C 
ATOM     10  O   UNL     1      -2.919  -6.442   2.647  0.00  0.00    -0.287 OA
ATOM     11  N   UNL     1      -4.114  -5.218   0.894  0.00  0.00    -0.217 NA
ATOM     12  C   UNL     1      -4.473  -5.030  -0.380  0.00  0.00    +0.236 C 
ATOM     13  N   UNL     1      -4.929  -3.808  -0.832  0.00  0.00    -0.212 N 
ATOM     14  N   UNL     1      -5.271  -3.978  -2.167  0.00  0.00    -0.251 N 
ATOM     15  C   UNL     1      -4.939  -5.251  -2.487  0.00  0.00    +0.203 C 
ATOM     16  N   UNL     1      -4.462  -5.859  -1.418  0.00  0.00    -0.205 NA
ATOM     17  H   UNL     1      -5.670  -3.317  -2.754  0.00  0.00    +0.171 HD
ENDROOT
BRANCH   1  21
ATOM     18  C   UNL     1      -1.200  -0.637   0.010  0.00  0.00    +0.120 A 
ATOM     19  C   UNL     1      -2.375   0.101   0.019  0.00  0.00    +0.046 A 
ATOM     20  C   UNL     1      -3.596  -0.545   0.027  0.00  0.00    +0.009 A 
ATOM     21  C   UNL     1      -3.648  -1.927   0.026  0.00  0.00    -0.025 A 
ATOM     22  C   UNL     1      -2.479  -2.665   0.017  0.00  0.00    +0.009 A 
ATOM     23  C   UNL     1      -1.255  -2.024   0.003  0.00  0.00    +0.046 A 
BRANCH  18  25
ATOM     24  C   UNL     1      -0.017   1.425   0.010  0.00  0.00    +0.277 C 
ATOM     25  O   UNL     1       0.002  -0.004   0.002  0.00  0.00    -0.495 OA
ENDBRANCH  18  25
ENDBRANCH   1  21
TORSDOF 2
