REMARK  Name = ZINC40847074
REMARK  7 active torsions:
REMARK  status: ('A' for Active; 'I' for Inactive)
REMARK    1  A    between atoms: C_1  and  C_2
REMARK    2  A    between atoms: C_2  and  O_3
REMARK    3  A    between atoms: O_3  and  C_4
REMARK    4  A    between atoms: C_4  and  C_6
REMARK    5  A    between atoms: C_10  and  N_11
REMARK    6  A    between atoms: N_14  and  N_15
REMARK    7  A    between atoms: C_16  and  C_17
REMARK                            x       y       z     vdW  Elec       q    Type
REMARK                         _______ _______ _______ _____ _____    ______ ____
ROOT
ATOM      1  N   UNL     1      -0.602  -2.454  -3.921  0.00  0.00    -0.262 N 
ATOM      2  C   UNL     1      -1.117  -2.781  -5.123  0.00  0.00    +0.324 C 
ATOM      3  O   UNL     1      -0.394  -3.225  -5.994  0.00  0.00    -0.251 OA
ATOM      4  N   UNL     1      -2.434  -2.616  -5.359  0.00  0.00    -0.190 N 
ATOM      5  H   UNL     1      -1.179  -2.099  -3.226  0.00  0.00    +0.157 HD
ATOM      6  H   UNL     1      -2.805  -2.852  -6.224  0.00  0.00    +0.179 HD
ENDROOT
BRANCH   1  11
ATOM      7  C   UNL     1       1.449  -2.344  -2.516  0.00  0.00    +0.091 A 
ATOM      8  C   UNL     1       2.885  -2.621  -2.514  0.00  0.00    -0.021 A 
ATOM      9  C   UNL     1       3.349  -3.116  -3.675  0.00  0.00    -0.004 A 
ATOM     10  S   UNL     1       1.922  -3.210  -4.726  0.00  0.00    -0.077 S 
ATOM     11  C   UNL     1       0.751  -2.623  -3.678  0.00  0.00    +0.088 A 
ATOM     12  C   UNL     1       4.830  -3.378  -3.621  0.00  0.00    +0.043 C 
ATOM     13  C   UNL     1       5.324  -2.576  -2.396  0.00  0.00    +0.010 C 
ATOM     14  C   UNL     1       4.048  -2.505  -1.532  0.00  0.00    +0.037 C 
BRANCH   7  15
ATOM     15  C   UNL     1       0.776  -1.800  -1.335  0.00  0.00    +0.342 C 
ATOM     16  O   UNL     1       0.312  -2.552  -0.499  0.00  0.00    -0.245 OA
BRANCH  15  17
ATOM     17  O   UNL     1       0.671  -0.465  -1.174  0.00  0.00    -0.461 OA
BRANCH  17  19
ATOM     18  C   UNL     1      -0.019   1.526   0.010  0.00  0.00    +0.048 C 
ATOM     19  C   UNL     1       0.002  -0.004   0.002  0.00  0.00    +0.229 C 
ENDBRANCH  17  19
ENDBRANCH  15  17
ENDBRANCH   7  15
ENDBRANCH   1  11
BRANCH   4  20
ATOM     20  N   UNL     1      -3.267  -2.105  -4.356  0.00  0.00    -0.183 NA
ATOM     21  C   UNL     1      -4.538  -1.946  -4.584  0.00  0.00    +0.176 C 
BRANCH  21  22
ATOM     22  C   UNL     1      -5.410  -1.411  -3.534  0.00  0.00    +0.149 A 
ATOM     23  C   UNL     1      -6.754  -1.200  -3.639  0.00  0.00    +0.052 A 
ATOM     24  C   UNL     1      -7.180  -0.680  -2.402  0.00  0.00    +0.057 A 
ATOM     25  C   UNL     1      -6.090  -0.599  -1.610  0.00  0.00    +0.171 A 
ATOM     26  O   UNL     1      -5.024  -1.046  -2.294  0.00  0.00    -0.447 OA
ATOM     27 BR   UNL     1      -6.069   0.034   0.172  0.00  0.00    -0.008 Br
ENDBRANCH  21  22
ENDBRANCH   4  20
TORSDOF 6
