REMARK  Name = ZINC40266178
REMARK  3 active torsions:
REMARK  status: ('A' for Active; 'I' for Inactive)
REMARK    1  A    between atoms: N_5  and  C_6
REMARK    2  A    between atoms: C_6  and  C_12
REMARK    3  A    between atoms: N_14  and  C_15
REMARK                            x       y       z     vdW  Elec       q    Type
REMARK                         _______ _______ _______ _____ _____    ______ ____
ROOT
ATOM      1  C   UNL     1      -1.773  -0.908   1.387  0.00  0.00    +0.241 C 
ATOM      2  O   UNL     1      -1.853  -1.952   2.001  0.00  0.00    -0.273 OA
ATOM      3  N   UNL     1      -2.229   0.234   1.938  0.00  0.00    -0.310 N 
ATOM      4  H   UNL     1      -2.165   1.068   1.447  0.00  0.00    +0.149 HD
ENDROOT
BRANCH   3   5
ATOM      5  C   UNL     1      -2.821   0.216   3.278  0.00  0.00    +0.073 C 
ATOM      6  C   UNL     1      -4.302  -0.153   3.176  0.00  0.00    +0.022 C 
ATOM      7  C   UNL     1      -4.822  -0.559   4.557  0.00  0.00    +0.002 C 
ATOM      8  C   UNL     1      -3.805  -1.479   5.235  0.00  0.00    +0.000 C 
ATOM      9  C   UNL     1      -3.203  -0.766   6.448  0.00  0.00    +0.000 C 
ATOM     10  C   UNL     1      -2.186   0.275   5.973  0.00  0.00    +0.000 C 
ATOM     11  C   UNL     1      -2.926   1.495   5.422  0.00  0.00    +0.002 C 
ATOM     12  C   UNL     1      -2.683   1.601   3.915  0.00  0.00    +0.022 C 
ENDBRANCH   3   5
BRANCH   1  13
ATOM     13  C   UNL     1      -1.165  -0.890   0.009  0.00  0.00    +0.142 C 
ATOM     14  C   UNL     1      -2.198  -0.381  -0.998  0.00  0.00    +0.040 C 
ATOM     15  C   UNL     1      -1.580  -0.362  -2.398  0.00  0.00    +0.003 C 
ATOM     16  C   UNL     1      -1.147  -1.778  -2.783  0.00  0.00    +0.000 C 
ATOM     17  C   UNL     1      -0.114  -2.288  -1.776  0.00  0.00    +0.003 C 
ATOM     18  C   UNL     1      -0.732  -2.306  -0.376  0.00  0.00    +0.040 C 
BRANCH  13  23
ATOM     19  C   UNL     1      -0.016   1.342   0.009  0.00  0.00    +0.246 A 
ATOM     20  N   UNL     1       1.234   1.735  -0.000  0.00  0.00    -0.117 NA
ATOM     21  N   UNL     1       1.981   0.685  -0.013  0.00  0.00    -0.023 NA
ATOM     22  N   UNL     1       1.240  -0.367  -0.012  0.00  0.00    -0.043 NA
ATOM     23  N   UNL     1       0.002  -0.004   0.002  0.00  0.00    -0.217 N 
ENDBRANCH  13  23
ENDBRANCH   1  13
TORSDOF 3
