REMARK  Name = ZINC66859830
REMARK  3 active torsions:
REMARK  status: ('A' for Active; 'I' for Inactive)
REMARK    1  A    between atoms: C_10  and  C_11
REMARK    2  A    between atoms: C_10  and  O_22
REMARK    3  A    between atoms: C_11  and  N_12
REMARK                            x       y       z     vdW  Elec       q    Type
REMARK                         _______ _______ _______ _____ _____    ______ ____
ROOT
ATOM      1  C   UNL     1      -0.054   1.306  -0.080  0.00  0.00    +0.000 A 
ATOM      2  C   UNL     1       1.125   2.028  -0.074  0.00  0.00    +0.000 A 
ATOM      3  C   UNL     1       2.335   1.365  -0.060  0.00  0.00    +0.007 A 
ATOM      4  C   UNL     1       2.379  -0.023  -0.054  0.00  0.00    -0.011 A 
ATOM      5  C   UNL     1       1.205  -0.743  -0.065  0.00  0.00    -0.041 A 
ATOM      6  C   UNL     1      -0.012  -0.073  -0.074  0.00  0.00    +0.004 A 
ATOM      7  C   UNL     1       1.177  -2.249  -0.075  0.00  0.00    +0.035 C 
ATOM      8  C   UNL     1       2.526  -2.814   0.366  0.00  0.00    +0.008 C 
ATOM      9  C   UNL     1       3.627  -2.143  -0.464  0.00  0.00    +0.041 C 
ATOM     10  C   UNL     1       3.733  -0.682  -0.032  0.00  0.00    +0.107 C 
ENDROOT
BRANCH  10  11
ATOM     11  O   UNL     1       4.266  -0.620   1.292  0.00  0.00    -0.382 OA
ATOM     12  H   UNL     1       4.378   0.280   1.629  0.00  0.00    +0.211 HD
ENDBRANCH  10  11
BRANCH  10  13
ATOM     13  C   UNL     1       4.671   0.060  -0.987  0.00  0.00    +0.142 C 
BRANCH  13  14
ATOM     14  N   UNL     1       5.979  -0.599  -0.997  0.00  0.00    -0.325 N 
ATOM     15  C   UNL     1       7.029  -0.048  -1.722  0.00  0.00    +0.141 A 
ATOM     16  C   UNL     1       8.281  -0.690  -1.731  0.00  0.00    +0.049 A 
ATOM     17  C   UNL     1       9.315  -0.159  -2.437  0.00  0.00    +0.055 A 
ATOM     18  C   UNL     1       9.114   1.034  -3.154  0.00  0.00    +0.200 A 
ATOM     19  N   UNL     1       9.889   1.791  -3.919  0.00  0.00    -0.107 NA
ATOM     20  N   UNL     1       9.227   2.803  -4.357  0.00  0.00    -0.021 NA
ATOM     21  N   UNL     1       8.012   2.779  -3.922  0.00  0.00    -0.021 NA
ATOM     22  N   UNL     1       7.885   1.634  -3.125  0.00  0.00    -0.108 N 
ATOM     23  N   UNL     1       6.841   1.065  -2.396  0.00  0.00    -0.131 NA
ATOM     24  H   UNL     1       6.112  -1.420  -0.498  0.00  0.00    +0.148 HD
ENDBRANCH  13  14
ENDBRANCH  10  13
TORSDOF 3
