REMARK  Name = ZINC09516694
REMARK  11 active torsions:
REMARK  status: ('A' for Active; 'I' for Inactive)
REMARK    1  A    between atoms: C_1  and  C_2
REMARK    2  A    between atoms: C_2  and  C_4
REMARK    3  A    between atoms: C_2  and  N_7
REMARK    4  A    between atoms: C_4  and  O_5
REMARK    5  A    between atoms: O_5  and  C_6
REMARK    6  A    between atoms: N_7  and  S_8
REMARK    7  A    between atoms: S_8  and  C_11
REMARK    8  A    between atoms: C_14  and  N_20
REMARK    9  A    between atoms: C_15  and  N_17
REMARK   10  A    between atoms: C_26  and  C_27
REMARK   11  A    between atoms: C_26  and  N_62
REMARK                            x       y       z     vdW  Elec       q    Type
REMARK                         _______ _______ _______ _____ _____    ______ ____
ROOT
ATOM      1  C   UNL     1      -0.017   1.379   0.010  0.00  0.00    +0.108 A 
ATOM      2  C   UNL     1       0.002  -0.004   0.002  0.00  0.00    +0.030 A 
ATOM      3  C   UNL     1       1.206  -0.680  -0.013  0.00  0.00    +0.027 A 
ATOM      4  C   UNL     1       2.400   0.031  -0.021  0.00  0.00    +0.060 A 
ATOM      5  C   UNL     1       2.377   1.420  -0.013  0.00  0.00    +0.149 A 
ATOM      6  C   UNL     1       1.169   2.090   0.002  0.00  0.00    +0.063 A 
ENDROOT
BRANCH   4   7
ATOM      7  N   UNL     1       3.620  -0.649  -0.036  0.00  0.00    -0.330 N 
ATOM      8  C   UNL     1       3.789  -1.401   1.134  0.00  0.00    +0.103 C 
ATOM      9  C   UNL     1       5.213  -1.995   1.224  0.00  0.00    +0.000 C 
ATOM     10  C   UNL     1       5.314  -3.170   0.285  0.00  0.00    -0.077 C 
ATOM     11  C   UNL     1       5.258  -1.534  -1.575  0.00  0.00    -0.059 C 
ATOM     12  C   UNL     1       3.783  -1.415  -1.288  0.00  0.00    +0.086 C 
ATOM     13  N   UNL     1       5.871  -2.797  -1.057  0.00  0.00    +0.383 N 
ATOM     14  H   UNL     1       6.883  -2.654  -0.962  0.00  0.00    -0.081 HD
BRANCH  13  15
ATOM     15  C   UNL     1       5.634  -3.892  -2.014  0.00  0.00    -0.043 C 
BRANCH  15  16
ATOM     16  C   UNL     1       6.375  -3.578  -3.288  0.00  0.00    -0.064 A 
ATOM     17  C   UNL     1       5.739  -2.893  -4.306  0.00  0.00    +0.003 A 
ATOM     18  C   UNL     1       6.420  -2.599  -5.473  0.00  0.00    +0.020 A 
ATOM     19  C   UNL     1       7.735  -3.001  -5.625  0.00  0.00    +0.041 A 
ATOM     20  C   UNL     1       8.370  -3.692  -4.607  0.00  0.00    +0.020 A 
ATOM     21  C   UNL     1       7.689  -3.980  -3.439  0.00  0.00    +0.003 A 
ATOM     22 CL   UNL     1       8.589  -2.639  -7.092  0.00  0.00    -0.084 Cl
ENDBRANCH  15  16
ENDBRANCH  13  15
ENDBRANCH   4   7
BRANCH   1  23
ATOM     23  S   UNL     1      -1.556   2.237   0.022  0.00  0.00    +0.059 S 
ATOM     24  O   UNL     1      -1.306   3.525  -0.523  0.00  0.00    -0.153 OA
ATOM     25  O   UNL     1      -2.519   1.350  -0.529  0.00  0.00    -0.153 OA
BRANCH  23  26
ATOM     26  N   UNL     1      -1.976   2.467   1.607  0.00  0.00    -0.185 NA
ATOM     27  H   UNL     1      -2.766   2.035   1.967  0.00  0.00    +0.148 HD
BRANCH  26  29
ATOM     28  C   UNL     1      -0.152   2.460   3.236  0.00  0.00    +0.028 C 
ATOM     29  C   UNL     1      -1.153   3.322   2.466  0.00  0.00    +0.099 C 
BRANCH  29  30
ATOM     30  C   UNL     1      -2.053   4.067   3.455  0.00  0.00    +0.179 C 
BRANCH  30  31
ATOM     31  O   UNL     1      -2.670   3.127   4.337  0.00  0.00    -0.381 OA
ATOM     32  C   UNL     1      -3.536   3.722   5.306  0.00  0.00    +0.194 C 
ENDBRANCH  30  31
ENDBRANCH  29  30
ENDBRANCH  26  29
ENDBRANCH  23  26
ENDBRANCH   1  23
BRANCH   5  33
ATOM     33  N   UNL     1       3.646   2.182  -0.021  0.00  0.00    +0.058 N 
ATOM     34  O   UNL     1       3.626   3.399  -0.014  0.00  0.00    -0.126 OA
ATOM     35  O   UNL     1       4.711   1.590  -0.034  0.00  0.00    -0.126 OA
ENDBRANCH   5  33
TORSDOF 9
