REMARK  Name = ZINC24138698
REMARK  10 active torsions:
REMARK  status: ('A' for Active; 'I' for Inactive)
REMARK    1  A    between atoms: C_1  and  C_2
REMARK    2  A    between atoms: C_2  and  C_3
REMARK    3  A    between atoms: C_2  and  C_4
REMARK    4  A    between atoms: C_2  and  C_5
REMARK    5  A    between atoms: C_8  and  C_11
REMARK    6  A    between atoms: C_14  and  S_22
REMARK    7  A    between atoms: N_15  and  C_16
REMARK    8  A    between atoms: S_22  and  C_23
REMARK    9  A    between atoms: C_23  and  C_24
REMARK   10  A    between atoms: C_30  and  C_33
REMARK                            x       y       z     vdW  Elec       q    Type
REMARK                         _______ _______ _______ _____ _____    ______ ____
ROOT
ATOM      1  C   UNL     1       2.692  -1.857  -4.736  0.00  0.00    +0.165 A 
ATOM      2  N   UNL     1       2.340  -2.876  -5.485  0.00  0.00    -0.128 NA
ATOM      3  N   UNL     1       3.170  -3.014  -6.456  0.00  0.00    -0.122 NA
ATOM      4  C   UNL     1       4.103  -2.091  -6.387  0.00  0.00    +0.193 A 
ATOM      5  N   UNL     1       3.829  -1.319  -5.294  0.00  0.00    -0.299 N 
ENDROOT
BRANCH   1   9
ATOM      6  C   UNL     1       0.687  -0.469  -1.258  0.00  0.00    -0.042 A 
ATOM      7  C   UNL     1       1.352   0.429  -2.074  0.00  0.00    +0.005 A 
ATOM      8  C   UNL     1       2.005  -0.015  -3.205  0.00  0.00    +0.012 A 
ATOM      9  C   UNL     1       1.995  -1.374  -3.525  0.00  0.00    +0.019 A 
ATOM     10  C   UNL     1       1.323  -2.274  -2.697  0.00  0.00    +0.012 A 
ATOM     11  C   UNL     1       0.678  -1.817  -1.566  0.00  0.00    +0.005 A 
BRANCH   6  13
ATOM     12  C   UNL     1       0.578  -0.645   1.213  0.00  0.00    +0.015 C 
ATOM     13  C   UNL     1      -0.025   0.024  -0.024  0.00  0.00    -0.013 C 
ATOM     14  C   UNL     1      -1.511  -0.325  -0.120  0.00  0.00    +0.015 C 
ATOM     15  C   UNL     1       0.137   1.541   0.086  0.00  0.00    +0.015 C 
ENDBRANCH   6  13
ENDBRANCH   1   9
BRANCH   5  16
ATOM     16  C   UNL     1       4.589  -0.163  -4.814  0.00  0.00    +0.091 C 
ATOM     17  C   UNL     1       4.503   0.967  -5.842  0.00  0.00    +0.025 C 
ATOM     18  C   UNL     1       5.297   2.175  -5.341  0.00  0.00    +0.002 C 
ATOM     19  C   UNL     1       6.761   1.776  -5.142  0.00  0.00    +0.000 C 
ATOM     20  C   UNL     1       6.846   0.647  -4.113  0.00  0.00    +0.002 C 
ATOM     21  C   UNL     1       6.053  -0.561  -4.615  0.00  0.00    +0.025 C 
ENDBRANCH   5  16
BRANCH   4  22
ATOM     22  S   UNL     1       5.452  -1.883  -7.501  0.00  0.00    -0.077 S 
BRANCH  22  23
ATOM     23  C   UNL     1       5.229  -3.214  -8.713  0.00  0.00    +0.173 C 
BRANCH  23  24
ATOM     24  C   UNL     1       6.332  -3.150  -9.738  0.00  0.00    +0.226 C 
ATOM     25  O   UNL     1       7.185  -2.291  -9.658  0.00  0.00    -0.275 OA
ATOM     26  N   UNL     1       6.371  -4.047 -10.743  0.00  0.00    -0.300 N 
ATOM     27  C   UNL     1       5.342  -5.089 -10.857  0.00  0.00    +0.108 C 
ATOM     28  C   UNL     1       6.030  -6.455 -10.941  0.00  0.00    +0.020 C 
ATOM     29  C   UNL     1       7.041  -6.442 -12.090  0.00  0.00    +0.016 C 
ATOM     30  C   UNL     1       8.108  -5.379 -11.821  0.00  0.00    +0.092 C 
ATOM     31  C   UNL     1       7.441  -3.998 -11.750  0.00  0.00    +0.120 C 
BRANCH  30  32
ATOM     32  C   UNL     1       9.122  -5.390 -12.937  0.00  0.00    +0.215 C 
ATOM     33  O   UNL     1       9.002  -6.171 -13.857  0.00  0.00    -0.276 OA
ATOM     34  N   UNL     1      10.161  -4.532 -12.912  0.00  0.00    -0.329 N 
ATOM     35  H   UNL     1      10.256  -3.907 -12.176  0.00  0.00    +0.145 HD
ATOM     36  H   UNL     1      10.813  -4.539 -13.630  0.00  0.00    +0.145 HD
ENDBRANCH  30  32
ENDBRANCH  23  24
ENDBRANCH  22  23
ENDBRANCH   4  22
TORSDOF 7
