REMARK  Name = ZINC46854380
REMARK  8 active torsions:
REMARK  status: ('A' for Active; 'I' for Inactive)
REMARK    1  A    between atoms: C_4  and  N_7
REMARK    2  A    between atoms: N_10  and  C_13
REMARK    3  A    between atoms: C_13  and  C_14
REMARK    4  A    between atoms: C_14  and  N_15
REMARK    5  A    between atoms: N_18  and  N_19
REMARK    6  A    between atoms: N_19  and  C_20
REMARK    7  A    between atoms: C_20  and  N_22
REMARK    8  A    between atoms: N_22  and  C_23
REMARK                            x       y       z     vdW  Elec       q    Type
REMARK                         _______ _______ _______ _____ _____    ______ ____
ROOT
ATOM      1  N   UNL     1       7.886  -4.637  -2.708  0.00  0.00    -0.300 N 
ATOM      2  C   UNL     1       8.250  -5.932  -2.617  0.00  0.00    +0.316 C 
ATOM      3  O   UNL     1       7.847  -6.613  -1.694  0.00  0.00    -0.251 OA
ATOM      4  N   UNL     1       9.061  -6.471  -3.549  0.00  0.00    -0.219 N 
ATOM      5  H   UNL     1       8.208  -4.094  -3.444  0.00  0.00    +0.150 HD
ATOM      6  H   UNL     1       9.322  -7.403  -3.483  0.00  0.00    +0.174 HD
ENDROOT
BRANCH   4   7
ATOM      7  N   UNL     1       9.525  -5.687  -4.612  0.00  0.00    -0.245 N 
ATOM      8  H   UNL     1       9.264  -4.755  -4.678  0.00  0.00    +0.172 HD
BRANCH   7   9
ATOM      9  C   UNL     1      10.336  -6.226  -5.544  0.00  0.00    +0.147 C 
ATOM     10  S   UNL     1      10.904  -5.267  -6.843  0.00  0.00    -0.017 S 
BRANCH   9  11
ATOM     11  N   UNL     1      10.700  -7.521  -5.453  0.00  0.00    -0.323 N 
ATOM     12  H   UNL     1      10.378  -8.064  -4.716  0.00  0.00    +0.148 HD
BRANCH  11  13
ATOM     13  C   UNL     1      11.581  -8.107  -6.465  0.00  0.00    +0.072 C 
ATOM     14  C   UNL     1      13.057  -7.891  -6.071  0.00  0.00    +0.022 C 
ATOM     15  C   UNL     1      13.455  -9.204  -5.354  0.00  0.00    +0.002 C 
ATOM     16  C   UNL     1      12.715 -10.284  -6.182  0.00  0.00    +0.002 C 
ATOM     17  C   UNL     1      11.364  -9.629  -6.536  0.00  0.00    +0.022 C 
ENDBRANCH  11  13
ENDBRANCH   9  11
ENDBRANCH   7   9
ENDBRANCH   4   7
BRANCH   1  18
ATOM     18  C   UNL     1       7.005  -4.051  -1.695  0.00  0.00    +0.087 C 
BRANCH  18  19
ATOM     19  C   UNL     1       6.750  -2.580  -2.031  0.00  0.00    -0.060 C 
BRANCH  19  23
ATOM     20  N   UNL     1       3.620  -0.649  -0.036  0.00  0.00    -0.333 N 
ATOM     21  C   UNL     1       4.892   0.081  -0.149  0.00  0.00    +0.086 C 
ATOM     22  C   UNL     1       5.719  -0.554  -1.271  0.00  0.00    -0.060 C 
ATOM     23  N   UNL     1       5.867  -1.992  -1.016  0.00  0.00    +0.383 N 
ATOM     24  C   UNL     1       4.554  -2.648  -1.073  0.00  0.00    -0.060 C 
ATOM     25  C   UNL     1       3.669  -2.116   0.065  0.00  0.00    +0.086 C 
ATOM     26  H   UNL     1       6.270  -2.130  -0.101  0.00  0.00    -0.082 HD
BRANCH  20  30
ATOM     27  C   UNL     1      -0.017   1.379   0.011  0.00  0.00    +0.000 A 
ATOM     28  C   UNL     1       0.002  -0.004  -0.011  0.00  0.00    +0.002 A 
ATOM     29  C   UNL     1       1.206  -0.680  -0.027  0.00  0.00    +0.023 A 
ATOM     30  C   UNL     1       2.400   0.031  -0.021  0.00  0.00    +0.030 A 
ATOM     31  C   UNL     1       2.377   1.420   0.002  0.00  0.00    +0.023 A 
ATOM     32  C   UNL     1       1.170   2.089   0.018  0.00  0.00    +0.002 A 
ENDBRANCH  20  30
ENDBRANCH  19  23
ENDBRANCH  18  19
ENDBRANCH   1  18
TORSDOF 8
