REMARK  Name = ZINC02317249
REMARK  4 active torsions:
REMARK  status: ('A' for Active; 'I' for Inactive)
REMARK    1  A    between atoms: C_9  and  C_25
REMARK    2  A    between atoms: C_10  and  C_18
REMARK    3  A    between atoms: C_12  and  C_16
REMARK    4  A    between atoms: C_13  and  N_15
REMARK                            x       y       z     vdW  Elec       q    Type
REMARK                         _______ _______ _______ _____ _____    ______ ____
ROOT
ATOM      1  C   UNL     1      -0.010   1.374   0.230  0.00  0.00    +0.002 A 
ATOM      2  C   UNL     1       1.174   2.089   0.185  0.00  0.00    +0.002 A 
ATOM      3  C   UNL     1       2.385   1.427   0.112  0.00  0.00    +0.026 A 
ATOM      4  C   UNL     1       2.412   0.041   0.084  0.00  0.00    +0.062 A 
ATOM      5  C   UNL     1       1.220  -0.680   0.129  0.00  0.00    +0.054 A 
ATOM      6  C   UNL     1       0.008  -0.007   0.202  0.00  0.00    +0.025 A 
ATOM      7  N   UNL     1       1.549  -2.031   0.087  0.00  0.00    -0.300 N 
ATOM      8  C   UNL     1       2.918  -2.140   0.017  0.00  0.00    +0.115 C 
ATOM      9  C   UNL     1       3.701  -3.263  -0.044  0.00  0.00    +0.078 C 
ATOM     10  C   UNL     1       5.204  -3.091  -0.116  0.00  0.00    +0.106 C 
ATOM     11  C   UNL     1       5.727  -1.669  -0.115  0.00  0.00    +0.078 C 
ATOM     12  C   UNL     1       4.822  -0.656  -0.049  0.00  0.00    +0.108 C 
ATOM     13  N   UNL     1       3.464  -0.883   0.014  0.00  0.00    -0.242 N 
ATOM     14  H   UNL     1       0.921  -2.770   0.104  0.00  0.00    +0.153 HD
ENDROOT
BRANCH  10  15
ATOM     15  C   UNL     1       5.690  -3.764  -1.374  0.00  0.00    -0.033 A 
ATOM     16  C   UNL     1       5.229  -3.341  -2.607  0.00  0.00    +0.004 A 
ATOM     17  C   UNL     1       5.675  -3.958  -3.761  0.00  0.00    +0.001 A 
ATOM     18  C   UNL     1       6.582  -4.999  -3.682  0.00  0.00    +0.015 A 
ATOM     19  C   UNL     1       7.043  -5.422  -2.449  0.00  0.00    +0.018 A 
ATOM     20  C   UNL     1       6.601  -4.801  -1.295  0.00  0.00    +0.020 A 
ATOM     21 BR   UNL     1       8.283  -6.846  -2.341  0.00  0.00    -0.050 Br
ENDBRANCH  10  15
BRANCH  12  22
ATOM     22  N   UNL     1       5.278   0.641  -0.047  0.00  0.00    -0.345 N 
ATOM     23  H   UNL     1       6.154   0.847  -0.410  0.00  0.00    +0.144 HD
ATOM     24  H   UNL     1       4.725   1.349   0.318  0.00  0.00    +0.144 HD
ENDBRANCH  12  22
BRANCH  11  25
ATOM     25  C   UNL     1       7.132  -1.401  -0.179  0.00  0.00    +0.099 C 
ATOM     26  N   UNL     1       8.246  -1.188  -0.230  0.00  0.00    -0.191 NA
ENDBRANCH  11  25
BRANCH   9  27
ATOM     27  C   UNL     1       3.112  -4.568  -0.040  0.00  0.00    +0.099 C 
ATOM     28  N   UNL     1       2.645  -5.604  -0.037  0.00  0.00    -0.191 NA
ENDBRANCH   9  27
TORSDOF 4
