REMARK  Name = ZINC59460666
REMARK  5 active torsions:
REMARK  status: ('A' for Active; 'I' for Inactive)
REMARK    1  A    between atoms: C_9  and  S_11
REMARK    2  A    between atoms: S_11  and  C_12
REMARK    3  A    between atoms: C_12  and  C_13
REMARK    4  A    between atoms: C_13  and  C_19
REMARK    5  A    between atoms: N_14  and  N_15
REMARK                            x       y       z     vdW  Elec       q    Type
REMARK                         _______ _______ _______ _____ _____    ______ ____
ROOT
ATOM      1  C   UNL     1       6.533  -4.176  -0.093  0.00  0.00    +0.079 C 
ATOM      2  N   UNL     1       5.838  -5.199  -0.486  0.00  0.00    -0.175 NA
ENDROOT
BRANCH   2   3
ATOM      3  N   UNL     1       6.466  -6.258  -1.155  0.00  0.00    -0.248 N 
ATOM      4  C   UNL     1       5.717  -7.283  -1.670  0.00  0.00    +0.187 C 
ATOM      5  N   UNL     1       6.314  -8.290  -2.306  0.00  0.00    -0.370 N 
ATOM      6  N   UNL     1       4.391  -7.274  -1.534  0.00  0.00    -0.370 N 
ATOM      7  H   UNL     1       7.431  -6.264  -1.254  0.00  0.00    +0.192 HD
ATOM      8  H   UNL     1       5.784  -9.016  -2.670  0.00  0.00    +0.159 HD
ATOM      9  H   UNL     1       3.957  -6.540  -1.071  0.00  0.00    +0.159 HD
ATOM     10  H   UNL     1       3.861  -8.000  -1.898  0.00  0.00    +0.159 HD
ATOM     11  H   UNL     1       7.279  -8.297  -2.405  0.00  0.00    +0.159 HD
ENDBRANCH   2   3
BRANCH   1  12
ATOM     12  C   UNL     1       7.951  -4.055  -0.483  0.00  0.00    -0.000 A 
ATOM     13  C   UNL     1       8.361  -4.433  -1.764  0.00  0.00    +0.010 A 
ATOM     14  C   UNL     1       9.688  -4.316  -2.121  0.00  0.00    +0.002 A 
ATOM     15  C   UNL     1      10.612  -3.826  -1.215  0.00  0.00    +0.015 A 
ATOM     16  C   UNL     1      10.213  -3.450   0.056  0.00  0.00    +0.018 A 
ATOM     17  C   UNL     1       8.887  -3.556   0.425  0.00  0.00    +0.025 A 
ATOM     18 BR   UNL     1      11.485  -2.782   1.285  0.00  0.00    -0.050 Br
ENDBRANCH   1  12
BRANCH   1  19
ATOM     19  C   UNL     1       5.893  -3.113   0.760  0.00  0.00    +0.135 C 
BRANCH  19  20
ATOM     20  S   UNL     1       4.157  -3.545   1.065  0.00  0.00    -0.082 S 
BRANCH  20  29
ATOM     21  C   UNL     1       1.465   0.881   4.631  0.00  0.00    +0.002 A 
ATOM     22  C   UNL     1       2.726   1.455   4.568  0.00  0.00    +0.002 A 
ATOM     23  C   UNL     1       3.739   0.842   3.864  0.00  0.00    +0.030 A 
ATOM     24  C   UNL     1       3.494  -0.368   3.209  0.00  0.00    +0.090 A 
ATOM     25  C   UNL     1       2.215  -0.945   3.277  0.00  0.00    +0.067 A 
ATOM     26  C   UNL     1       1.208  -0.313   3.989  0.00  0.00    +0.028 A 
ATOM     27  N   UNL     1       2.282  -2.118   2.543  0.00  0.00    -0.333 N 
ATOM     28  H   UNL     1       1.558  -2.747   2.397  0.00  0.00    +0.168 HD
ATOM     29  C   UNL     1       3.557  -2.223   2.062  0.00  0.00    +0.168 A 
ATOM     30  N   UNL     1       4.267  -1.194   2.456  0.00  0.00    -0.222 NA
ENDBRANCH  20  29
ENDBRANCH  19  20
ENDBRANCH   1  19
TORSDOF 5
