REMARK  Name = ZINC04348820
REMARK  8 active torsions:
REMARK  status: ('A' for Active; 'I' for Inactive)
REMARK    1  A    between atoms: C_1  and  C_2
REMARK    2  A    between atoms: C_2  and  C_3
REMARK    3  A    between atoms: C_3  and  C_4
REMARK    4  A    between atoms: N_6  and  C_7
REMARK    5  A    between atoms: C_7  and  C_9
REMARK    6  A    between atoms: C_7  and  N_13
REMARK    7  A    between atoms: N_13  and  C_14
REMARK    8  A    between atoms: C_15  and  C_23
REMARK                            x       y       z     vdW  Elec       q    Type
REMARK                         _______ _______ _______ _____ _____    ______ ____
ROOT
ATOM      1  N   UNL     1      -0.698   1.558   1.213  0.00  0.00    -0.316 N 
ATOM      2  H   UNL     1      -0.992   2.481   1.274  0.00  0.00    +0.148 HD
ENDROOT
BRANCH   1   3
ATOM      3  C   UNL     1      -0.927   0.689   2.265  0.00  0.00    +0.085 A 
ATOM      4  C   UNL     1      -1.554   0.946   3.477  0.00  0.00    +0.083 A 
ATOM      5  C   UNL     1      -1.667  -0.153   4.421  0.00  0.00    -0.018 A 
ATOM      6  C   UNL     1      -1.140  -1.325   4.005  0.00  0.00    -0.004 A 
ATOM      7  S   UNL     1      -0.508  -0.988   2.386  0.00  0.00    -0.077 S 
ATOM      8  C   UNL     1      -1.109  -2.619   4.759  0.00  0.00    +0.043 C 
ATOM      9  C   UNL     1      -1.434  -2.330   6.231  0.00  0.00    +0.005 C 
ATOM     10  C   UNL     1      -2.673  -1.432   6.296  0.00  0.00    +0.005 C 
ATOM     11  C   UNL     1      -2.327  -0.031   5.789  0.00  0.00    +0.037 C 
BRANCH   4  12
ATOM     12  C   UNL     1      -2.069   2.246   3.785  0.00  0.00    +0.102 C 
ATOM     13  N   UNL     1      -2.479   3.277   4.029  0.00  0.00    -0.191 NA
ENDBRANCH   4  12
ENDBRANCH   1   3
BRANCH   1  14
ATOM     14  C   UNL     1      -0.013   1.086   0.008  0.00  0.00    +0.210 C 
BRANCH  14  17
ATOM     15  C   UNL     1       2.387   0.767   0.285  0.00  0.00    +0.214 C 
ATOM     16  O   UNL     1       2.172  -0.396   0.553  0.00  0.00    -0.276 OA
ATOM     17  N   UNL     1       1.362   1.593  -0.002  0.00  0.00    -0.294 N 
ATOM     18  H   UNL     1       1.534   2.523  -0.216  0.00  0.00    +0.151 HD
BRANCH  15  19
ATOM     19  C   UNL     1       3.801   1.288   0.275  0.00  0.00    +0.095 C 
BRANCH  19  21
ATOM     20  C   UNL     1       6.200   0.685   0.622  0.00  0.00    +0.004 C 
ATOM     21  C   UNL     1       4.765   0.156   0.633  0.00  0.00    +0.006 C 
ENDBRANCH  19  21
ENDBRANCH  15  19
ENDBRANCH  14  17
BRANCH  14  22
ATOM     22  C   UNL     1      -0.753   1.593  -1.232  0.00  0.00    +0.225 C 
ATOM     23 CL   UNL     1       0.091   1.011  -2.715  0.00  0.00    -0.080 Cl
ATOM     24 CL   UNL     1      -2.444   0.969  -1.219  0.00  0.00    -0.080 Cl
ATOM     25 CL   UNL     1      -0.777   3.396  -1.222  0.00  0.00    -0.080 Cl
ENDBRANCH  14  22
ENDBRANCH   1  14
TORSDOF 7
