REMARK  Name = ZINC08677090
REMARK  8 active torsions:
REMARK  status: ('A' for Active; 'I' for Inactive)
REMARK    1  A    between atoms: C_1  and  C_2
REMARK    2  A    between atoms: C_5  and  C_8
REMARK    3  A    between atoms: C_8  and  C_10
REMARK    4  A    between atoms: C_8  and  N_64
REMARK    5  A    between atoms: N_14  and  C_15
REMARK    6  A    between atoms: C_15  and  S_16
REMARK    7  A    between atoms: S_16  and  C_19
REMARK    8  A    between atoms: C_22  and  C_25
REMARK                            x       y       z     vdW  Elec       q    Type
REMARK                         _______ _______ _______ _____ _____    ______ ____
ROOT
ATOM      1  C   UNL     1       0.489   4.847  -0.717  0.00  0.00    +0.033 C 
ENDROOT
BRANCH   1  13
ATOM      2  C   UNL     1       1.632   3.701   1.084  0.00  0.00    -0.058 C 
ATOM      3  C   UNL     1       2.303   2.384   1.480  0.00  0.00    +0.089 C 
ATOM      4  N   UNL     1       1.317   1.296   1.416  0.00  0.00    -0.303 N 
ATOM      5  C   UNL     1       0.762   1.172   0.061  0.00  0.00    +0.089 C 
ATOM      6  C   UNL     1       0.091   2.489  -0.335  0.00  0.00    -0.058 C 
ATOM      7  C   UNL     1       1.871   0.100   1.837  0.00  0.00    +0.218 A 
ATOM      8  N   UNL     1       3.140   0.072   2.217  0.00  0.00    -0.223 NA
ATOM      9  C   UNL     1       3.698  -1.053   2.630  0.00  0.00    +0.116 A 
ATOM     10  C   UNL     1       2.943  -2.215   2.650  0.00  0.00    +0.039 A 
ATOM     11  C   UNL     1       1.620  -2.152   2.240  0.00  0.00    +0.116 A 
ATOM     12  N   UNL     1       1.122  -0.993   1.844  0.00  0.00    -0.223 NA
ATOM     13  N   UNL     1       1.098   3.570  -0.288  0.00  0.00    +0.391 N 
ATOM     14  H   UNL     1       1.868   3.337  -0.925  0.00  0.00    -0.080 HD
ENDBRANCH   1  13
BRANCH   1  19
ATOM     15  C   UNL     1      -1.371   4.302  -6.161  0.00  0.00    +0.044 C 
ATOM     16  C   UNL     1      -0.886   4.444  -4.741  0.00  0.00    -0.050 A 
ATOM     17  C   UNL     1      -1.603   5.207  -3.839  0.00  0.00    +0.003 A 
ATOM     18  C   UNL     1      -1.158   5.338  -2.537  0.00  0.00    +0.003 A 
ATOM     19  C   UNL     1       0.004   4.705  -2.137  0.00  0.00    -0.054 A 
ATOM     20  C   UNL     1       0.723   3.945  -3.040  0.00  0.00    +0.003 A 
ATOM     21  C   UNL     1       0.276   3.810  -4.341  0.00  0.00    +0.003 A 
ENDBRANCH   1  19
BRANCH   1  22
ATOM     22  C   UNL     1      -0.671   5.206   0.176  0.00  0.00    +0.144 A 
ATOM     23  N   UNL     1      -1.734   4.476   0.409  0.00  0.00    -0.115 NA
ATOM     24  N   UNL     1      -2.491   5.125   1.225  0.00  0.00    -0.023 NA
ATOM     25  N   UNL     1      -1.942   6.253   1.513  0.00  0.00    -0.042 NA
ATOM     26  N   UNL     1      -0.818   6.340   0.886  0.00  0.00    -0.209 N 
BRANCH  26  27
ATOM     27  C   UNL     1       0.122   7.462   0.937  0.00  0.00    +0.318 C 
BRANCH  27  28
ATOM     28  S   UNL     1      -0.378   8.726  -0.264  0.00  0.00    +0.017 S 
ATOM     29  O   UNL     1      -0.170   8.252  -1.588  0.00  0.00    -0.168 OA
ATOM     30  O   UNL     1      -1.624   9.294   0.114  0.00  0.00    -0.168 OA
BRANCH  28  31
ATOM     31  C   UNL     1       0.790  10.029  -0.064  0.00  0.00    +0.090 A 
ATOM     32  C   UNL     1       0.540  11.049   0.836  0.00  0.00    +0.027 A 
ATOM     33  C   UNL     1       1.459  12.069   0.996  0.00  0.00    +0.005 A 
ATOM     34  C   UNL     1       2.623  12.075   0.250  0.00  0.00    -0.050 A 
ATOM     35  C   UNL     1       2.870  11.058  -0.653  0.00  0.00    +0.005 A 
ATOM     36  C   UNL     1       1.954  10.036  -0.810  0.00  0.00    +0.027 A 
ATOM     37  C   UNL     1       3.622  13.190   0.422  0.00  0.00    +0.044 C 
ENDBRANCH  28  31
ENDBRANCH  27  28
ENDBRANCH  26  27
ENDBRANCH   1  22
TORSDOF 6
