REMARK  Name = ZINC09275144
REMARK  4 active torsions:
REMARK  status: ('A' for Active; 'I' for Inactive)
REMARK    1  A    between atoms: C_6  and  C_7
REMARK    2  A    between atoms: C_13  and  C_15
REMARK    3  A    between atoms: C_18  and  S_21
REMARK    4  A    between atoms: S_21  and  N_24
REMARK                            x       y       z     vdW  Elec       q    Type
REMARK                         _______ _______ _______ _____ _____    ______ ____
ROOT
ATOM      1  C   UNL     1      -1.266  -0.763   0.011  0.00  0.00    +0.250 A 
ATOM      2  N   UNL     1      -2.475  -0.256   0.019  0.00  0.00    -0.106 NA
ATOM      3  N   UNL     1      -3.338  -1.210   0.025  0.00  0.00    -0.092 NA
ATOM      4  C   UNL     1      -2.714  -2.363   0.020  0.00  0.00    +0.315 A 
ATOM      5  O   UNL     1      -1.393  -2.108   0.005  0.00  0.00    -0.405 OA
ATOM      6  N   UNL     1      -3.307  -3.615   0.024  0.00  0.00    -0.234 N 
ATOM      7  C   UNL     1      -4.650  -3.724   0.033  0.00  0.00    +0.252 C 
ATOM      8  O   UNL     1      -5.341  -2.724   0.038  0.00  0.00    -0.270 OA
ATOM      9  H   UNL     1      -2.755  -4.412   0.019  0.00  0.00    +0.160 HD
ENDROOT
BRANCH   1  15
ATOM     10  C   UNL     1      -0.017   1.392   0.010  0.00  0.00    +0.014 A 
ATOM     11  C   UNL     1       1.170   2.095   0.002  0.00  0.00    +0.016 A 
ATOM     12  C   UNL     1       2.378   1.419  -0.013  0.00  0.00    +0.018 A 
ATOM     13  C   UNL     1       2.404   0.035  -0.021  0.00  0.00    +0.016 A 
ATOM     14  C   UNL     1       1.224  -0.680  -0.014  0.00  0.00    +0.014 A 
ATOM     15  C   UNL     1       0.002  -0.004   0.002  0.00  0.00    +0.039 A 
ATOM     16 BR   UNL     1       4.000   2.390  -0.025  0.00  0.00    -0.050 Br
ENDBRANCH   1  15
BRANCH   7  17
ATOM     17  C   UNL     1      -5.282  -5.060   0.037  0.00  0.00    +0.037 A 
ATOM     18  C   UNL     1      -4.491  -6.210   0.037  0.00  0.00    +0.015 A 
ATOM     19  C   UNL     1      -5.088  -7.454   0.041  0.00  0.00    +0.029 A 
ATOM     20  C   UNL     1      -6.468  -7.563   0.045  0.00  0.00    +0.106 A 
ATOM     21  C   UNL     1      -7.258  -6.427   0.045  0.00  0.00    +0.029 A 
ATOM     22  C   UNL     1      -6.674  -5.177   0.047  0.00  0.00    +0.015 A 
BRANCH  20  23
ATOM     23  S   UNL     1      -7.221  -9.155   0.049  0.00  0.00    +0.061 S 
ATOM     24  O   UNL     1      -8.522  -8.990  -0.499  0.00  0.00    -0.153 OA
ATOM     25  O   UNL     1      -6.271 -10.056  -0.504  0.00  0.00    -0.153 OA
BRANCH  23  26
ATOM     26  N   UNL     1      -7.427  -9.596   1.632  0.00  0.00    -0.177 NA
ATOM     27  C   UNL     1      -6.363 -10.318   2.294  0.00  0.00    +0.109 C 
ATOM     28  C   UNL     1      -6.562 -11.840   2.088  0.00  0.00    +0.017 C 
ATOM     29  C   UNL     1      -7.710 -12.316   2.875  0.00  0.00    +0.001 C 
ATOM     30  C   UNL     1      -9.047 -11.702   2.471  0.00  0.00    +0.001 C 
ATOM     31  C   UNL     1      -9.227 -10.383   3.182  0.00  0.00    +0.017 C 
ATOM     32  C   UNL     1      -8.685  -9.230   2.311  0.00  0.00    +0.109 C 
ENDBRANCH  23  26
ENDBRANCH  20  23
ENDBRANCH   7  17
TORSDOF 4
