REMARK  Name = ZINC12658683
REMARK  8 active torsions:
REMARK  status: ('A' for Active; 'I' for Inactive)
REMARK    1  A    between atoms: C_1  and  O_2
REMARK    2  A    between atoms: O_2  and  C_3
REMARK    3  A    between atoms: C_6  and  C_9
REMARK    4  A    between atoms: C_9  and  C_10
REMARK    5  A    between atoms: C_15  and  S_19
REMARK    6  A    between atoms: C_17  and  O_18
REMARK    7  A    between atoms: S_19  and  C_20
REMARK    8  A    between atoms: C_20  and  C_21
REMARK                            x       y       z     vdW  Elec       q    Type
REMARK                         _______ _______ _______ _____ _____    ______ ____
ROOT
ATOM      1  C   UNL     1       1.772  -0.133   4.628  0.00  0.00    +0.082 A 
ATOM      2  C   UNL     1       0.661   0.630   5.009  0.00  0.00    +0.259 A 
ATOM      3  O   UNL     1       0.406   0.808   6.190  0.00  0.00    -0.267 OA
ATOM      4  N   UNL     1      -0.118   1.170   4.049  0.00  0.00    -0.302 N 
ATOM      5  H   UNL     1      -0.889   1.704   4.295  0.00  0.00    +0.171 HD
ATOM      6  C   UNL     1       0.174   0.961   2.735  0.00  0.00    +0.173 A 
ATOM      7  N   UNL     1       1.218   0.243   2.372  0.00  0.00    -0.189 NA
ATOM      8  C   UNL     1       2.027  -0.311   3.279  0.00  0.00    +0.223 A 
ENDROOT
BRANCH   8   9
ATOM      9  O   UNL     1       3.092  -1.044   2.881  0.00  0.00    -0.492 OA
ATOM     10  H   UNL     1       3.187  -1.111   1.921  0.00  0.00    +0.294 HD
ENDBRANCH   8   9
BRANCH   1  11
ATOM     11  C   UNL     1       2.672  -0.750   5.668  0.00  0.00    +0.081 C 
BRANCH  11  15
ATOM     12  C   UNL     1       5.595   2.115   6.899  0.00  0.00    +0.120 A 
ATOM     13  C   UNL     1       4.381   2.030   7.565  0.00  0.00    +0.046 A 
ATOM     14  C   UNL     1       3.438   1.104   7.165  0.00  0.00    +0.007 A 
ATOM     15  C   UNL     1       3.703   0.261   6.102  0.00  0.00    -0.042 A 
ATOM     16  C   UNL     1       4.914   0.339   5.440  0.00  0.00    +0.007 A 
ATOM     17  C   UNL     1       5.859   1.268   5.832  0.00  0.00    +0.046 A 
BRANCH  12  19
ATOM     18  C   UNL     1       7.752   3.056   6.558  0.00  0.00    +0.277 C 
ATOM     19  O   UNL     1       6.524   3.026   7.290  0.00  0.00    -0.495 OA
ENDBRANCH  12  19
ENDBRANCH  11  15
ENDBRANCH   1  11
BRANCH   6  20
ATOM     20  S   UNL     1      -0.860   1.669   1.497  0.00  0.00    -0.078 S 
BRANCH  20  21
ATOM     21  C   UNL     1      -0.013   1.086   0.008  0.00  0.00    +0.173 C 
BRANCH  21  22
ATOM     22  C   UNL     1      -0.742   1.585  -1.213  0.00  0.00    +0.226 C 
ATOM     23  O   UNL     1      -1.736   2.268  -1.088  0.00  0.00    -0.275 OA
ATOM     24  N   UNL     1      -0.288   1.272  -2.443  0.00  0.00    -0.300 N 
ATOM     25  C   UNL     1      -0.989   1.745  -3.643  0.00  0.00    +0.113 C 
ATOM     26  C   UNL     1       0.002   2.406  -4.599  0.00  0.00    +0.027 C 
ATOM     27  C   UNL     1       1.210   1.502  -4.846  0.00  0.00    +0.018 C 
ATOM     28  C   UNL     1       1.893   1.232  -3.503  0.00  0.00    +0.054 C 
ATOM     29  C   UNL     1       0.916   0.445  -2.613  0.00  0.00    +0.117 C 
ATOM     30  C   UNL     1       2.193   2.541  -2.811  0.00  0.00    +0.027 A 
ATOM     31  C   UNL     1       3.248   2.569  -1.953  0.00  0.00    +0.022 A 
ATOM     32  C   UNL     1       3.542   3.728  -1.226  0.00  0.00    +0.007 A 
ATOM     33  C   UNL     1       2.737   4.820  -1.372  0.00  0.00    +0.070 A 
ATOM     34  C   UNL     1       1.656   4.756  -2.262  0.00  0.00    +0.251 A 
ATOM     35  O   UNL     1       0.891   5.702  -2.352  0.00  0.00    -0.268 OA
ATOM     36  N   UNL     1       1.453   3.654  -3.025  0.00  0.00    -0.312 N 
ATOM     37  C   UNL     1       0.464   3.762  -4.097  0.00  0.00    +0.130 C 
ENDBRANCH  21  22
ENDBRANCH  20  21
ENDBRANCH   6  20
TORSDOF 7
