REMARK  Name = ZINC40010823
REMARK  10 active torsions:
REMARK  status: ('A' for Active; 'I' for Inactive)
REMARK    1  A    between atoms: C_1  and  C_2
REMARK    2  A    between atoms: C_2  and  O_3
REMARK    3  A    between atoms: O_3  and  C_4
REMARK    4  A    between atoms: C_11  and  C_16
REMARK    5  A    between atoms: C_20  and  O_33
REMARK    6  A    between atoms: C_21  and  O_31
REMARK    7  A    between atoms: N_26  and  S_27
REMARK    8  A    between atoms: S_27  and  C_30
REMARK    9  A    between atoms: O_31  and  C_32
REMARK   10  A    between atoms: O_33  and  C_34
REMARK                            x       y       z     vdW  Elec       q    Type
REMARK                         _______ _______ _______ _____ _____    ______ ____
ROOT
ATOM      1  C   UNL     1       3.682  -6.204  -3.855  0.00  0.00    +0.125 C 
ATOM      2  C   UNL     1       4.362  -5.887  -2.546  0.00  0.00    -0.021 A 
ATOM      3  C   UNL     1       4.583  -4.550  -2.240  0.00  0.00    +0.055 A 
ATOM      4  C   UNL     1       5.193  -4.192  -1.052  0.00  0.00    +0.162 A 
ATOM      5  C   UNL     1       5.586  -5.183  -0.157  0.00  0.00    +0.162 A 
ATOM      6  C   UNL     1       5.367  -6.512  -0.468  0.00  0.00    +0.053 A 
ATOM      7  C   UNL     1       4.760  -6.868  -1.666  0.00  0.00    -0.038 A 
ATOM      8  C   UNL     1       4.581  -8.337  -1.946  0.00  0.00    +0.052 C 
ATOM      9  C   UNL     1       3.509  -8.562  -3.012  0.00  0.00    +0.114 C 
ATOM     10  N   UNL     1       3.781  -7.641  -4.127  0.00  0.00    -0.173 NA
ENDROOT
BRANCH   1  18
ATOM     11  C   UNL     1      -1.166  -8.816  -1.916  0.00  0.00    +0.121 A 
ATOM     12  C   UNL     1      -1.650  -8.986  -3.219  0.00  0.00    +0.047 A 
ATOM     13  C   UNL     1      -1.098  -8.364  -4.292  0.00  0.00    +0.027 A 
ATOM     14  C   UNL     1       0.006  -7.506  -4.132  0.00  0.00    +0.041 A 
ATOM     15  N   UNL     1       0.538  -6.902  -5.194  0.00  0.00    -0.284 N 
ATOM     16  C   UNL     1       1.575  -6.084  -5.116  0.00  0.00    +0.226 C 
ATOM     17  O   UNL     1       2.017  -5.561  -6.122  0.00  0.00    -0.275 OA
ATOM     18  C   UNL     1       2.208  -5.802  -3.773  0.00  0.00    +0.122 C 
ATOM     19  C   UNL     1       1.607  -6.486  -2.561  0.00  0.00    -0.003 C 
ATOM     20  C   UNL     1       0.539  -7.306  -2.772  0.00  0.00    -0.003 A 
ATOM     21  C   UNL     1      -0.105  -8.001  -1.657  0.00  0.00    +0.055 A 
ATOM     22  H   UNL     1       0.147  -7.070  -6.066  0.00  0.00    +0.155 HD
BRANCH  11  23
ATOM     23  O   UNL     1      -1.769  -9.471  -0.890  0.00  0.00    -0.492 OA
BRANCH  23  25
ATOM     24  C   UNL     1      -3.421 -10.960   0.056  0.00  0.00    +0.048 C 
ATOM     25  C   UNL     1      -2.877 -10.312  -1.218  0.00  0.00    +0.225 C 
ENDBRANCH  23  25
ENDBRANCH  11  23
ENDBRANCH   1  18
BRANCH  10  26
ATOM     26  S   UNL     1       4.183  -8.207  -5.630  0.00  0.00    +0.030 S 
ATOM     27  O   UNL     1       3.603  -9.503  -5.697  0.00  0.00    -0.158 OA
ATOM     28  O   UNL     1       3.772  -7.183  -6.525  0.00  0.00    -0.158 OA
ATOM     29  C   UNL     1       5.993  -8.333  -5.613  0.00  0.00    +0.215 C 
ENDBRANCH  10  26
BRANCH   5  30
ATOM     30  O   UNL     1       6.182  -4.845   1.018  0.00  0.00    -0.491 OA
ATOM     31  C   UNL     1       6.558  -5.916   1.887  0.00  0.00    +0.277 C 
ENDBRANCH   5  30
BRANCH   4  32
ATOM     32  O   UNL     1       5.407  -2.882  -0.760  0.00  0.00    -0.491 OA
ATOM     33  C   UNL     1       4.977  -1.923  -1.728  0.00  0.00    +0.277 C 
ENDBRANCH   4  32
TORSDOF 6
