REMARK  Name = ZINC33826909
REMARK  11 active torsions:
REMARK  status: ('A' for Active; 'I' for Inactive)
REMARK    1  A    between atoms: C_1  and  C_2
REMARK    2  A    between atoms: C_2  and  N_3
REMARK    3  A    between atoms: N_3  and  C_4
REMARK    4  A    between atoms: C_4  and  C_6
REMARK    5  A    between atoms: C_4  and  C_13
REMARK    6  A    between atoms: N_15  and  C_16
REMARK    7  A    between atoms: C_17  and  C_23
REMARK    8  A    between atoms: C_21  and  C_22
REMARK    9  A    between atoms: C_24  and  C_26
REMARK   10  A    between atoms: C_26  and  C_28
REMARK   11  A    between atoms: C_26  and  N_29
REMARK                            x       y       z     vdW  Elec       q    Type
REMARK                         _______ _______ _______ _____ _____    ______ ____
ROOT
ATOM      1  C   UNL     1      -2.543   0.853   1.626  0.00  0.00    +0.194 C 
ENDROOT
BRANCH   1   2
ATOM      2  C   UNL     1      -3.040   0.330   2.950  0.00  0.00    +0.000 A 
ATOM      3  C   UNL     1      -2.358  -0.687   3.591  0.00  0.00    +0.007 A 
ATOM      4  C   UNL     1      -2.811  -1.164   4.807  0.00  0.00    +0.000 A 
ATOM      5  C   UNL     1      -3.951  -0.629   5.378  0.00  0.00    +0.001 A 
ATOM      6  C   UNL     1      -4.636   0.385   4.736  0.00  0.00    +0.020 A 
ATOM      7  C   UNL     1      -4.180   0.865   3.521  0.00  0.00    +0.046 A 
ATOM      8 CL   UNL     1      -5.041   2.139   2.713  0.00  0.00    -0.083 Cl
ENDBRANCH   1   2
BRANCH   1   9
ATOM      9  C   UNL     1      -3.300   0.185   0.507  0.00  0.00    +0.242 C 
ATOM     10  O   UNL     1      -2.707  -0.489  -0.309  0.00  0.00    -0.273 OA
ATOM     11  N   UNL     1      -4.636   0.337   0.412  0.00  0.00    -0.283 N 
ATOM     12  H   UNL     1      -5.175   0.943   1.155  0.00  0.00    +0.155 HD
BRANCH  11  13
ATOM     13  C   UNL     1      -5.338  -0.277  -0.631  0.00  0.00    +0.039 A 
ATOM     14  C   UNL     1      -5.047   0.046  -1.950  0.00  0.00    -0.029 A 
ATOM     15  C   UNL     1      -5.738  -0.565  -2.978  0.00  0.00    +0.005 A 
ATOM     16  C   UNL     1      -6.725  -1.491  -2.695  0.00  0.00    +0.001 A 
ATOM     17  C   UNL     1      -7.021  -1.811  -1.382  0.00  0.00    +0.005 A 
ATOM     18  C   UNL     1      -6.330  -1.207  -0.350  0.00  0.00    -0.029 A 
ATOM     19  C   UNL     1      -6.653  -1.557   1.080  0.00  0.00    +0.045 C 
ATOM     20  C   UNL     1      -3.975   1.060  -2.260  0.00  0.00    +0.045 C 
ENDBRANCH  11  13
ENDBRANCH   1   9
BRANCH   1  21
ATOM     21  N   UNL     1      -1.114   0.561   1.491  0.00  0.00    -0.285 N 
ATOM     22  C   UNL     1      -0.694  -0.715   1.378  0.00  0.00    +0.237 C 
ATOM     23  O   UNL     1      -1.503  -1.612   1.271  0.00  0.00    -0.274 OA
BRANCH  21  25
ATOM     24  C   UNL     1      -0.072   2.261   0.074  0.00  0.00    +0.024 C 
ATOM     25  C   UNL     1      -0.141   1.657   1.478  0.00  0.00    +0.105 C 
ENDBRANCH  21  25
BRANCH  22  26
ATOM     26  C   UNL     1       0.780  -1.026   1.385  0.00  0.00    +0.167 C 
ATOM     27  C   UNL     1       1.324  -0.885   2.809  0.00  0.00    +0.038 C 
BRANCH  26  28
ATOM     28  N   UNL     1       0.992  -2.397   0.915  0.00  0.00    -0.222 N 
ATOM     29  C   UNL     1       0.488  -3.493   1.510  0.00  0.00    +0.254 C 
ATOM     30  O   UNL     1      -0.205  -3.502   2.507  0.00  0.00    -0.270 OA
ATOM     31  C   UNL     1       0.916  -4.683   0.746  0.00  0.00    +0.049 A 
ATOM     32  C   UNL     1       0.706  -6.046   0.880  0.00  0.00    +0.014 A 
ATOM     33  C   UNL     1       1.271  -6.922  -0.034  0.00  0.00    +0.001 A 
ATOM     34  C   UNL     1       2.043  -6.445  -1.077  0.00  0.00    +0.001 A 
ATOM     35  C   UNL     1       2.261  -5.084  -1.223  0.00  0.00    +0.014 A 
ATOM     36  C   UNL     1       1.702  -4.197  -0.318  0.00  0.00    +0.049 A 
ATOM     37  C   UNL     1       1.722  -2.726  -0.166  0.00  0.00    +0.254 C 
ATOM     38  O   UNL     1       2.300  -1.946  -0.896  0.00  0.00    -0.270 OA
ENDBRANCH  26  28
ENDBRANCH  22  26
ENDBRANCH   1  21
TORSDOF 7
