REMARK  Name = ZINC01407862
REMARK  9 active torsions:
REMARK  status: ('A' for Active; 'I' for Inactive)
REMARK    1  A    between atoms: C_1  and  C_2
REMARK    2  A    between atoms: N_13  and  C_16
REMARK    3  A    between atoms: C_16  and  C_18
REMARK    4  A    between atoms: C_16  and  C_19
REMARK    5  A    between atoms: N_21  and  N_22
REMARK    6  A    between atoms: C_23  and  C_24
REMARK    7  A    between atoms: C_26  and  O_32
REMARK    8  A    between atoms: C_27  and  O_31
REMARK    9  A    between atoms: O_32  and  C_33
REMARK                            x       y       z     vdW  Elec       q    Type
REMARK                         _______ _______ _______ _____ _____    ______ ____
ROOT
ATOM      1  C   UNL     1      -0.787  -5.184  -1.508  0.00  0.00    +0.176 C 
ATOM      2  C   UNL     1      -1.660  -5.616  -2.688  0.00  0.00    +0.041 C 
ENDROOT
BRANCH   1  14
ATOM      3  C   UNL     1       1.397   3.572   0.259  0.00  0.00    +0.008 C 
ATOM      4  C   UNL     1       1.414   2.064  -0.000  0.00  0.00    -0.009 C 
ATOM      5  C   UNL     1      -0.019   1.524   0.010  0.00  0.00    +0.008 C 
ATOM      6  C   UNL     1       0.002  -0.004   0.002  0.00  0.00    +0.037 C 
ATOM      7  C   UNL     1       0.873  -0.481  -1.157  0.00  0.00    -0.023 A 
ATOM      8  C   UNL     1       1.763   0.357  -1.738  0.00  0.00    -0.004 A 
ATOM      9  S   UNL     1       2.538  -0.601  -3.016  0.00  0.00    -0.073 S 
ATOM     10  C   UNL     1       1.671  -2.118  -2.769  0.00  0.00    +0.116 A 
ATOM     11  C   UNL     1       0.801  -1.828  -1.695  0.00  0.00    +0.076 A 
ATOM     12  C   UNL     1      -0.058  -2.888  -1.248  0.00  0.00    +0.263 A 
ATOM     13  O   UNL     1      -0.846  -2.741  -0.330  0.00  0.00    -0.267 OA
ATOM     14  N   UNL     1       0.061  -4.061  -1.914  0.00  0.00    -0.287 N 
ATOM     15  C   UNL     1       0.930  -4.245  -2.938  0.00  0.00    +0.204 A 
ATOM     16  N   UNL     1       1.732  -3.299  -3.375  0.00  0.00    -0.230 NA
ATOM     17  C   UNL     1       2.034   1.785  -1.377  0.00  0.00    +0.046 C 
ENDBRANCH   1  14
BRANCH   1  18
ATOM     18  C   UNL     1       0.080  -6.338  -1.075  0.00  0.00    +0.255 C 
ATOM     19  O   UNL     1       1.288  -6.233  -1.103  0.00  0.00    -0.272 OA
ATOM     20  N   UNL     1      -0.487  -7.487  -0.657  0.00  0.00    -0.205 N 
ATOM     21  H   UNL     1      -1.453  -7.571  -0.635  0.00  0.00    +0.177 HD
BRANCH  20  22
ATOM     22  N   UNL     1       0.319  -8.560  -0.255  0.00  0.00    -0.188 NA
ATOM     23  C   UNL     1      -0.227  -9.666   0.148  0.00  0.00    +0.138 C 
BRANCH  23  24
ATOM     24  C   UNL     1       0.621 -10.795   0.572  0.00  0.00    -0.001 A 
ATOM     25  C   UNL     1       0.035 -11.986   1.011  0.00  0.00    +0.059 A 
ATOM     26  C   UNL     1       0.835 -13.043   1.401  0.00  0.00    +0.163 A 
ATOM     27  C   UNL     1       2.222 -12.917   1.368  0.00  0.00    +0.173 A 
ATOM     28  C   UNL     1       2.805 -11.734   0.938  0.00  0.00    +0.063 A 
ATOM     29  C   UNL     1       2.013 -10.676   0.540  0.00  0.00    +0.028 A 
ATOM     30 BR   UNL     1       4.688 -11.571   0.894  0.00  0.00    -0.046 Br
BRANCH  27  31
ATOM     31  O   UNL     1       3.006 -13.957   1.758  0.00  0.00    -0.503 OA
ATOM     32  H   UNL     1       3.226 -13.952   2.700  0.00  0.00    +0.292 HD
ENDBRANCH  27  31
BRANCH  26  33
ATOM     33  O   UNL     1       0.267 -14.204   1.824  0.00  0.00    -0.491 OA
ATOM     34  C   UNL     1      -1.160 -14.264   1.832  0.00  0.00    +0.277 C 
ENDBRANCH  26  33
ENDBRANCH  23  24
ENDBRANCH  20  22
ENDBRANCH   1  18
TORSDOF 6
