REMARK  Name = ZINC35228556
REMARK  9 active torsions:
REMARK  status: ('A' for Active; 'I' for Inactive)
REMARK    1  A    between atoms: C_1  and  C_2
REMARK    2  A    between atoms: C_5  and  C_11
REMARK    3  A    between atoms: C_7  and  N_8
REMARK    4  A    between atoms: N_13  and  C_14
REMARK    5  A    between atoms: N_13  and  C_36
REMARK    6  A    between atoms: C_14  and  C_15
REMARK    7  A    between atoms: C_29  and  C_31
REMARK    8  A    between atoms: C_36  and  C_37
REMARK    9  A    between atoms: C_36  and  C_38
REMARK                            x       y       z     vdW  Elec       q    Type
REMARK                         _______ _______ _______ _____ _____    ______ ____
ROOT
ATOM      1  C   UNL     1      -0.737  -6.138  -1.857  0.00  0.00    +0.238 C 
ATOM      2  O   UNL     1      -1.651  -5.343  -1.806  0.00  0.00    -0.273 OA
ATOM      3  N   UNL     1      -0.982  -7.428  -2.162  0.00  0.00    -0.252 N 
ATOM      4  C   UNL     1      -2.278  -7.831  -2.509  0.00  0.00    +0.061 A 
ATOM      5  C   UNL     1      -3.383  -7.167  -1.999  0.00  0.00    +0.025 A 
ATOM      6  C   UNL     1      -4.655  -7.568  -2.358  0.00  0.00    +0.002 A 
ATOM      7  C   UNL     1      -4.836  -8.630  -3.225  0.00  0.00    +0.002 A 
ATOM      8  C   UNL     1      -3.741  -9.303  -3.737  0.00  0.00    +0.028 A 
ATOM      9  C   UNL     1      -2.466  -8.911  -3.378  0.00  0.00    +0.068 A 
ATOM     10  N   UNL     1      -1.326  -9.578  -3.849  0.00  0.00    -0.316 N 
ATOM     11  C   UNL     1      -1.194 -10.480  -4.851  0.00  0.00    +0.092 A 
ATOM     12  C   UNL     1       0.109 -10.834  -4.930  0.00  0.00    +0.020 A 
ATOM     13  C   UNL     1       0.806 -10.117  -3.932  0.00  0.00    +0.025 A 
ATOM     14  C   UNL     1      -0.088  -9.361  -3.285  0.00  0.00    +0.052 A 
ATOM     15  C   UNL     1       0.115  -8.410  -2.136  0.00  0.00    +0.194 C 
ENDROOT
BRANCH  15  16
ATOM     16  C   UNL     1       0.086  -9.173  -0.836  0.00  0.00    +0.131 A 
ATOM     17  C   UNL     1       1.160  -9.528  -0.108  0.00  0.00    +0.047 A 
ATOM     18  C   UNL     1       0.676 -10.223   1.024  0.00  0.00    +0.041 A 
ATOM     19  C   UNL     1      -0.664 -10.251   0.920  0.00  0.00    +0.195 A 
ATOM     20  O   UNL     1      -1.017  -9.608  -0.206  0.00  0.00    -0.466 OA
ENDBRANCH  15  16
BRANCH   1  21
ATOM     21  C   UNL     1       0.673  -5.683  -1.580  0.00  0.00    +0.204 C 
BRANCH  21  24
ATOM     22  C   UNL     1       0.660  -3.728  -0.125  0.00  0.00    +0.247 C 
ATOM     23  O   UNL     1       0.734  -2.528   0.048  0.00  0.00    -0.270 OA
ATOM     24  N   UNL     1       0.687  -4.233  -1.375  0.00  0.00    -0.286 N 
BRANCH  22  29
ATOM     25  C   UNL     1       0.191  -7.262   4.393  0.00  0.00    +0.046 C 
ATOM     26  C   UNL     1       0.314  -6.337   3.210  0.00  0.00    -0.020 A 
ATOM     27  C   UNL     1      -0.517  -6.503   2.116  0.00  0.00    +0.006 A 
ATOM     28  C   UNL     1      -0.410  -5.660   1.030  0.00  0.00    +0.013 A 
ATOM     29  C   UNL     1       0.539  -4.636   1.036  0.00  0.00    +0.039 A 
ATOM     30  C   UNL     1       1.374  -4.473   2.142  0.00  0.00    +0.046 A 
ATOM     31  C   UNL     1       1.253  -5.321   3.224  0.00  0.00    +0.130 A 
BRANCH  31  32
ATOM     32  N   UNL     1       2.133  -5.146   4.401  0.00  0.00    +0.057 N 
ATOM     33  O   UNL     1       1.740  -5.455   5.502  0.00  0.00    -0.126 OA
ATOM     34  O   UNL     1       3.246  -4.695   4.262  0.00  0.00    -0.126 OA
ENDBRANCH  31  32
ENDBRANCH  22  29
BRANCH  24  35
ATOM     35  C   UNL     1       0.731  -3.330  -2.528  0.00  0.00    +0.071 C 
ATOM     36  C   UNL     1       1.940  -3.675  -3.400  0.00  0.00    +0.028 C 
ATOM     37  C   UNL     1      -0.551  -3.488  -3.348  0.00  0.00    +0.028 C 
ENDBRANCH  24  35
ENDBRANCH  21  24
ENDBRANCH   1  21
TORSDOF 6
