REMARK  Name = ZINC36704902
REMARK  5 active torsions:
REMARK  status: ('A' for Active; 'I' for Inactive)
REMARK    1  A    between atoms: C_1  and  S_2
REMARK    2  A    between atoms: S_2  and  C_3
REMARK    3  A    between atoms: C_13  and  C_15
REMARK    4  A    between atoms: C_18  and  N_24
REMARK    5  A    between atoms: C_19  and  N_21
REMARK                            x       y       z     vdW  Elec       q    Type
REMARK                         _______ _______ _______ _____ _____    ______ ____
ROOT
ATOM      1  C   UNL     1       0.848  -0.411  -1.489  0.00  0.00    +0.034 A 
ATOM      2  C   UNL     1       1.308   0.596  -2.310  0.00  0.00    +0.017 A 
ATOM      3  C   UNL     1       1.978   0.317  -3.491  0.00  0.00    +0.002 A 
ATOM      4  C   UNL     1       2.191  -1.001  -3.855  0.00  0.00    +0.017 A 
ATOM      5  C   UNL     1       1.737  -2.013  -3.044  0.00  0.00    +0.042 A 
ATOM      6  C   UNL     1       1.056  -1.773  -1.831  0.00  0.00    +0.094 A 
ATOM      7  N   UNL     1       0.678  -2.873  -1.143  0.00  0.00    -0.223 NA
ATOM      8  C   UNL     1       0.929  -4.090  -1.566  0.00  0.00    +0.166 A 
ATOM      9  S   UNL     1       1.782  -3.788  -3.107  0.00  0.00    -0.052 S 
ATOM     10  N   UNL     1       0.607  -5.299  -0.973  0.00  0.00    -0.261 N 
ATOM     11  C   UNL     1       0.955  -6.456  -1.569  0.00  0.00    +0.250 C 
ATOM     12  O   UNL     1       1.553  -6.439  -2.628  0.00  0.00    -0.270 OA
ATOM     13  H   UNL     1       0.130  -5.314  -0.128  0.00  0.00    +0.157 HD
ENDROOT
BRANCH  11  14
ATOM     14  C   UNL     1       0.612  -7.744  -0.938  0.00  0.00    +0.039 A 
ATOM     15  C   UNL     1      -0.080  -7.766   0.277  0.00  0.00    +0.015 A 
ATOM     16  C   UNL     1      -0.399  -8.970   0.863  0.00  0.00    +0.026 A 
ATOM     17  C   UNL     1      -0.032 -10.164   0.248  0.00  0.00    +0.060 A 
ATOM     18  C   UNL     1       0.657 -10.145  -0.961  0.00  0.00    +0.148 A 
ATOM     19  C   UNL     1       0.973  -8.945  -1.556  0.00  0.00    +0.047 A 
BRANCH  17  20
ATOM     20  N   UNL     1      -0.355 -11.378   0.844  0.00  0.00    -0.324 N 
ATOM     21  C   UNL     1       0.562 -12.022   1.798  0.00  0.00    +0.133 C 
ATOM     22  C   UNL     1      -0.230 -12.385   3.060  0.00  0.00    +0.178 C 
ATOM     23  O   UNL     1      -1.389 -13.135   2.689  0.00  0.00    -0.377 OA
ATOM     24  C   UNL     1      -2.310 -12.418   1.863  0.00  0.00    +0.178 C 
ATOM     25  C   UNL     1      -1.628 -12.055   0.544  0.00  0.00    +0.133 C 
ENDBRANCH  17  20
BRANCH  18  26
ATOM     26  N   UNL     1       1.045 -11.418  -1.610  0.00  0.00    +0.058 N 
ATOM     27  O   UNL     1       1.644 -11.402  -2.660  0.00  0.00    -0.126 OA
ATOM     28  O   UNL     1       0.763 -12.472  -1.091  0.00  0.00    -0.126 OA
ENDBRANCH  18  26
ENDBRANCH  11  14
BRANCH   1  30
ATOM     29  C   UNL     1      -0.022   1.810   0.012  0.00  0.00    +0.090 C 
ATOM     30  S   UNL     1       0.002  -0.004   0.002  0.00  0.00    -0.126 S 
ENDBRANCH   1  30
TORSDOF 4
