REMARK  Name = ZINC03842018
REMARK  10 active torsions:
REMARK  status: ('A' for Active; 'I' for Inactive)
REMARK    1  A    between atoms: C_1  and  N_2
REMARK    2  A    between atoms: N_2  and  C_3
REMARK    3  A    between atoms: N_2  and  C_4
REMARK    4  A    between atoms: C_7  and  C_10
REMARK    5  A    between atoms: C_10  and  N_11
REMARK    6  A    between atoms: N_11  and  C_12
REMARK    7  A    between atoms: C_22  and  N_24
REMARK    8  A    between atoms: C_25  and  C_29
REMARK    9  A    between atoms: C_33  and  C_35
REMARK   10  A    between atoms: C_35  and  N_36
REMARK                            x       y       z     vdW  Elec       q    Type
REMARK                         _______ _______ _______ _____ _____    ______ ____
ROOT
ATOM      1  C   UNL     1      -7.010  -4.017   1.288  0.00  0.00    -0.013 C 
ATOM      2  C   UNL     1      -7.141  -5.447   0.718  0.00  0.00    +0.147 C 
ATOM      3  O   UNL     1      -7.982  -6.145   1.662  0.00  0.00    -0.373 OA
ATOM      4  C   UNL     1      -7.533  -5.709   2.960  0.00  0.00    +0.172 C 
ATOM      5  C   UNL     1      -7.290  -4.181   2.800  0.00  0.00    +0.137 C 
ATOM      6  O   UNL     1      -8.525  -3.531   3.109  0.00  0.00    -0.373 OA
ATOM      7  C   UNL     1      -9.412  -4.413   3.796  0.00  0.00    +0.189 C 
ATOM      8  C   UNL     1      -8.702  -5.792   3.962  0.00  0.00    +0.168 C 
ENDROOT
BRANCH   8   9
ATOM      9  N   UNL     1      -8.197  -5.953   5.327  0.00  0.00    -0.217 N 
ATOM     10  C   UNL     1      -8.308  -7.045   6.123  0.00  0.00    +0.182 A 
ATOM     11  N   UNL     1      -7.715  -6.756   7.261  0.00  0.00    -0.108 NA
ATOM     12  N   UNL     1      -7.242  -5.562   7.231  0.00  0.00    -0.023 NA
ATOM     13  N   UNL     1      -7.488  -5.010   6.092  0.00  0.00    -0.043 NA
BRANCH  10  14
ATOM     14  C   UNL     1      -8.972  -8.322   5.777  0.00  0.00    +0.021 A 
ATOM     15  C   UNL     1      -9.001  -8.760   4.452  0.00  0.00    +0.011 A 
ATOM     16  C   UNL     1      -9.621  -9.951   4.136  0.00  0.00    +0.001 A 
ATOM     17  C   UNL     1     -10.214 -10.711   5.129  0.00  0.00    +0.002 A 
ATOM     18  C   UNL     1     -10.189 -10.282   6.444  0.00  0.00    -0.063 A 
ATOM     19  C   UNL     1      -9.567  -9.095   6.774  0.00  0.00    +0.013 A 
BRANCH  18  20
ATOM     20  C   UNL     1     -10.838 -11.115   7.519  0.00  0.00    -0.043 C 
BRANCH  20  21
ATOM     21  N   UNL     1      -9.856 -12.060   8.066  0.00  0.00    +0.382 N 
ATOM     22  C   UNL     1      -8.812 -11.330   8.829  0.00  0.00    -0.078 C 
ATOM     23  C   UNL     1      -8.232 -12.418   9.767  0.00  0.00    -0.020 C 
ATOM     24  C   UNL     1      -9.481 -13.244  10.152  0.00  0.00    -0.020 C 
ATOM     25  C   UNL     1     -10.506 -12.966   9.037  0.00  0.00    -0.078 C 
ATOM     26  H   UNL     1      -9.434 -12.594   7.321  0.00  0.00    -0.081 HD
ENDBRANCH  20  21
ENDBRANCH  18  20
ENDBRANCH  10  14
ENDBRANCH   8   9
BRANCH   1  27
ATOM     27  N   UNL     1      -5.652  -3.499   1.069  0.00  0.00    +0.387 N 
ATOM     28  H   UNL     1      -4.979  -4.167   1.413  0.00  0.00    -0.085 HD
ATOM     29  H   UNL     1      -5.542  -2.626   1.562  0.00  0.00    -0.085 HD
BRANCH  27  30
ATOM     30  C   UNL     1      -5.437  -3.281  -0.367  0.00  0.00    -0.046 C 
BRANCH  30  34
ATOM     31  C   UNL     1      -1.488  -1.774  -1.004  0.00  0.00    +0.029 A 
ATOM     32  C   UNL     1      -1.720  -3.144  -1.009  0.00  0.00    +0.023 A 
ATOM     33  C   UNL     1      -2.997  -3.627  -0.803  0.00  0.00    +0.003 A 
ATOM     34  C   UNL     1      -4.045  -2.750  -0.591  0.00  0.00    -0.064 A 
ATOM     35  C   UNL     1      -3.817  -1.386  -0.585  0.00  0.00    +0.003 A 
ATOM     36  C   UNL     1      -2.542  -0.896  -0.785  0.00  0.00    +0.023 A 
BRANCH  31  38
ATOM     37  C   UNL     1       0.046   0.162  -1.200  0.00  0.00    +0.129 C 
ATOM     38  N   UNL     1      -0.198  -1.282  -1.212  0.00  0.00    -0.336 N 
ATOM     39  C   UNL     1       0.912  -2.210  -1.442  0.00  0.00    +0.129 C 
ENDBRANCH  31  38
ENDBRANCH  30  34
ENDBRANCH  27  30
ENDBRANCH   1  27
TORSDOF 8
