REMARK  Name = ZINC39469772
REMARK  8 active torsions:
REMARK  status: ('A' for Active; 'I' for Inactive)
REMARK    1  A    between atoms: C_1  and  C_2
REMARK    2  A    between atoms: C_2  and  O_3
REMARK    3  A    between atoms: O_3  and  C_4
REMARK    4  A    between atoms: P_13  and  S_24
REMARK    5  A    between atoms: C_21  and  S_22
REMARK    6  A    between atoms: S_22  and  C_23
REMARK    7  A    between atoms: S_24  and  O_27
REMARK    8  A    between atoms: O_27  and  C_28
REMARK                            x       y       z     vdW  Elec       q    Type
REMARK                         _______ _______ _______ _____ _____    ______ ____
ROOT
ATOM      1  C   UNL     1       0.777  -1.810  -1.336  0.00  0.00    +0.130 C 
ATOM      2  C   UNL     1       0.264  -2.637  -0.425  0.00  0.00    +0.024 C 
ATOM      3  C   UNL     1       0.380  -4.130  -0.623  0.00  0.00    +0.019 C 
ATOM      4  C   UNL     1       1.774  -4.577  -0.181  0.00  0.00    -0.002 C 
ATOM      5  C   UNL     1       1.985  -6.064  -0.486  0.00  0.00    -0.020 C 
ATOM      6  C   UNL     1       3.401  -6.424  -0.018  0.00  0.00    +0.158 C 
ATOM      7  O   UNL     1       3.637  -7.827  -0.233  0.00  0.00    -0.301 OA
ATOM      8  P   UNL     1       3.306  -8.432  -1.706  0.00  0.00    +0.431 P 
ATOM      9  O   UNL     1       3.078  -9.892  -1.622  0.00  0.00    -0.246 OA
ATOM     10  N   UNL     1       1.927  -7.665  -2.189  0.00  0.00    -0.271 NA
ATOM     11  N   UNL     1       1.819  -6.316  -1.919  0.00  0.00    +0.398 N 
ATOM     12  C   UNL     1       0.468  -5.926  -2.354  0.00  0.00    -0.046 C 
ATOM     13  C   UNL     1       0.200  -4.445  -2.112  0.00  0.00    +0.006 C 
ATOM     14  C   UNL     1       1.166  -3.620  -2.919  0.00  0.00    -0.006 C 
ATOM     15  C   UNL     1       1.456  -2.364  -2.529  0.00  0.00    +0.045 C 
ATOM     16  H   UNL     1       1.220  -8.145  -2.648  0.00  0.00    +0.113 HD
ATOM     17  H   UNL     1       2.517  -5.804  -2.437  0.00  0.00    -0.055 HD
ENDROOT
BRANCH   8  18
ATOM     18  S   UNL     1       4.894  -8.013  -3.047  0.00  0.00    +0.209 S 
ATOM     19  O   UNL     1       4.593  -8.694  -4.258  0.00  0.00    -0.126 OA
ATOM     20  O   UNL     1       5.109  -6.610  -2.996  0.00  0.00    -0.126 OA
BRANCH  18  21
ATOM     21  O   UNL     1       6.146  -8.666  -2.480  0.00  0.00    -0.339 OA
BRANCH  21  22
ATOM     22  C   UNL     1       6.182 -10.017  -2.632  0.00  0.00    +0.157 A 
ATOM     23  C   UNL     1       5.646 -10.841  -1.653  0.00  0.00    +0.048 A 
ATOM     24  C   UNL     1       5.684 -12.213  -1.810  0.00  0.00    +0.004 A 
ATOM     25  C   UNL     1       6.256 -12.765  -2.941  0.00  0.00    +0.000 A 
ATOM     26  C   UNL     1       6.791 -11.946  -3.918  0.00  0.00    +0.004 A 
ATOM     27  C   UNL     1       6.750 -10.573  -3.769  0.00  0.00    +0.048 A 
ENDBRANCH  21  22
ENDBRANCH  18  21
ENDBRANCH   8  18
BRANCH  15  28
ATOM     28  S   UNL     1       2.603  -1.382  -3.437  0.00  0.00    -0.125 S 
ATOM     29  C   UNL     1       3.154  -2.475  -4.775  0.00  0.00    +0.090 C 
ENDBRANCH  15  28
BRANCH   1  30
ATOM     30  O   UNL     1       0.671  -0.465  -1.174  0.00  0.00    -0.491 OA
BRANCH  30  32
ATOM     31  C   UNL     1      -0.019   1.526   0.010  0.00  0.00    +0.048 C 
ATOM     32  C   UNL     1       0.002  -0.004   0.002  0.00  0.00    +0.226 C 
ENDBRANCH  30  32
ENDBRANCH   1  30
TORSDOF 6
