REMARK  Name = ZINC12482652
REMARK  11 active torsions:
REMARK  status: ('A' for Active; 'I' for Inactive)
REMARK    1  A    between atoms: C_1  and  C_2
REMARK    2  A    between atoms: C_2  and  O_3
REMARK    3  A    between atoms: O_3  and  C_4
REMARK    4  A    between atoms: C_7  and  N_10
REMARK    5  A    between atoms: N_10  and  C_11
REMARK    6  A    between atoms: C_11  and  C_13
REMARK    7  A    between atoms: C_11  and  C_18
REMARK    8  A    between atoms: N_20  and  C_21
REMARK    9  A    between atoms: C_21  and  C_22
REMARK   10  A    between atoms: C_28  and  C_30
REMARK   11  A    between atoms: C_30  and  N_31
REMARK                            x       y       z     vdW  Elec       q    Type
REMARK                         _______ _______ _______ _____ _____    ______ ____
ROOT
ATOM      1  N   UNL     1      -1.219   6.903   1.187  0.00  0.00    -0.253 N 
ATOM      2  C   UNL     1      -1.966   6.991   2.305  0.00  0.00    +0.242 C 
ATOM      3  O   UNL     1      -2.404   8.066   2.659  0.00  0.00    -0.273 OA
ENDROOT
BRANCH   1   7
ATOM      4  C   UNL     1       0.007   3.172  -0.213  0.00  0.00    +0.121 A 
ATOM      5  C   UNL     1      -0.300   4.183  -1.112  0.00  0.00    +0.047 A 
ATOM      6  C   UNL     1      -0.711   5.417  -0.649  0.00  0.00    +0.027 A 
ATOM      7  C   UNL     1      -0.807   5.650   0.717  0.00  0.00    +0.038 A 
ATOM      8  C   UNL     1      -0.494   4.639   1.616  0.00  0.00    +0.027 A 
ATOM      9  C   UNL     1      -0.088   3.403   1.152  0.00  0.00    +0.047 A 
BRANCH   4  10
ATOM     10  O   UNL     1       0.406   1.955  -0.669  0.00  0.00    -0.492 OA
BRANCH  10  12
ATOM     11  C   UNL     1       0.946   0.364  -2.406  0.00  0.00    +0.048 C 
ATOM     12  C   UNL     1       0.482   1.786  -2.086  0.00  0.00    +0.225 C 
ENDBRANCH  10  12
ENDBRANCH   4  10
ENDBRANCH   1   7
BRANCH   1  13
ATOM     13  C   UNL     1      -0.837   8.119   0.463  0.00  0.00    +0.204 C 
BRANCH  13  14
ATOM     14  C   UNL     1      -1.887   8.438  -0.570  0.00  0.00    +0.019 A 
ATOM     15  C   UNL     1      -2.163   9.622  -1.169  0.00  0.00    +0.013 A 
ATOM     16  C   UNL     1      -3.181   9.680  -2.102  0.00  0.00    +0.008 A 
ATOM     17  C   UNL     1      -3.880   8.554  -2.384  0.00  0.00    +0.045 A 
ATOM     18  S   UNL     1      -3.094   7.356  -1.318  0.00  0.00    -0.099 S 
ENDBRANCH  13  14
BRANCH  13  19
ATOM     19  C   UNL     1       0.489   7.902  -0.218  0.00  0.00    +0.239 C 
ATOM     20  O   UNL     1       1.060   6.838  -0.110  0.00  0.00    -0.273 OA
ATOM     21  N   UNL     1       1.042   8.892  -0.948  0.00  0.00    -0.311 N 
ATOM     22  H   UNL     1       0.585   9.743  -1.034  0.00  0.00    +0.149 HD
BRANCH  21  23
ATOM     23  C   UNL     1       2.331   8.681  -1.610  0.00  0.00    +0.135 C 
BRANCH  23  24
ATOM     24  C   UNL     1       2.729   9.951  -2.366  0.00  0.00    +0.135 C 
ATOM     25  C   UNL     1       4.045   9.723  -3.143  0.00  0.00    +0.035 C 
ATOM     26  C   UNL     1       4.792  11.070  -3.018  0.00  0.00    +0.031 C 
ATOM     27  C   UNL     1       3.840  11.952  -2.180  0.00  0.00    +0.160 C 
ATOM     28  O   UNL     1       3.026  11.017  -1.437  0.00  0.00    -0.375 OA
ENDBRANCH  23  24
ENDBRANCH  21  23
ENDBRANCH  13  19
ENDBRANCH   1  13
BRANCH   2  29
ATOM     29  C   UNL     1      -2.257   5.755   3.116  0.00  0.00    +0.242 C 
BRANCH  29  30
ATOM     30  N   UNL     1      -3.600   5.854   3.692  0.00  0.00    -0.235 N 
ATOM     31  C   UNL     1      -3.935   6.392   4.912  0.00  0.00    +0.090 A 
ATOM     32  C   UNL     1      -3.209   6.992   5.935  0.00  0.00    +0.029 A 
ATOM     33  C   UNL     1      -3.856   7.445   7.051  0.00  0.00    +0.002 A 
ATOM     34  C   UNL     1      -5.234   7.318   7.170  0.00  0.00    +0.002 A 
ATOM     35  C   UNL     1      -5.969   6.739   6.178  0.00  0.00    +0.032 A 
ATOM     36  C   UNL     1      -5.331   6.266   5.023  0.00  0.00    +0.113 A 
ATOM     37  N   UNL     1      -5.778   5.665   3.903  0.00  0.00    -0.129 NA
ATOM     38  N   UNL     1      -4.798   5.412   3.110  0.00  0.00    -0.064 NA
ENDBRANCH  29  30
ENDBRANCH   2  29
TORSDOF 10
