REMARK  Name = ZINC25453967
REMARK  7 active torsions:
REMARK  status: ('A' for Active; 'I' for Inactive)
REMARK    1  A    between atoms: C_1  and  C_2
REMARK    2  A    between atoms: C_4  and  C_23
REMARK    3  A    between atoms: C_7  and  N_8
REMARK    4  A    between atoms: N_8  and  S_9
REMARK    5  A    between atoms: S_9  and  C_12
REMARK    6  A    between atoms: C_23  and  O_25
REMARK    7  A    between atoms: O_25  and  C_26
REMARK                            x       y       z     vdW  Elec       q    Type
REMARK                         _______ _______ _______ _____ _____    ______ ____
ROOT
ATOM      1  S   UNL     1      -1.611   2.329  -0.003  0.00  0.00    +0.072 S 
ATOM      2  O   UNL     1      -1.435   3.651  -0.494  0.00  0.00    -0.150 OA
ATOM      3  O   UNL     1      -2.561   1.430  -0.559  0.00  0.00    -0.150 OA
ENDROOT
BRANCH   1   4
ATOM      4  C   UNL     1      -0.042   1.537  -0.116  0.00  0.00    +0.109 A 
ATOM      5  C   UNL     1       1.115   2.296  -0.134  0.00  0.00    +0.030 A 
ATOM      6  C   UNL     1       2.346   1.678  -0.230  0.00  0.00    +0.025 A 
ATOM      7  C   UNL     1       2.423   0.294  -0.305  0.00  0.00    +0.037 A 
ATOM      8  C   UNL     1       1.260  -0.465  -0.285  0.00  0.00    -0.024 A 
ATOM      9  C   UNL     1       0.031   0.158  -0.191  0.00  0.00    +0.034 A 
ATOM     10  C   UNL     1       1.344  -1.967  -0.366  0.00  0.00    +0.046 C 
ATOM     11  C   UNL     1       2.524  -2.366  -1.253  0.00  0.00    +0.101 C 
ATOM     12  C   UNL     1       3.756  -1.607  -0.839  0.00  0.00    +0.218 C 
ATOM     13  O   UNL     1       4.841  -2.144  -0.902  0.00  0.00    -0.275 OA
ATOM     14  N   UNL     1       3.667  -0.337  -0.401  0.00  0.00    -0.285 N 
ATOM     15  H   UNL     1       4.582   0.204  -0.117  0.00  0.00    +0.155 HD
ENDBRANCH   1   4
BRANCH   1  16
ATOM     16  N   UNL     1      -1.976   2.467   1.607  0.00  0.00    -0.216 N 
ATOM     17  H   UNL     1      -2.878   1.984   2.010  0.00  0.00    +0.174 HD
BRANCH  16  24
ATOM     18  C   UNL     1      -1.642   1.539   4.272  0.00  0.00    +0.046 C 
ATOM     19  C   UNL     1      -0.947   2.776   3.763  0.00  0.00    -0.027 A 
ATOM     20  C   UNL     1      -0.117   3.491   4.595  0.00  0.00    +0.020 A 
ATOM     21  C   UNL     1       0.520   4.642   4.120  0.00  0.00    +0.059 A 
ATOM     22  C   UNL     1       0.315   5.056   2.800  0.00  0.00    +0.017 A 
ATOM     23  C   UNL     1      -0.505   4.338   1.978  0.00  0.00    +0.025 A 
ATOM     24  C   UNL     1      -1.141   3.193   2.449  0.00  0.00    +0.051 A 
BRANCH  21  25
ATOM     25  C   UNL     1       1.406   5.416   5.008  0.00  0.00    +0.339 C 
ATOM     26  O   UNL     1       1.584   5.054   6.154  0.00  0.00    -0.245 OA
BRANCH  25  27
ATOM     27  O   UNL     1       2.020   6.524   4.548  0.00  0.00    -0.464 OA
ATOM     28  C   UNL     1       2.878   7.236   5.478  0.00  0.00    +0.280 C 
ENDBRANCH  25  27
ENDBRANCH  21  25
ENDBRANCH  16  24
ENDBRANCH   1  16
TORSDOF 5
