REMARK  Name = ZINC22958951
REMARK  6 active torsions:
REMARK  status: ('A' for Active; 'I' for Inactive)
REMARK    1  A    between atoms: C_1  and  C_2
REMARK    2  A    between atoms: C_4  and  C_7
REMARK    3  A    between atoms: C_11  and  N_13
REMARK    4  A    between atoms: N_13  and  S_14
REMARK    5  A    between atoms: S_14  and  C_17
REMARK    6  A    between atoms: C_20  and  N_23
REMARK                            x       y       z     vdW  Elec       q    Type
REMARK                         _______ _______ _______ _____ _____    ______ ____
ROOT
ATOM      1  S   UNL     1       3.829  -1.955  -1.058  0.00  0.00    +0.072 S 
ATOM      2  O   UNL     1       5.037  -2.698  -0.960  0.00  0.00    -0.150 OA
ATOM      3  O   UNL     1       2.558  -2.527  -0.784  0.00  0.00    -0.150 OA
ENDROOT
BRANCH   1   4
ATOM      4  C   UNL     1       3.756  -1.329  -2.704  0.00  0.00    +0.109 A 
ATOM      5  C   UNL     1       2.534  -1.007  -3.265  0.00  0.00    +0.031 A 
ATOM      6  C   UNL     1       2.473  -0.512  -4.553  0.00  0.00    +0.030 A 
ATOM      7  C   UNL     1       3.640  -0.347  -5.288  0.00  0.00    +0.069 A 
ATOM      8  C   UNL     1       4.865  -0.676  -4.723  0.00  0.00    +0.030 A 
ATOM      9  C   UNL     1       4.920  -1.166  -3.433  0.00  0.00    +0.031 A 
BRANCH   7  10
ATOM     10  N   UNL     1       3.581   0.150  -6.594  0.00  0.00    -0.196 N 
ATOM     11  C   UNL     1       2.705  -0.374  -7.474  0.00  0.00    +0.292 A 
ATOM     12  O   UNL     1       1.961  -1.282  -7.136  0.00  0.00    -0.264 OA
ATOM     13  C   UNL     1       2.653   0.134  -8.787  0.00  0.00    +0.127 A 
ATOM     14  C   UNL     1       3.494   1.149  -9.141  0.00  0.00    +0.084 A 
ATOM     15  C   UNL     1       4.393   1.670  -8.198  0.00  0.00    +0.155 A 
ATOM     16  N   UNL     1       4.428   1.195  -6.982  0.00  0.00    -0.170 NA
ATOM     17 CL   UNL     1       3.451   1.793 -10.753  0.00  0.00    -0.080 Cl
ATOM     18 CL   UNL     1       1.534  -0.523  -9.940  0.00  0.00    -0.076 Cl
ENDBRANCH   7  10
ENDBRANCH   1   4
BRANCH   1  19
ATOM     19  N   UNL     1       3.991  -0.654  -0.046  0.00  0.00    -0.216 N 
ATOM     20  H   UNL     1       4.910  -0.529   0.546  0.00  0.00    +0.174 HD
BRANCH  19  25
ATOM     21  C   UNL     1       2.224   2.572   0.139  0.00  0.00    +0.003 A 
ATOM     22  C   UNL     1       0.905   2.136   0.258  0.00  0.00    +0.010 A 
ATOM     23  C   UNL     1       0.622   0.786   0.275  0.00  0.00    +0.002 A 
ATOM     24  C   UNL     1       1.643  -0.140   0.174  0.00  0.00    +0.024 A 
ATOM     25  C   UNL     1       2.961   0.284   0.055  0.00  0.00    +0.049 A 
ATOM     26  C   UNL     1       3.254   1.640   0.037  0.00  0.00    +0.034 A 
BRANCH  21  30
ATOM     27  C   UNL     1       5.371   6.412  -0.332  0.00  0.00    +0.073 C 
ATOM     28  C   UNL     1       4.041   5.739  -0.110  0.00  0.00    +0.076 A 
ATOM     29  N   UNL     1       3.762   4.459  -0.091  0.00  0.00    -0.244 NA
ATOM     30  C   UNL     1       2.530   4.023   0.119  0.00  0.00    +0.078 A 
ATOM     31  C   UNL     1       1.545   4.955   0.314  0.00  0.00    +0.075 A 
ATOM     32  S   UNL     1       2.492   6.465   0.187  0.00  0.00    -0.080 S 
ENDBRANCH  21  30
ENDBRANCH  19  25
ENDBRANCH   1  19
TORSDOF 5
