REMARK  Name = ZINC44942881
REMARK  6 active torsions:
REMARK  status: ('A' for Active; 'I' for Inactive)
REMARK    1  A    between atoms: C_4  and  C_7
REMARK    2  A    between atoms: C_7  and  O_8
REMARK    3  A    between atoms: O_8  and  C_9
REMARK    4  A    between atoms: C_15  and  N_17
REMARK    5  A    between atoms: C_18  and  C_20
REMARK    6  A    between atoms: C_26  and  C_28
REMARK                            x       y       z     vdW  Elec       q    Type
REMARK                         _______ _______ _______ _____ _____    ______ ____
ROOT
ATOM      1  C   UNL     1       2.628  -4.916   3.766  0.00  0.00    +0.087 C 
ATOM      2  C   UNL     1       3.053  -6.175   3.006  0.00  0.00    +0.013 C 
ATOM      3  C   UNL     1       1.895  -7.174   2.987  0.00  0.00    +0.001 C 
ATOM      4  C   UNL     1       1.520  -7.548   4.423  0.00  0.00    +0.001 C 
ATOM      5  C   UNL     1       1.095  -6.290   5.182  0.00  0.00    +0.013 C 
ATOM      6  C   UNL     1       2.253  -5.290   5.201  0.00  0.00    +0.087 C 
ENDROOT
BRANCH   6   7
ATOM      7  C   UNL     1       1.834  -4.050   5.950  0.00  0.00    +0.219 C 
ATOM      8  O   UNL     1       1.410  -3.090   5.343  0.00  0.00    -0.275 OA
ATOM      9  N   UNL     1       1.931  -4.010   7.293  0.00  0.00    -0.298 N 
ATOM     10  C   UNL     1       2.540  -5.123   8.034  0.00  0.00    +0.126 C 
ATOM     11  C   UNL     1       3.679  -4.571   8.900  0.00  0.00    +0.125 C 
ATOM     12  N   UNL     1       3.177  -3.412   9.651  0.00  0.00    -0.314 N 
ATOM     13  C   UNL     1       2.567  -2.298   8.911  0.00  0.00    +0.125 C 
ATOM     14  C   UNL     1       1.434  -2.848   8.044  0.00  0.00    +0.126 C 
ATOM     15  C   UNL     1       3.276  -3.369  11.037  0.00  0.00    +0.099 A 
ATOM     16  C   UNL     1       3.977  -4.367  11.709  0.00  0.00    +0.042 A 
ATOM     17  C   UNL     1       4.068  -4.312  13.088  0.00  0.00    +0.005 A 
ATOM     18  C   UNL     1       3.454  -3.259  13.752  0.00  0.00    +0.018 A 
ATOM     19  C   UNL     1       2.775  -2.304  13.022  0.00  0.00    +0.084 A 
ATOM     20  N   UNL     1       2.709  -2.378  11.706  0.00  0.00    -0.350 N 
ATOM     21  H   UNL     1       2.229  -1.691  11.217  0.00  0.00    +0.166 HD
ENDBRANCH   6   7
BRANCH   1  23
ATOM     22  N   UNL     1       4.270  -3.459   2.627  0.00  0.00    -0.310 N 
ATOM     23  C   UNL     1       3.769  -3.932   3.785  0.00  0.00    +0.217 C 
ATOM     24  O   UNL     1       4.236  -3.564   4.842  0.00  0.00    -0.275 OA
ATOM     25  H   UNL     1       3.897  -3.752   1.781  0.00  0.00    +0.149 HD
BRANCH  22  31
ATOM     26  C   UNL     1       5.357  -1.671   1.360  0.00  0.00    +0.139 C 
ATOM     27  C   UNL     1       6.515  -0.671   1.379  0.00  0.00    +0.033 C 
ATOM     28  C   UNL     1       7.841  -1.428   1.474  0.00  0.00    +0.003 C 
ATOM     29  C   UNL     1       7.863  -2.259   2.759  0.00  0.00    +0.002 C 
ATOM     30  C   UNL     1       6.705  -3.259   2.740  0.00  0.00    +0.025 C 
ATOM     31  C   UNL     1       5.379  -2.501   2.645  0.00  0.00    +0.102 C 
BRANCH  26  32
ATOM     32  O   UNL     1       4.118  -0.963   1.272  0.00  0.00    -0.370 OA
BRANCH  32  33
ATOM     33  C   UNL     1       3.679  -0.726  -0.067  0.00  0.00    +0.195 C 
BRANCH  33  37
ATOM     34  C   UNL     1      -0.029   1.395   0.003  0.00  0.00    +0.000 A 
ATOM     35  C   UNL     1       1.165   2.091  -0.018  0.00  0.00    +0.000 A 
ATOM     36  C   UNL     1       2.365   1.405  -0.040  0.00  0.00    +0.006 A 
ATOM     37  C   UNL     1       2.371   0.022  -0.042  0.00  0.00    -0.022 A 
ATOM     38  C   UNL     1       1.177  -0.674  -0.020  0.00  0.00    +0.006 A 
ATOM     39  C   UNL     1      -0.023   0.012   0.001  0.00  0.00    +0.000 A 
ENDBRANCH  33  37
ENDBRANCH  32  33
ENDBRANCH  26  32
ENDBRANCH  22  31
ENDBRANCH   1  23
TORSDOF 6
