REMARK  Name = ZINC28535522
REMARK  7 active torsions:
REMARK  status: ('A' for Active; 'I' for Inactive)
REMARK    1  A    between atoms: C_1  and  C_2
REMARK    2  A    between atoms: C_6  and  N_9
REMARK    3  A    between atoms: C_7  and  C_8
REMARK    4  A    between atoms: N_13  and  N_26
REMARK    5  A    between atoms: C_14  and  S_17
REMARK    6  A    between atoms: S_17  and  C_18
REMARK    7  A    between atoms: C_18  and  C_19
REMARK                            x       y       z     vdW  Elec       q    Type
REMARK                         _______ _______ _______ _____ _____    ______ ____
ROOT
ATOM      1  N   UNL     1       3.634  -0.434  -0.035  0.00  0.00    -0.293 N 
ATOM      2  C   UNL     1       2.373   0.164  -0.028  0.00  0.00    +0.212 A 
ATOM      3  C   UNL     1       1.199  -0.635  -0.040  0.00  0.00    +0.312 A 
ATOM      4  O   UNL     1       1.269  -1.853  -0.057  0.00  0.00    -0.262 OA
ATOM      5  N   UNL     1       0.002  -0.006  -0.032  0.00  0.00    -0.205 N 
ATOM      6  C   UNL     1      -0.018   1.359  -0.012  0.00  0.00    +0.210 A 
ATOM      7  N   UNL     1       1.108   2.046  -0.002  0.00  0.00    -0.121 NA
ATOM      8  N   UNL     1       2.259   1.474  -0.009  0.00  0.00    -0.126 NA
ATOM      9  H   UNL     1       3.725  -1.528   0.047  0.00  0.00    +0.154 HD
ENDROOT
BRANCH   1  15
ATOM     10  C   UNL     1       8.447   0.171   0.755  0.00  0.00    +0.044 C 
ATOM     11  C   UNL     1       7.128   0.674   0.227  0.00  0.00    -0.046 A 
ATOM     12  C   UNL     1       7.053   1.920  -0.369  0.00  0.00    +0.004 A 
ATOM     13  C   UNL     1       5.845   2.385  -0.855  0.00  0.00    +0.002 A 
ATOM     14  C   UNL     1       4.709   1.607  -0.746  0.00  0.00    +0.023 A 
ATOM     15  C   UNL     1       4.781   0.355  -0.147  0.00  0.00    +0.036 A 
ATOM     16  C   UNL     1       5.996  -0.107   0.344  0.00  0.00    -0.026 A 
ATOM     17  C   UNL     1       6.078  -1.462   1.000  0.00  0.00    +0.046 C 
ENDBRANCH   1  15
BRANCH   5  18
ATOM     18  N   UNL     1      -1.163  -0.720  -0.043  0.00  0.00    -0.293 N 
ATOM     19  H   UNL     1      -2.130  -0.196  -0.037  0.00  0.00    +0.163 HD
ATOM     20  H   UNL     1      -1.133  -1.819  -0.059  0.00  0.00    +0.163 HD
ENDBRANCH   5  18
BRANCH   6  21
ATOM     21  S   UNL     1      -1.560   2.211  -0.009  0.00  0.00    -0.080 S 
BRANCH  21  22
ATOM     22  C   UNL     1      -0.974   3.923   0.019  0.00  0.00    +0.112 C 
BRANCH  22  23
ATOM     23  C   UNL     1      -2.155   4.859   0.025  0.00  0.00    -0.037 A 
ATOM     24  C   UNL     1      -2.686   5.309  -1.169  0.00  0.00    +0.006 A 
ATOM     25  C   UNL     1      -3.773   6.163  -1.163  0.00  0.00    +0.020 A 
ATOM     26  C   UNL     1      -4.323   6.575   0.038  0.00  0.00    +0.041 A 
ATOM     27  C   UNL     1      -3.787   6.129   1.232  0.00  0.00    +0.020 A 
ATOM     28  C   UNL     1      -2.703   5.271   1.226  0.00  0.00    +0.006 A 
ATOM     29 CL   UNL     1      -5.684   7.653   0.045  0.00  0.00    -0.084 Cl
ENDBRANCH  22  23
ENDBRANCH  21  22
ENDBRANCH   6  21
TORSDOF 5
