REMARK  Name = ZINC37054888
REMARK  5 active torsions:
REMARK  status: ('A' for Active; 'I' for Inactive)
REMARK    1  A    between atoms: C_3  and  S_9
REMARK    2  A    between atoms: C_4  and  N_8
REMARK    3  A    between atoms: S_9  and  N_12
REMARK    4  A    between atoms: N_12  and  C_13
REMARK    5  A    between atoms: C_13  and  C_14
REMARK                            x       y       z     vdW  Elec       q    Type
REMARK                         _______ _______ _______ _____ _____    ______ ____
ROOT
ATOM      1  S   UNL     1       3.882   2.261   0.020  0.00  0.00    +0.061 S 
ATOM      2  O   UNL     1       4.728   1.651  -0.946  0.00  0.00    -0.153 OA
ATOM      3  O   UNL     1       3.405   3.592  -0.118  0.00  0.00    -0.153 OA
ENDROOT
BRANCH   1   6
ATOM      4  C   UNL     1       1.224  -0.706  -0.509  0.00  0.00    +0.017 A 
ATOM      5  C   UNL     1       2.339   0.105  -0.625  0.00  0.00    +0.031 A 
ATOM      6  C   UNL     1       2.461   1.230   0.167  0.00  0.00    +0.126 A 
ATOM      7  C   UNL     1       1.463   1.547   1.080  0.00  0.00    +0.052 A 
ATOM      8  C   UNL     1       0.345   0.732   1.193  0.00  0.00    +0.040 A 
ATOM      9  C   UNL     1       0.228  -0.393   0.399  0.00  0.00    +0.020 A 
ATOM     10 BR   UNL     1      -1.294  -1.504   0.552  0.00  0.00    -0.050 Br
BRANCH   7  11
ATOM     11  N   UNL     1       1.584   2.684   1.882  0.00  0.00    -0.356 N 
ATOM     12  H   UNL     1       2.335   3.287   1.759  0.00  0.00    +0.142 HD
ATOM     13  H   UNL     1       0.918   2.872   2.562  0.00  0.00    +0.142 HD
ENDBRANCH   7  11
ENDBRANCH   1   6
BRANCH   1  14
ATOM     14  N   UNL     1       4.688   2.194   1.465  0.00  0.00    -0.181 NA
ATOM     15  H   UNL     1       4.765   2.990   2.014  0.00  0.00    +0.149 HD
BRANCH  14  16
ATOM     16  C   UNL     1       5.284   0.933   1.914  0.00  0.00    +0.201 C 
BRANCH  16  17
ATOM     17  C   UNL     1       6.264   1.208   3.025  0.00  0.00    +0.226 C 
ATOM     18  O   UNL     1       6.447   2.345   3.404  0.00  0.00    -0.275 OA
ATOM     19  N   UNL     1       6.937   0.190   3.596  0.00  0.00    -0.328 N 
ATOM     20  H   UNL     1       6.791  -0.719   3.293  0.00  0.00    +0.145 HD
ATOM     21  H   UNL     1       7.568   0.367   4.312  0.00  0.00    +0.145 HD
ENDBRANCH  16  17
ENDBRANCH  14  16
ENDBRANCH   1  14
TORSDOF 5
