REMARK  Name = ZINC33786038
REMARK  4 active torsions:
REMARK  status: ('A' for Active; 'I' for Inactive)
REMARK    1  A    between atoms: C_1  and  N_2
REMARK    2  A    between atoms: C_5  and  C_10
REMARK    3  A    between atoms: N_17  and  C_19
REMARK    4  A    between atoms: C_19  and  C_20
REMARK                            x       y       z     vdW  Elec       q    Type
REMARK                         _______ _______ _______ _____ _____    ______ ____
ROOT
ATOM      1  C   UNL     1       1.472   3.583   3.084  0.00  0.00    +0.139 C 
ATOM      2  N   UNL     1       0.967   2.719   2.014  0.00  0.00    -0.260 N 
ATOM      3  C   UNL     1       1.823   2.366   1.011  0.00  0.00    +0.042 C 
ATOM      4  C   UNL     1       1.422   1.573  -0.003  0.00  0.00    +0.061 C 
ATOM      5  C   UNL     1      -0.013   1.086   0.008  0.00  0.00    +0.177 C 
ATOM      6  N   UNL     1      -0.856   1.522   1.134  0.00  0.00    -0.285 N 
ATOM      7  C   UNL     1      -0.310   2.318   2.074  0.00  0.00    +0.307 C 
ATOM      8  O   UNL     1      -0.999   2.684   3.007  0.00  0.00    -0.252 OA
ATOM      9  C   UNL     1       2.484   1.355  -0.905  0.00  0.00    +0.247 C 
ATOM     10  O   UNL     1       2.404   0.676  -1.912  0.00  0.00    -0.270 OA
ATOM     11  N   UNL     1       3.599   1.995  -0.506  0.00  0.00    -0.288 N 
ATOM     12  C   UNL     1       3.275   2.694   0.747  0.00  0.00    +0.160 C 
ATOM     13  H   UNL     1      -1.906   1.198   1.192  0.00  0.00    +0.151 HD
ENDROOT
BRANCH   5  14
ATOM     14  C   UNL     1      -0.669   1.545  -1.269  0.00  0.00    +0.130 A 
ATOM     15  C   UNL     1      -0.807   0.813  -2.389  0.00  0.00    +0.047 A 
ATOM     16  C   UNL     1      -1.476   1.629  -3.331  0.00  0.00    +0.041 A 
ATOM     17  C   UNL     1      -1.705   2.810  -2.730  0.00  0.00    +0.195 A 
ATOM     18  O   UNL     1      -1.220   2.751  -1.479  0.00  0.00    -0.466 OA
ENDBRANCH   5  14
BRANCH  11  19
ATOM     19  C   UNL     1       4.893   1.996  -1.193  0.00  0.00    +0.143 C 
BRANCH  19  20
ATOM     20  C   UNL     1       4.942   3.142  -2.170  0.00  0.00    -0.030 A 
ATOM     21  C   UNL     1       4.518   2.958  -3.473  0.00  0.00    +0.008 A 
ATOM     22  C   UNL     1       4.558   4.010  -4.368  0.00  0.00    +0.038 A 
ATOM     23  C   UNL     1       5.034   5.246  -3.963  0.00  0.00    +0.123 A 
ATOM     24  C   UNL     1       5.463   5.427  -2.659  0.00  0.00    +0.038 A 
ATOM     25  C   UNL     1       5.418   4.375  -1.764  0.00  0.00    +0.008 A 
ATOM     26  F   UNL     1       5.078   6.273  -4.839  0.00  0.00    -0.205 F 
ENDBRANCH  19  20
ENDBRANCH  11  19
TORSDOF 3
