REMARK  Name = ZINC04556434
REMARK  7 active torsions:
REMARK  status: ('A' for Active; 'I' for Inactive)
REMARK    1  A    between atoms: C_1  and  O_2
REMARK    2  A    between atoms: O_2  and  C_3
REMARK    3  A    between atoms: C_7  and  C_10
REMARK    4  A    between atoms: C_8  and  O_9
REMARK    5  A    between atoms: C_21  and  C_22
REMARK    6  A    between atoms: C_21  and  N_53
REMARK    7  A    between atoms: C_28  and  O_30
REMARK                            x       y       z     vdW  Elec       q    Type
REMARK                         _______ _______ _______ _____ _____    ______ ____
ROOT
ATOM      1  C   UNL     1      -2.514   0.976   0.020  0.00  0.00    +0.227 C 
ATOM      2  N   UNL     1      -2.276  -0.358   0.601  0.00  0.00    -0.313 N 
ATOM      3  C   UNL     1      -2.326  -0.444   1.971  0.00  0.00    +0.080 A 
ATOM      4  C   UNL     1      -3.047   0.466   2.755  0.00  0.00    +0.067 A 
ATOM      5  C   UNL     1      -3.009   0.236   4.186  0.00  0.00    -0.027 A 
ATOM      6  C   UNL     1      -2.275  -0.829   4.590  0.00  0.00    -0.021 A 
ATOM      7  S   UNL     1      -1.634  -1.532   3.096  0.00  0.00    -0.080 S 
ATOM      8  C   UNL     1      -2.069  -1.283   6.001  0.00  0.00    -0.035 C 
ATOM      9  C   UNL     1      -3.819   0.308   6.524  0.00  0.00    -0.073 C 
ATOM     10  C   UNL     1      -3.728   1.100   5.217  0.00  0.00    +0.018 C 
ATOM     11  C   UNL     1      -3.760   1.560   2.045  0.00  0.00    +0.220 C 
ATOM     12  N   UNL     1      -3.512   1.723   0.775  0.00  0.00    -0.223 NA
ATOM     13  H   UNL     1      -2.094  -1.132   0.046  0.00  0.00    +0.149 HD
ATOM     14  N   UNL     1      -2.474  -0.175   6.899  0.00  0.00    +0.386 N 
ATOM     15  H   UNL     1      -1.803   0.596   6.803  0.00  0.00    -0.081 HD
ENDROOT
BRANCH   1  20
ATOM     16  C   UNL     1      -0.044   3.845   0.022  0.00  0.00    +0.162 A 
ATOM     17  C   UNL     1       1.163   3.164   0.007  0.00  0.00    +0.049 A 
ATOM     18  C   UNL     1       1.176   1.782   0.000  0.00  0.00    +0.004 A 
ATOM     19  C   UNL     1      -0.013   1.076   0.008  0.00  0.00    +0.011 A 
ATOM     20  C   UNL     1      -1.220   1.749   0.017  0.00  0.00    +0.040 A 
ATOM     21  C   UNL     1      -1.240   3.135   0.030  0.00  0.00    +0.165 A 
BRANCH  16  23
ATOM     22  C   UNL     1       1.207   5.868   0.020  0.00  0.00    +0.277 C 
ATOM     23  O   UNL     1      -0.059   5.205   0.029  0.00  0.00    -0.491 OA
ENDBRANCH  16  23
BRANCH  21  24
ATOM     24  O   UNL     1      -2.427   3.799   0.044  0.00  0.00    -0.503 OA
ATOM     25  H   UNL     1      -2.779   3.995  -0.835  0.00  0.00    +0.292 HD
ENDBRANCH  21  24
ENDBRANCH   1  20
BRANCH  11  26
ATOM     26  O   UNL     1      -4.636   2.360   2.695  0.00  0.00    -0.492 OA
ATOM     27  H   UNL     1      -5.040   3.037   2.135  0.00  0.00    +0.294 HD
ENDBRANCH  11  26
BRANCH  14  28
ATOM     28  C   UNL     1      -2.476  -0.638   8.304  0.00  0.00    -0.043 C 
BRANCH  28  29
ATOM     29  C   UNL     1      -3.526  -1.700   8.507  0.00  0.00    -0.064 A 
ATOM     30  C   UNL     1      -4.808  -1.343   8.880  0.00  0.00    +0.002 A 
ATOM     31  C   UNL     1      -5.772  -2.317   9.062  0.00  0.00    +0.000 A 
ATOM     32  C   UNL     1      -5.451  -3.649   8.879  0.00  0.00    +0.000 A 
ATOM     33  C   UNL     1      -4.168  -4.007   8.510  0.00  0.00    +0.000 A 
ATOM     34  C   UNL     1      -3.205  -3.032   8.324  0.00  0.00    +0.002 A 
ENDBRANCH  28  29
ENDBRANCH  14  28
TORSDOF 6
