REMARK  Name = ZINC39697610
REMARK  6 active torsions:
REMARK  status: ('A' for Active; 'I' for Inactive)
REMARK    1  A    between atoms: C_1  and  C_2
REMARK    2  A    between atoms: C_14  and  S_16
REMARK    3  A    between atoms: S_16  and  C_17
REMARK    4  A    between atoms: C_17  and  C_18
REMARK    5  A    between atoms: N_20  and  C_21
REMARK    6  A    between atoms: C_24  and  C_28
REMARK                            x       y       z     vdW  Elec       q    Type
REMARK                         _______ _______ _______ _____ _____    ______ ____
ROOT
ATOM      1  C   UNL     1      -0.100   1.476   0.038  0.00  0.00    +0.044 C 
ATOM      2  C   UNL     1      -0.069  -0.030   0.028  0.00  0.00    -0.050 A 
ATOM      3  C   UNL     1      -0.066  -0.697  -1.205  0.00  0.00    +0.005 A 
ATOM      4  C   UNL     1      -0.045  -2.047  -1.285  0.00  0.00    +0.026 A 
ATOM      5  C   UNL     1      -0.025  -2.838  -0.049  0.00  0.00    +0.046 A 
ATOM      6  N   UNL     1       0.029  -4.132   0.160  0.00  0.00    -0.358 N 
ATOM      7  C   UNL     1      -0.102  -4.383   1.585  0.00  0.00    +0.252 C 
ATOM      8  C   UNL     1       0.022  -3.026   2.257  0.00  0.00    +0.117 C 
ATOM      9  C   UNL     1      -0.017  -2.102   1.241  0.00  0.00    +0.025 A 
ATOM     10  C   UNL     1      -0.040  -0.689   1.209  0.00  0.00    +0.015 A 
ATOM     11  N   UNL     1       0.263  -2.910   3.565  0.00  0.00    -0.147 NA
ATOM     12  N   UNL     1       0.901  -3.903   4.107  0.00  0.00    -0.122 NA
ATOM     13  C   UNL     1       1.349  -4.955   3.378  0.00  0.00    +0.208 C 
ATOM     14  N   UNL     1       0.944  -5.228   2.159  0.00  0.00    -0.227 NA
ATOM     15  H   UNL     1       0.138  -4.810  -0.525  0.00  0.00    +0.162 HD
ENDROOT
BRANCH  13  16
ATOM     16  S   UNL     1       2.543  -6.022   4.112  0.00  0.00    -0.075 S 
BRANCH  16  17
ATOM     17  C   UNL     1       2.864  -7.267   2.832  0.00  0.00    +0.173 C 
BRANCH  17  18
ATOM     18  C   UNL     1       3.883  -8.256   3.337  0.00  0.00    +0.228 C 
ATOM     19  O   UNL     1       4.347  -8.133   4.451  0.00  0.00    -0.275 OA
ATOM     20  N   UNL     1       4.279  -9.277   2.551  0.00  0.00    -0.284 N 
ATOM     21  H   UNL     1       3.861  -9.413   1.686  0.00  0.00    +0.155 HD
BRANCH  20  22
ATOM     22  C   UNL     1       5.293 -10.140   2.982  0.00  0.00    +0.047 A 
ATOM     23  C   UNL     1       5.406 -10.462   4.328  0.00  0.00    +0.024 A 
ATOM     24  C   UNL     1       6.408 -11.314   4.750  0.00  0.00    +0.005 A 
ATOM     25  C   UNL     1       7.297 -11.847   3.835  0.00  0.00    -0.049 A 
ATOM     26  C   UNL     1       7.187 -11.528   2.494  0.00  0.00    +0.020 A 
ATOM     27  C   UNL     1       6.184 -10.681   2.064  0.00  0.00    +0.039 A 
ATOM     28 BR   UNL     1       6.029 -10.251   0.229  0.00  0.00    -0.048 Br
ATOM     29  C   UNL     1       8.388 -12.776   4.300  0.00  0.00    +0.044 C 
ENDBRANCH  20  22
ENDBRANCH  17  18
ENDBRANCH  16  17
ENDBRANCH  13  16
TORSDOF 4
