REMARK  Name = ZINC39609434
REMARK  8 active torsions:
REMARK  status: ('A' for Active; 'I' for Inactive)
REMARK    1  A    between atoms: C_1  and  C_2
REMARK    2  A    between atoms: C_2  and  O_3
REMARK    3  A    between atoms: O_3  and  C_4
REMARK    4  A    between atoms: C_8  and  C_10
REMARK    5  A    between atoms: C_10  and  C_11
REMARK    6  A    between atoms: C_11  and  N_12
REMARK    7  A    between atoms: C_13  and  C_15
REMARK    8  A    between atoms: C_26  and  C_28
REMARK                            x       y       z     vdW  Elec       q    Type
REMARK                         _______ _______ _______ _____ _____    ______ ____
ROOT
ATOM      1  C   UNL     1      -8.036  -5.383   2.764  0.00  0.00    +0.100 C 
ATOM      2  C   UNL     1      -9.206  -4.637   2.084  0.00  0.00    +0.121 C 
ATOM      3  N   UNL     1     -10.385  -4.942   2.929  0.00  0.00    -0.296 N 
ATOM      4  C   UNL     1      -9.866  -4.897   4.317  0.00  0.00    +0.115 C 
ATOM      5  C   UNL     1      -8.472  -5.551   4.229  0.00  0.00    -0.004 C 
ATOM      6  C   UNL     1      -8.561  -7.031   4.587  0.00  0.00    -0.010 C 
ATOM      7  C   UNL     1      -8.941  -7.172   6.064  0.00  0.00    -0.082 C 
ATOM      8  N   UNL     1      -7.933  -6.505   6.897  0.00  0.00    +0.379 N 
ATOM      9  C   UNL     1      -7.919  -5.066   6.611  0.00  0.00    -0.082 C 
ATOM     10  C   UNL     1      -7.495  -4.836   5.157  0.00  0.00    -0.010 C 
ATOM     11  C   UNL     1     -11.645  -5.201   2.526  0.00  0.00    +0.247 C 
ATOM     12  O   UNL     1     -11.891  -5.327   1.342  0.00  0.00    -0.270 OA
ATOM     13  H   UNL     1      -8.152  -6.651   7.870  0.00  0.00    -0.086 HD
ATOM     14  H   UNL     1      -7.023  -6.895   6.698  0.00  0.00    -0.086 HD
ENDROOT
BRANCH  11  15
ATOM     15  C   UNL     1     -12.727  -5.331   3.524  0.00  0.00    +0.037 A 
ATOM     16  C   UNL     1     -12.574  -4.758   4.799  0.00  0.00    +0.013 A 
ATOM     17  C   UNL     1     -13.554  -4.864   5.732  0.00  0.00    +0.009 A 
ATOM     18  C   UNL     1     -14.742  -5.554   5.430  0.00  0.00    -0.018 A 
ATOM     19  C   UNL     1     -15.770  -5.677   6.379  0.00  0.00    +0.008 A 
ATOM     20  C   UNL     1     -16.909  -6.351   6.058  0.00  0.00    +0.001 A 
ATOM     21  C   UNL     1     -17.073  -6.923   4.798  0.00  0.00    +0.001 A 
ATOM     22  C   UNL     1     -16.099  -6.825   3.852  0.00  0.00    +0.008 A 
ATOM     23  C   UNL     1     -14.909  -6.136   4.148  0.00  0.00    -0.017 A 
ATOM     24  C   UNL     1     -13.887  -6.011   3.194  0.00  0.00    +0.021 A 
ENDBRANCH  11  15
BRANCH   1  26
ATOM     25  N   UNL     1      -5.574  -5.176   2.636  0.00  0.00    -0.315 N 
ATOM     26  C   UNL     1      -6.774  -4.563   2.683  0.00  0.00    +0.218 C 
ATOM     27  O   UNL     1      -6.838  -3.352   2.661  0.00  0.00    -0.275 OA
ATOM     28  H   UNL     1      -5.523  -6.144   2.653  0.00  0.00    +0.149 HD
BRANCH  25  29
ATOM     29  C   UNL     1      -4.347  -4.379   2.557  0.00  0.00    +0.109 C 
BRANCH  29  30
ATOM     30  C   UNL     1      -3.135  -5.311   2.516  0.00  0.00    +0.054 C 
BRANCH  30  35
ATOM     31  C   UNL     1      -0.194  -3.387   1.129  0.00  0.00    +0.121 A 
ATOM     32  C   UNL     1       0.446  -2.986   2.294  0.00  0.00    +0.045 A 
ATOM     33  C   UNL     1      -0.076  -3.339   3.523  0.00  0.00    +0.004 A 
ATOM     34  C   UNL     1      -1.235  -4.091   3.594  0.00  0.00    +0.004 A 
ATOM     35  C   UNL     1      -1.873  -4.492   2.435  0.00  0.00    -0.042 A 
ATOM     36  C   UNL     1      -1.359  -4.136   1.203  0.00  0.00    +0.049 A 
BRANCH  31  37
ATOM     37  O   UNL     1       0.317  -3.041  -0.081  0.00  0.00    -0.492 OA
BRANCH  37  39
ATOM     38  C   UNL     1       1.939  -1.977  -1.523  0.00  0.00    +0.048 C 
ATOM     39  C   UNL     1       1.520  -2.268  -0.081  0.00  0.00    +0.225 C 
ENDBRANCH  37  39
ENDBRANCH  31  37
ENDBRANCH  30  35
ENDBRANCH  29  30
ENDBRANCH  25  29
ENDBRANCH   1  26
TORSDOF 7
