REMARK  Name = ZINC08871844
REMARK  8 active torsions:
REMARK  status: ('A' for Active; 'I' for Inactive)
REMARK    1  A    between atoms: C_4  and  C_7
REMARK    2  A    between atoms: C_7  and  C_9
REMARK    3  A    between atoms: C_10  and  O_31
REMARK    4  A    between atoms: N_13  and  C_23
REMARK    5  A    between atoms: C_14  and  C_16
REMARK    6  A    between atoms: C_23  and  C_24
REMARK    7  A    between atoms: C_24  and  C_25
REMARK    8  A    between atoms: C_25  and  N_56
REMARK                            x       y       z     vdW  Elec       q    Type
REMARK                         _______ _______ _______ _____ _____    ______ ____
ROOT
ATOM      1  C   UNL     1      -2.665  -6.444  -0.300  0.00  0.00    +0.071 C 
ATOM      2  C   UNL     1      -2.417  -5.782  -1.455  0.00  0.00    +0.188 C 
ATOM      3  C   UNL     1      -2.677  -4.341  -1.254  0.00  0.00    +0.282 C 
ATOM      4  O   UNL     1      -2.551  -3.485  -2.106  0.00  0.00    -0.267 OA
ATOM      5  N   UNL     1      -3.073  -4.118   0.012  0.00  0.00    -0.284 N 
ATOM      6  C   UNL     1      -3.102  -5.409   0.710  0.00  0.00    +0.144 C 
ENDROOT
BRANCH   6   7
ATOM      7  C   UNL     1      -4.500  -5.709   1.187  0.00  0.00    -0.021 A 
ATOM      8  C   UNL     1      -4.701  -6.231   2.451  0.00  0.00    +0.006 A 
ATOM      9  C   UNL     1      -5.983  -6.507   2.890  0.00  0.00    +0.001 A 
ATOM     10  C   UNL     1      -7.064  -6.259   2.064  0.00  0.00    +0.015 A 
ATOM     11  C   UNL     1      -6.863  -5.737   0.800  0.00  0.00    +0.018 A 
ATOM     12  C   UNL     1      -5.580  -5.457   0.363  0.00  0.00    +0.021 A 
ATOM     13 BR   UNL     1      -8.341  -5.399  -0.330  0.00  0.00    -0.050 Br
ENDBRANCH   6   7
BRANCH   1  14
ATOM     14  C   UNL     1      -2.535  -7.886  -0.074  0.00  0.00    +0.195 C 
ATOM     15  O   UNL     1      -3.247  -8.664  -0.681  0.00  0.00    -0.287 OA
BRANCH  14  19
ATOM     16  C   UNL     1       0.328  -9.351   2.702  0.00  0.00    +0.000 A 
ATOM     17  C   UNL     1      -0.558 -10.227   2.100  0.00  0.00    +0.001 A 
ATOM     18  C   UNL     1      -1.491  -9.758   1.198  0.00  0.00    +0.012 A 
ATOM     19  C   UNL     1      -1.538  -8.396   0.892  0.00  0.00    +0.022 A 
ATOM     20  C   UNL     1      -0.637  -7.519   1.499  0.00  0.00    +0.012 A 
ATOM     21  C   UNL     1       0.286  -8.000   2.404  0.00  0.00    +0.001 A 
ENDBRANCH  14  19
ENDBRANCH   1  14
BRANCH   2  22
ATOM     22  O   UNL     1      -2.001  -6.351  -2.610  0.00  0.00    -0.502 OA
ATOM     23  H   UNL     1      -1.892  -5.644  -3.309  0.00  0.00    +0.292 HD
ENDBRANCH   2  22
BRANCH   5  24
ATOM     24  C   UNL     1      -3.420  -2.818   0.590  0.00  0.00    +0.107 C 
BRANCH  24  25
ATOM     25  C   UNL     1      -2.169  -2.178   1.194  0.00  0.00    +0.000 C 
BRANCH  25  26
ATOM     26  C   UNL     1      -2.531  -0.820   1.798  0.00  0.00    -0.077 C 
BRANCH  26  32
ATOM     27  C   UNL     1      -1.583   1.193   2.755  0.00  0.00    -0.050 C 
ATOM     28  C   UNL     1      -0.291   1.811   3.299  0.00  0.00    +0.141 C 
ATOM     29  O   UNL     1       0.178   1.030   4.401  0.00  0.00    -0.383 OA
ATOM     30  C   UNL     1       0.435  -0.338   4.069  0.00  0.00    +0.141 C 
ATOM     31  C   UNL     1      -0.849  -0.977   3.534  0.00  0.00    -0.050 C 
ATOM     32  N   UNL     1      -1.309  -0.205   2.361  0.00  0.00    +0.383 N 
ATOM     33  H   UNL     1      -0.573  -0.213   1.646  0.00  0.00    -0.082 HD
ENDBRANCH  26  32
ENDBRANCH  25  26
ENDBRANCH  24  25
ENDBRANCH   5  24
TORSDOF 8
