REMARK  Name = ZINC09381929
REMARK  6 active torsions:
REMARK  status: ('A' for Active; 'I' for Inactive)
REMARK    1  A    between atoms: C_1  and  C_2
REMARK    2  A    between atoms: N_5  and  S_11
REMARK    3  A    between atoms: C_7  and  C_10
REMARK    4  A    between atoms: S_11  and  C_14
REMARK    5  A    between atoms: C_17  and  C_20
REMARK    6  A    between atoms: N_22  and  N_23
REMARK                            x       y       z     vdW  Elec       q    Type
REMARK                         _______ _______ _______ _____ _____    ______ ____
ROOT
ATOM      1  C   UNL     1       4.854  -0.418  -0.046  0.00  0.00    +0.106 A 
ATOM      2  C   UNL     1       4.838   0.966  -0.038  0.00  0.00    +0.029 A 
ATOM      3  C   UNL     1       3.638   1.645  -0.024  0.00  0.00    +0.015 A 
ATOM      4  C   UNL     1       2.437   0.934  -0.016  0.00  0.00    +0.038 A 
ATOM      5  C   UNL     1       2.459  -0.462  -0.018  0.00  0.00    +0.015 A 
ATOM      6  C   UNL     1       3.667  -1.129  -0.039  0.00  0.00    +0.029 A 
ENDROOT
BRANCH   4   7
ATOM      7  C   UNL     1       1.147   1.655   0.000  0.00  0.00    +0.260 C 
ATOM      8  O   UNL     1       1.130   2.871   0.007  0.00  0.00    -0.269 OA
ATOM      9  N   UNL     1      -0.011   0.966   0.007  0.00  0.00    -0.231 N 
ATOM     10  H   UNL     1       0.002  -0.004   0.002  0.00  0.00    +0.173 HD
BRANCH   9  11
ATOM     11  N   UNL     1      -1.234   1.650   0.017  0.00  0.00    -0.242 N 
ATOM     12  C   UNL     1      -2.420   0.943   0.019  0.00  0.00    +0.176 A 
ATOM     13  N   UNL     1      -2.604  -0.357   0.007  0.00  0.00    -0.221 NA
ATOM     14  C   UNL     1      -3.837  -0.915   0.014  0.00  0.00    +0.116 A 
ATOM     15  C   UNL     1      -4.171  -2.291   0.008  0.00  0.00    +0.152 A 
ATOM     16  C   UNL     1      -5.484  -2.693   0.012  0.00  0.00    +0.079 A 
ATOM     17  C   UNL     1      -6.524  -1.772   0.022  0.00  0.00    +0.127 A 
ATOM     18  C   UNL     1      -6.230  -0.419   0.028  0.00  0.00    +0.055 A 
ATOM     19  C   UNL     1      -4.919  -0.009   0.025  0.00  0.00    +0.046 A 
ATOM     20  S   UNL     1      -4.096   1.565   0.030  0.00  0.00    -0.051 S 
ATOM     21  F   UNL     1      -7.808  -2.192   0.026  0.00  0.00    -0.205 F 
ATOM     22  F   UNL     1      -3.189  -3.217  -0.002  0.00  0.00    -0.203 F 
ATOM     23  H   UNL     1      -1.247   2.620   0.022  0.00  0.00    +0.172 HD
ENDBRANCH   9  11
ENDBRANCH   4   7
BRANCH   1  24
ATOM     24  S   UNL     1       6.391  -1.278  -0.065  0.00  0.00    +0.061 S 
ATOM     25  O   UNL     1       6.133  -2.560  -0.621  0.00  0.00    -0.153 OA
ATOM     26  O   UNL     1       7.348  -0.387  -0.621  0.00  0.00    -0.153 OA
BRANCH  24  30
ATOM     27  C   UNL     1       5.533  -3.562   4.422  0.00  0.00    +0.039 C 
ATOM     28  C   UNL     1       5.796  -2.320   3.568  0.00  0.00    +0.131 C 
ATOM     29  C   UNL     1       6.420  -2.740   2.232  0.00  0.00    +0.140 C 
ATOM     30  N   UNL     1       6.834  -1.526   1.511  0.00  0.00    -0.172 NA
ATOM     31  C   UNL     1       7.657  -0.541   2.231  0.00  0.00    +0.140 C 
ATOM     32  C   UNL     1       6.968  -0.225   3.568  0.00  0.00    +0.131 C 
ATOM     33  O   UNL     1       6.697  -1.449   4.256  0.00  0.00    -0.371 OA
ATOM     34  C   UNL     1       5.655   0.516   3.308  0.00  0.00    +0.039 C 
ENDBRANCH  24  30
ENDBRANCH   1  24
TORSDOF 4
