REMARK  Name = ZINC23340011
REMARK  5 active torsions:
REMARK  status: ('A' for Active; 'I' for Inactive)
REMARK    1  A    between atoms: C_1  and  N_2
REMARK    2  A    between atoms: C_3  and  C_5
REMARK    3  A    between atoms: C_8  and  C_10
REMARK    4  A    between atoms: N_15  and  C_16
REMARK    5  A    between atoms: C_16  and  C_17
REMARK                            x       y       z     vdW  Elec       q    Type
REMARK                         _______ _______ _______ _____ _____    ______ ____
ROOT
ATOM      1  C   UNL     1      -5.253  -1.911   0.042  0.00  0.00    -0.030 C 
ATOM      2  C   UNL     1      -5.804  -1.723   1.467  0.00  0.00    -0.012 C 
ATOM      3  C   UNL     1      -6.859  -0.599   1.347  0.00  0.00    -0.020 C 
ATOM      4  C   UNL     1      -7.234  -0.635  -0.156  0.00  0.00    -0.078 C 
ATOM      5  N   UNL     1      -5.938  -0.926  -0.822  0.00  0.00    +0.387 N 
ATOM      6  H   UNL     1      -5.333  -0.017  -0.955  0.00  0.00    -0.080 HD
ENDROOT
BRANCH   1  10
ATOM      7  C   UNL     1      -1.257  -0.754   0.010  0.00  0.00    +0.074 A 
ATOM      8  C   UNL     1      -1.457  -2.126   0.005  0.00  0.00    +0.021 A 
ATOM      9  C   UNL     1      -2.757  -2.568   0.015  0.00  0.00    +0.010 A 
ATOM     10  C   UNL     1      -3.767  -1.659   0.029  0.00  0.00    -0.023 A 
ATOM     11  S   UNL     1      -2.932  -0.140   0.037  0.00  0.00    -0.090 S 
BRANCH   7  14
ATOM     12  C   UNL     1       1.242   2.093   0.001  0.00  0.00    +0.128 C 
ATOM     13  N   UNL     1      -0.016   1.344   0.009  0.00  0.00    -0.314 N 
ATOM     14  C   UNL     1       0.002  -0.004   0.002  0.00  0.00    +0.250 C 
ATOM     15  O   UNL     1       1.064  -0.598  -0.011  0.00  0.00    -0.270 OA
ATOM     16  H   UNL     1      -0.976   1.881   0.021  0.00  0.00    +0.149 HD
ENDBRANCH   7  14
ENDBRANCH   1  10
BRANCH   5  17
ATOM     17  C   UNL     1      -6.149  -1.466  -2.172  0.00  0.00    -0.043 C 
BRANCH  17  18
ATOM     18  C   UNL     1      -7.058  -0.545  -2.945  0.00  0.00    -0.049 C 
ATOM     19  C   UNL     1      -6.537   0.387  -3.738  0.00  0.00    +0.012 C 
ATOM     20  C   UNL     1      -7.459   1.292  -4.455  0.00  0.00    +0.018 A 
ATOM     21  C   UNL     1      -7.026   2.074  -5.521  0.00  0.00    +0.031 A 
ATOM     22  C   UNL     1      -7.929   2.883  -6.184  0.00  0.00    +0.042 A 
ATOM     23  C   UNL     1      -9.257   2.916  -5.791  0.00  0.00    +0.023 A 
ATOM     24  C   UNL     1      -9.694   2.147  -4.727  0.00  0.00    +0.048 A 
ATOM     25  C   UNL     1      -8.800   1.337  -4.051  0.00  0.00    +0.128 A 
ATOM     26  O   UNL     1      -9.193   0.582  -2.993  0.00  0.00    -0.487 OA
ATOM     27  C   UNL     1      -8.552  -0.680  -2.812  0.00  0.00    +0.258 C 
ATOM     28 CL   UNL     1      -7.397   3.863  -7.515  0.00  0.00    -0.084 Cl
ENDBRANCH  17  18
ENDBRANCH   5  17
TORSDOF 4
