REMARK  Name = ZINC02415458
REMARK  6 active torsions:
REMARK  status: ('A' for Active; 'I' for Inactive)
REMARK    1  A    between atoms: C_1  and  C_2
REMARK    2  A    between atoms: C_3  and  C_23
REMARK    3  A    between atoms: N_9  and  C_22
REMARK    4  A    between atoms: C_10  and  S_12
REMARK    5  A    between atoms: S_12  and  C_13
REMARK    6  A    between atoms: C_13  and  C_14
REMARK                            x       y       z     vdW  Elec       q    Type
REMARK                         _______ _______ _______ _____ _____    ______ ____
ROOT
ATOM      1  C   UNL     1       0.868   6.904   0.031  0.00  0.00    +0.045 C 
ATOM      2  C   UNL     1      -0.293   5.943   0.037  0.00  0.00    -0.026 A 
ATOM      3  C   UNL     1      -1.553   6.402   0.052  0.00  0.00    -0.008 A 
ATOM      4  S   UNL     1      -2.536   4.915   0.053  0.00  0.00    -0.073 S 
ATOM      5  C   UNL     1      -1.225   3.719   0.034  0.00  0.00    +0.117 A 
ATOM      6  C   UNL     1      -0.060   4.509   0.027  0.00  0.00    +0.075 A 
ATOM      7  C   UNL     1       1.177   3.793   0.011  0.00  0.00    +0.263 A 
ATOM      8  O   UNL     1       2.238   4.393   0.004  0.00  0.00    -0.267 OA
ATOM      9  N   UNL     1       1.156   2.447   0.004  0.00  0.00    -0.290 N 
ATOM     10  C   UNL     1      -0.022   1.758   0.012  0.00  0.00    +0.173 A 
ATOM     11  N   UNL     1      -1.177   2.392   0.021  0.00  0.00    -0.216 NA
ATOM     12  C   UNL     1       2.421   1.708  -0.012  0.00  0.00    +0.154 C 
ATOM     13  C   UNL     1      -2.026   7.833   0.065  0.00  0.00    +0.052 C 
ENDROOT
BRANCH  10  14
ATOM     14  S   UNL     1       0.002  -0.004   0.002  0.00  0.00    -0.083 S 
BRANCH  14  15
ATOM     15  C   UNL     1      -1.776  -0.343   0.017  0.00  0.00    +0.112 C 
BRANCH  15  16
ATOM     16  C   UNL     1      -2.004  -1.832   0.011  0.00  0.00    -0.036 A 
ATOM     17  C   UNL     1      -2.125  -2.508  -1.189  0.00  0.00    +0.006 A 
ATOM     18  C   UNL     1      -2.329  -3.875  -1.196  0.00  0.00    +0.022 A 
ATOM     19  C   UNL     1      -2.422  -4.566  -0.001  0.00  0.00    +0.059 A 
ATOM     20  C   UNL     1      -2.306  -3.889   1.201  0.00  0.00    +0.060 A 
ATOM     21  C   UNL     1      -2.097  -2.521   1.206  0.00  0.00    +0.026 A 
ATOM     22 CL   UNL     1      -2.422  -4.755   2.701  0.00  0.00    -0.082 Cl
ATOM     23 CL   UNL     1      -2.684  -6.282  -0.009  0.00  0.00    -0.082 Cl
ENDBRANCH  15  16
ENDBRANCH  14  15
ENDBRANCH  10  14
TORSDOF 3
