REMARK  Name = ZINC34756477
REMARK  5 active torsions:
REMARK  status: ('A' for Active; 'I' for Inactive)
REMARK    1  A    between atoms: C_6  and  C_7
REMARK    2  A    between atoms: C_7  and  N_8
REMARK    3  A    between atoms: C_21  and  S_23
REMARK    4  A    between atoms: S_23  and  C_24
REMARK    5  A    between atoms: C_24  and  C_25
REMARK                            x       y       z     vdW  Elec       q    Type
REMARK                         _______ _______ _______ _____ _____    ______ ____
ROOT
ATOM      1  N   UNL     1      -0.981  -0.542  -2.373  0.00  0.00    +0.384 N 
ATOM      2  C   UNL     1      -1.213  -0.494  -3.822  0.00  0.00    -0.059 C 
ATOM      3  C   UNL     1      -2.547  -1.173  -4.148  0.00  0.00    +0.088 C 
ATOM      4  N   UNL     1      -2.530  -2.530  -3.580  0.00  0.00    -0.318 N 
ATOM      5  C   UNL     1      -2.147  -2.687  -2.169  0.00  0.00    +0.088 C 
ATOM      6  C   UNL     1      -0.831  -1.936  -1.937  0.00  0.00    -0.059 C 
ATOM      7  C   UNL     1      -2.866  -3.627  -4.352  0.00  0.00    +0.134 A 
ATOM      8  C   UNL     1      -4.191  -4.146  -4.327  0.00  0.00    +0.051 A 
ATOM      9  C   UNL     1      -5.345  -3.674  -3.558  0.00  0.00    -0.025 A 
ATOM     10  C   UNL     1      -6.502  -4.347  -3.715  0.00  0.00    -0.004 A 
ATOM     11  S   UNL     1      -6.135  -5.633  -4.879  0.00  0.00    -0.073 S 
ATOM     12  C   UNL     1      -4.421  -5.264  -5.153  0.00  0.00    +0.115 A 
ATOM     13  N   UNL     1      -3.462  -5.786  -5.893  0.00  0.00    -0.214 NA
ATOM     14  C   UNL     1      -2.245  -5.261  -5.876  0.00  0.00    +0.191 A 
ATOM     15  N   UNL     1      -1.961  -4.203  -5.125  0.00  0.00    -0.206 NA
ATOM     16  C   UNL     1      -7.813  -4.067  -3.047  0.00  0.00    +0.043 C 
ATOM     17  C   UNL     1      -7.562  -3.120  -1.864  0.00  0.00    +0.005 C 
ATOM     18  C   UNL     1      -6.676  -1.965  -2.341  0.00  0.00    +0.005 C 
ATOM     19  C   UNL     1      -5.262  -2.475  -2.617  0.00  0.00    +0.037 C 
ATOM     20  H   UNL     1      -1.765  -0.123  -1.895  0.00  0.00    -0.081 HD
ENDROOT
BRANCH   1  21
ATOM     21  C   UNL     1       0.243   0.204  -2.050  0.00  0.00    -0.043 C 
BRANCH  21  27
ATOM     22  C   UNL     1      -0.457   2.526  -1.432  0.00  0.00    +0.003 A 
ATOM     23  C   UNL     1      -0.637   3.862  -1.738  0.00  0.00    +0.020 A 
ATOM     24  C   UNL     1      -0.314   4.333  -2.998  0.00  0.00    +0.041 A 
ATOM     25  C   UNL     1       0.190   3.466  -3.951  0.00  0.00    +0.020 A 
ATOM     26  C   UNL     1       0.369   2.130  -3.644  0.00  0.00    +0.003 A 
ATOM     27  C   UNL     1       0.046   1.661  -2.385  0.00  0.00    -0.064 A 
ATOM     28 CL   UNL     1      -0.540   6.010  -3.384  0.00  0.00    -0.084 Cl
ENDBRANCH  21  27
ENDBRANCH   1  21
BRANCH  14  29
ATOM     29  S   UNL     1      -0.981  -5.976  -6.874  0.00  0.00    -0.077 S 
BRANCH  29  30
ATOM     30  C   UNL     1      -1.810  -7.356  -7.710  0.00  0.00    +0.172 C 
BRANCH  30  31
ATOM     31  C   UNL     1      -0.827  -8.063  -8.608  0.00  0.00    +0.221 C 
ATOM     32  O   UNL     1       0.320  -7.674  -8.677  0.00  0.00    -0.275 OA
ATOM     33  N   UNL     1      -1.223  -9.128  -9.334  0.00  0.00    -0.329 N 
ATOM     34  H   UNL     1      -2.140  -9.439  -9.278  0.00  0.00    +0.145 HD
ATOM     35  H   UNL     1      -0.590  -9.583  -9.912  0.00  0.00    +0.145 HD
ENDBRANCH  30  31
ENDBRANCH  29  30
ENDBRANCH  14  29
TORSDOF 5
