REMARK  Name = ZINC10751612
REMARK  10 active torsions:
REMARK  status: ('A' for Active; 'I' for Inactive)
REMARK    1  A    between atoms: C_1  and  C_2
REMARK    2  A    between atoms: N_11  and  C_12
REMARK    3  A    between atoms: C_12  and  C_13
REMARK    4  A    between atoms: C_13  and  C_14
REMARK    5  A    between atoms: C_14  and  N_63
REMARK    6  A    between atoms: C_15  and  N_63
REMARK    7  A    between atoms: C_16  and  N_63
REMARK    8  A    between atoms: C_17  and  C_19
REMARK    9  A    between atoms: N_24  and  S_26
REMARK   10  A    between atoms: S_26  and  C_29
REMARK                            x       y       z     vdW  Elec       q    Type
REMARK                         _______ _______ _______ _____ _____    ______ ____
ROOT
ATOM      1  C   UNL     1       3.033   1.921   0.801  0.00  0.00    +0.046 C 
ATOM      2  C   UNL     1       2.658   2.064  -0.651  0.00  0.00    -0.024 A 
ATOM      3  C   UNL     1       3.384   2.900  -1.459  0.00  0.00    +0.005 A 
ATOM      4  C   UNL     1       3.073   3.062  -2.801  0.00  0.00    +0.001 A 
ATOM      5  C   UNL     1       2.006   2.364  -3.338  0.00  0.00    +0.017 A 
ATOM      6  C   UNL     1       1.273   1.525  -2.536  0.00  0.00    +0.041 A 
ATOM      7  C   UNL     1       1.561   1.336  -1.165  0.00  0.00    +0.083 A 
ATOM      8  N   UNL     1       0.749   0.479  -0.510  0.00  0.00    -0.224 NA
ATOM      9  C   UNL     1      -0.246  -0.142  -1.100  0.00  0.00    +0.168 A 
ATOM     10  S   UNL     1      -0.132   0.465  -2.777  0.00  0.00    -0.052 S 
ATOM     11  N   UNL     1      -1.152  -1.041  -0.561  0.00  0.00    -0.250 N 
ATOM     12  C   UNL     1      -2.250  -0.589   0.077  0.00  0.00    +0.226 C 
ATOM     13  O   UNL     1      -2.994  -1.371   0.631  0.00  0.00    -0.275 OA
ENDROOT
BRANCH  12  14
ATOM     14  C   UNL     1      -2.554   0.887   0.101  0.00  0.00    +0.091 C 
ATOM     15  C   UNL     1      -1.943   1.513   1.357  0.00  0.00    +0.015 C 
ATOM     16  C   UNL     1      -2.223   3.018   1.367  0.00  0.00    +0.018 C 
ATOM     17  C   UNL     1      -3.736   3.251   1.397  0.00  0.00    +0.109 C 
ATOM     18  N   UNL     1      -4.349   2.531   0.272  0.00  0.00    -0.175 NA
ATOM     19  C   UNL     1      -4.071   1.096   0.117  0.00  0.00    +0.122 C 
BRANCH  18  20
ATOM     20  S   UNL     1      -5.333   3.321  -0.800  0.00  0.00    +0.067 S 
ATOM     21  O   UNL     1      -6.176   2.335  -1.379  0.00  0.00    -0.152 OA
ATOM     22  O   UNL     1      -5.846   4.457  -0.119  0.00  0.00    -0.152 OA
BRANCH  20  23
ATOM     23  C   UNL     1      -4.307   3.930  -2.096  0.00  0.00    +0.143 A 
ATOM     24  C   UNL     1      -3.950   3.329  -3.257  0.00  0.00    +0.036 A 
ATOM     25  C   UNL     1      -3.126   4.005  -4.137  0.00  0.00    +0.010 A 
ATOM     26  C   UNL     1      -2.700   5.250  -3.813  0.00  0.00    +0.047 A 
ATOM     27  S   UNL     1      -3.475   5.505  -2.225  0.00  0.00    -0.077 S 
ENDBRANCH  20  23
ENDBRANCH  18  20
ENDBRANCH  12  14
BRANCH  11  28
ATOM     28  C   UNL     1      -0.917  -2.482  -0.684  0.00  0.00    +0.114 C 
BRANCH  28  29
ATOM     29  C   UNL     1      -0.107  -2.971   0.518  0.00  0.00    +0.001 C 
BRANCH  29  30
ATOM     30  C   UNL     1       0.139  -4.475   0.389  0.00  0.00    -0.078 C 
BRANCH  30  33
ATOM     31  C   UNL     1       0.142  -4.822   2.786  0.00  0.00    -0.097 C 
ATOM     32  C   UNL     1       1.375  -6.326   1.343  0.00  0.00    -0.097 C 
ATOM     33  N   UNL     1       0.940  -4.928   1.546  0.00  0.00    +0.376 N 
ATOM     34  H   UNL     1       1.770  -4.330   1.631  0.00  0.00    -0.083 HD
ENDBRANCH  30  33
ENDBRANCH  29  30
ENDBRANCH  28  29
ENDBRANCH  11  28
TORSDOF 7
