REMARK  Name = ZINC02288985
REMARK  10 active torsions:
REMARK  status: ('A' for Active; 'I' for Inactive)
REMARK    1  A    between atoms: C_1  and  O_2
REMARK    2  A    between atoms: O_2  and  C_3
REMARK    3  A    between atoms: C_5  and  C_13
REMARK    4  A    between atoms: C_7  and  O_11
REMARK    5  A    between atoms: C_8  and  O_9
REMARK    6  A    between atoms: O_9  and  C_10
REMARK    7  A    between atoms: O_11  and  C_12
REMARK    8  A    between atoms: C_18  and  N_27
REMARK    9  A    between atoms: C_22  and  N_26
REMARK   10  A    between atoms: C_23  and  C_24
REMARK                            x       y       z     vdW  Elec       q    Type
REMARK                         _______ _______ _______ _____ _____    ______ ____
ROOT
ATOM      1  C   UNL     1      -4.871   0.264   0.038  0.00  0.00    +0.098 C 
ATOM      2  C   UNL     1      -5.678  -0.062  -1.190  0.00  0.00    +0.008 A 
ATOM      3  C   UNL     1      -5.304   0.471  -2.411  0.00  0.00    +0.010 A 
ATOM      4  C   UNL     1      -6.032   0.184  -3.549  0.00  0.00    +0.023 A 
ATOM      5  C   UNL     1      -7.145  -0.643  -3.470  0.00  0.00    +0.028 A 
ATOM      6  C   UNL     1      -7.522  -1.179  -2.248  0.00  0.00    +0.069 A 
ATOM      7  C   UNL     1      -6.789  -0.888  -1.105  0.00  0.00    +0.136 A 
ATOM      8  O   UNL     1      -7.171  -1.419   0.082  0.00  0.00    -0.441 OA
ATOM      9  C   UNL     1      -6.742  -0.870   1.231  0.00  0.00    +0.199 C 
ATOM     10  C   UNL     1      -5.658  -0.065   1.276  0.00  0.00    +0.098 C 
ENDROOT
BRANCH   1  13
ATOM     11  C   UNL     1      -1.201  -0.638   0.010  0.00  0.00    +0.165 A 
ATOM     12  C   UNL     1      -2.375   0.101   0.019  0.00  0.00    +0.054 A 
ATOM     13  C   UNL     1      -3.598  -0.543   0.028  0.00  0.00    -0.028 A 
ATOM     14  C   UNL     1      -3.657  -1.924   0.027  0.00  0.00    +0.054 A 
ATOM     15  C   UNL     1      -2.488  -2.670   0.017  0.00  0.00    +0.165 A 
ATOM     16  C   UNL     1      -1.256  -2.027   0.003  0.00  0.00    +0.204 A 
BRANCH  11  18
ATOM     17  C   UNL     1      -0.017   1.425   0.010  0.00  0.00    +0.277 C 
ATOM     18  O   UNL     1       0.002  -0.004   0.002  0.00  0.00    -0.491 OA
ENDBRANCH  11  18
BRANCH  16  19
ATOM     19  O   UNL     1      -0.106  -2.755  -0.012  0.00  0.00    -0.488 OA
ATOM     20  C   UNL     1       0.454  -3.109   1.254  0.00  0.00    +0.277 C 
ENDBRANCH  16  19
BRANCH  15  21
ATOM     21  O   UNL     1      -2.547  -4.028   0.017  0.00  0.00    -0.491 OA
ATOM     22  C   UNL     1      -3.847  -4.621   0.026  0.00  0.00    +0.277 C 
ENDBRANCH  15  21
ENDBRANCH   1  13
BRANCH   9  23
ATOM     23  N   UNL     1      -7.424  -1.136   2.392  0.00  0.00    -0.328 N 
ATOM     24  H   UNL     1      -8.204  -1.713   2.375  0.00  0.00    +0.145 HD
ATOM     25  H   UNL     1      -7.127  -0.747   3.229  0.00  0.00    +0.145 HD
ENDBRANCH   9  23
BRANCH   5  26
ATOM     26  N   UNL     1      -7.884  -0.934  -4.619  0.00  0.00    -0.358 N 
ATOM     27  H   UNL     1      -7.620  -0.558  -5.474  0.00  0.00    +0.142 HD
ATOM     28  H   UNL     1      -8.661  -1.512  -4.563  0.00  0.00    +0.142 HD
ENDBRANCH   5  26
BRANCH  10  29
ATOM     29  C   UNL     1      -5.253   0.488   2.533  0.00  0.00    +0.101 C 
ATOM     30  N   UNL     1      -4.931   0.927   3.530  0.00  0.00    -0.191 NA
ENDBRANCH  10  29
TORSDOF 7
