REMARK  Name = ZINC38701089
REMARK  12 active torsions:
REMARK  status: ('A' for Active; 'I' for Inactive)
REMARK    1  A    between atoms: C_1  and  C_2
REMARK    2  A    between atoms: C_2  and  C_3
REMARK    3  A    between atoms: C_9  and  C_39
REMARK    4  A    between atoms: C_10  and  C_12
REMARK    5  A    between atoms: C_12  and  O_14
REMARK    6  A    between atoms: O_14  and  C_15
REMARK    7  A    between atoms: C_22  and  N_38
REMARK    8  A    between atoms: C_23  and  C_36
REMARK    9  A    between atoms: C_24  and  C_26
REMARK   10  A    between atoms: C_30  and  O_32
REMARK   11  A    between atoms: O_32  and  C_33
REMARK   12  A    between atoms: C_33  and  C_34
REMARK                            x       y       z     vdW  Elec       q    Type
REMARK                         _______ _______ _______ _____ _____    ______ ____
ROOT
ATOM      1  C   UNL     1      -8.805  -3.280  -2.177  0.00  0.00    +0.136 A 
ATOM      2  C   UNL     1      -8.725  -3.328  -3.562  0.00  0.00    +0.047 A 
ATOM      3  C   UNL     1      -9.807  -3.761  -4.301  0.00  0.00    +0.012 A 
ATOM      4  C   UNL     1     -10.974  -4.149  -3.667  0.00  0.00    +0.008 A 
ATOM      5  C   UNL     1     -11.060  -4.104  -2.284  0.00  0.00    +0.138 A 
ATOM      6  C   UNL     1      -9.970  -3.674  -1.539  0.00  0.00    +0.093 A 
ATOM      7  O   UNL     1     -12.194  -4.482  -1.645  0.00  0.00    -0.441 OA
ATOM      8  C   UNL     1     -13.357  -4.534  -2.317  0.00  0.00    +0.199 C 
ATOM      9  C   UNL     1     -13.401  -4.599  -3.668  0.00  0.00    +0.098 C 
ATOM     10  C   UNL     1     -12.143  -4.620  -4.491  0.00  0.00    +0.098 C 
ENDROOT
BRANCH  10  11
ATOM     11  C   UNL     1     -11.883  -6.024  -4.971  0.00  0.00    -0.031 A 
ATOM     12  C   UNL     1     -11.693  -7.043  -4.055  0.00  0.00    +0.005 A 
ATOM     13  C   UNL     1     -11.454  -8.332  -4.492  0.00  0.00    +0.004 A 
ATOM     14  C   UNL     1     -11.405  -8.607  -5.845  0.00  0.00    +0.045 A 
ATOM     15  C   UNL     1     -11.596  -7.587  -6.766  0.00  0.00    +0.121 A 
ATOM     16  C   UNL     1     -11.842  -6.295  -6.325  0.00  0.00    +0.050 A 
BRANCH  15  17
ATOM     17  O   UNL     1     -11.549  -7.854  -8.097  0.00  0.00    -0.488 OA
BRANCH  17  18
ATOM     18  C   UNL     1     -11.297  -9.208  -8.479  0.00  0.00    +0.256 C 
BRANCH  18  19
ATOM     19  C   UNL     1     -11.281  -9.312  -9.982  0.00  0.00    +0.006 C 
ATOM     20  C   UNL     1     -10.338  -9.997 -10.581  0.00  0.00    +0.007 C 
ENDBRANCH  18  19
ENDBRANCH  17  18
ENDBRANCH  15  17
ENDBRANCH  10  11
BRANCH   8  21
ATOM     21  N   UNL     1     -14.534  -4.519  -1.612  0.00  0.00    -0.328 N 
ATOM     22  H   UNL     1     -14.519  -4.473  -0.643  0.00  0.00    +0.145 HD
ATOM     23  H   UNL     1     -15.382  -4.556  -2.082  0.00  0.00    +0.145 HD
ENDBRANCH   8  21
BRANCH   9  24
ATOM     24  C   UNL     1     -14.671  -4.650  -4.327  0.00  0.00    +0.101 C 
ATOM     25  N   UNL     1     -15.679  -4.691  -4.849  0.00  0.00    -0.191 NA
ENDBRANCH   9  24
BRANCH   1  26
ATOM     26  O   UNL     1      -7.740  -2.855  -1.448  0.00  0.00    -0.420 OA
BRANCH  26  27
ATOM     27  C   UNL     1      -6.986  -3.784  -0.826  0.00  0.00    +0.380 C 
ATOM     28  O   UNL     1      -7.318  -4.954  -0.853  0.00  0.00    -0.241 OA
BRANCH  27  36
ATOM     29  C   UNL     1      -1.895  -2.627   2.211  0.00  0.00    -0.047 A 
ATOM     30  C   UNL     1      -2.186  -1.327   1.823  0.00  0.00    +0.007 A 
ATOM     31  C   UNL     1      -3.307  -1.050   1.071  0.00  0.00    +0.047 A 
ATOM     32  C   UNL     1      -4.159  -2.081   0.694  0.00  0.00    +0.136 A 
ATOM     33  C   UNL     1      -3.859  -3.398   1.089  0.00  0.00    +0.024 A 
ATOM     34  C   UNL     1      -2.715  -3.658   1.848  0.00  0.00    +0.015 A 
ATOM     35  C   UNL     1      -4.930  -4.230   0.543  0.00  0.00    +0.010 A 
ATOM     36  C   UNL     1      -5.765  -3.384  -0.116  0.00  0.00    +0.216 A 
ATOM     37  O   UNL     1      -5.300  -2.120  -0.021  0.00  0.00    -0.448 OA
ATOM     38  C   UNL     1      -5.079  -5.723   0.683  0.00  0.00    +0.048 C 
BRANCH  29  40
ATOM     39  C   UNL     1       0.520  -3.182   2.103  0.00  0.00    +0.009 C 
ATOM     40  C   UNL     1      -0.663  -2.905   3.034  0.00  0.00    +0.032 C 
ENDBRANCH  29  40
ENDBRANCH  27  36
ENDBRANCH  26  27
ENDBRANCH   1  26
TORSDOF 10
