REMARK  Name = ZINC08716423
REMARK  8 active torsions:
REMARK  status: ('A' for Active; 'I' for Inactive)
REMARK    1  A    between atoms: C_1  and  C_2
REMARK    2  A    between atoms: C_3  and  C_32
REMARK    3  A    between atoms: C_11  and  C_13
REMARK    4  A    between atoms: C_13  and  C_15
REMARK    5  A    between atoms: C_13  and  O_16
REMARK    6  A    between atoms: O_16  and  C_17
REMARK    7  A    between atoms: C_17  and  C_19
REMARK    8  A    between atoms: C_28  and  C_31
REMARK                            x       y       z     vdW  Elec       q    Type
REMARK                         _______ _______ _______ _____ _____    ______ ____
ROOT
ATOM      1  O   UNL     1       1.349   1.588  -0.002  0.00  0.00    -0.450 OA
ENDROOT
BRANCH   1   2
ATOM      2  C   UNL     1      -0.013   1.086   0.008  0.00  0.00    +0.239 C 
ATOM      3  C   UNL     1      -0.753   1.593  -1.232  0.00  0.00    +0.060 C 
BRANCH   2  14
ATOM      4  C   UNL     1      -2.632   2.592   5.993  0.00  0.00    +0.045 C 
ATOM      5  C   UNL     1      -2.786   3.064   4.570  0.00  0.00    -0.026 A 
ATOM      6  C   UNL     1      -3.647   4.050   4.271  0.00  0.00    -0.008 A 
ATOM      7  S   UNL     1      -3.465   4.236   2.507  0.00  0.00    -0.073 S 
ATOM      8  C   UNL     1      -2.238   2.986   2.224  0.00  0.00    +0.116 A 
ATOM      9  C   UNL     1      -2.005   2.459   3.507  0.00  0.00    +0.075 A 
ATOM     10  C   UNL     1      -1.035   1.407   3.578  0.00  0.00    +0.260 A 
ATOM     11  O   UNL     1      -0.763   0.886   4.646  0.00  0.00    -0.267 OA
ATOM     12  N   UNL     1      -0.432   0.999   2.446  0.00  0.00    -0.307 N 
ATOM     13  H   UNL     1       0.222   0.284   2.486  0.00  0.00    +0.170 HD
ATOM     14  C   UNL     1      -0.718   1.572   1.248  0.00  0.00    +0.152 A 
ATOM     15  N   UNL     1      -1.597   2.533   1.151  0.00  0.00    -0.223 NA
ATOM     16  C   UNL     1      -4.552   4.815   5.203  0.00  0.00    +0.052 C 
ENDBRANCH   2  14
ENDBRANCH   1   2
BRANCH   1  17
ATOM     17  C   UNL     1       2.278   0.828  -0.616  0.00  0.00    +0.340 C 
ATOM     18  O   UNL     1       1.957  -0.227  -1.128  0.00  0.00    -0.245 OA
BRANCH  17  19
ATOM     19  C   UNL     1       3.681   1.275  -0.665  0.00  0.00    +0.061 A 
ATOM     20  C   UNL     1       4.047   2.491  -0.080  0.00  0.00    +0.016 A 
ATOM     21  C   UNL     1       5.361   2.902  -0.122  0.00  0.00    +0.017 A 
ATOM     22  C   UNL     1       6.316   2.117  -0.754  0.00  0.00    +0.030 A 
ATOM     23  C   UNL     1       5.963   0.901  -1.350  0.00  0.00    +0.048 A 
ATOM     24  C   UNL     1       4.642   0.485  -1.302  0.00  0.00    +0.039 A 
ATOM     25  N   UNL     1       6.906   0.106  -1.996  0.00  0.00    -0.284 N 
ATOM     26  C   UNL     1       8.222   0.133  -1.805  0.00  0.00    +0.230 C 
ATOM     27  O   UNL     1       8.910  -0.636  -2.442  0.00  0.00    -0.274 OA
ATOM     28  C   UNL     1       8.905   1.065  -0.841  0.00  0.00    +0.134 C 
ATOM     29  S   UNL     1       8.000   2.642  -0.812  0.00  0.00    -0.111 S 
ATOM     30  C   UNL     1       8.904   0.447   0.558  0.00  0.00    +0.029 C 
ATOM     31  H   UNL     1       6.571  -0.530  -2.648  0.00  0.00    +0.155 HD
ENDBRANCH  17  19
ENDBRANCH   1  17
TORSDOF 4
