REMARK  Name = ZINC08921215
REMARK  8 active torsions:
REMARK  status: ('A' for Active; 'I' for Inactive)
REMARK    1  A    between atoms: C_4  and  C_7
REMARK    2  A    between atoms: C_7  and  C_8
REMARK    3  A    between atoms: C_8  and  N_9
REMARK    4  A    between atoms: C_16  and  C_19
REMARK    5  A    between atoms: C_16  and  O_33
REMARK    6  A    between atoms: C_19  and  C_20
REMARK    7  A    between atoms: C_20  and  C_22
REMARK    8  A    between atoms: C_23  and  C_24
REMARK                            x       y       z     vdW  Elec       q    Type
REMARK                         _______ _______ _______ _____ _____    ______ ____
ROOT
ATOM      1  N   UNL     1      -0.020   1.094   2.454  0.00  0.00    -0.268 N 
ATOM      2  C   UNL     1      -0.304  -0.116   3.088  0.00  0.00    +0.043 A 
ATOM      3  C   UNL     1      -1.239  -1.105   2.788  0.00  0.00    +0.025 A 
ATOM      4  C   UNL     1      -1.327  -2.236   3.572  0.00  0.00    +0.017 A 
ATOM      5  C   UNL     1      -0.486  -2.401   4.659  0.00  0.00    +0.018 A 
ATOM      6  C   UNL     1       0.449  -1.425   4.960  0.00  0.00    +0.024 A 
ATOM      7  C   UNL     1       0.539  -0.296   4.178  0.00  0.00    +0.016 A 
ATOM      8  C   UNL     1       1.427   0.925   4.234  0.00  0.00    +0.175 C 
ATOM      9  C   UNL     1       0.973   1.766   3.060  0.00  0.00    +0.257 C 
ATOM     10  O   UNL     1       1.422   2.842   2.728  0.00  0.00    -0.272 OA
ATOM     11 BR   UNL     1      -0.614  -3.955   5.730  0.00  0.00    -0.050 Br
ENDROOT
BRANCH   8  12
ATOM     12  O   UNL     1       1.233   1.633   5.461  0.00  0.00    -0.374 OA
ATOM     13  H   UNL     1       1.736   2.457   5.523  0.00  0.00    +0.211 HD
ENDBRANCH   8  12
BRANCH   1  14
ATOM     14  C   UNL     1      -0.729   1.579   1.267  0.00  0.00    +0.118 C 
BRANCH  14  15
ATOM     15  C   UNL     1      -0.013   1.086   0.008  0.00  0.00    +0.054 C 
BRANCH  15  19
ATOM     16  C   UNL     1      -2.078   2.501  -3.453  0.00  0.00    +0.000 A 
ATOM     17  C   UNL     1      -1.066   3.259  -2.894  0.00  0.00    +0.000 A 
ATOM     18  C   UNL     1      -0.398   2.801  -1.774  0.00  0.00    +0.004 A 
ATOM     19  C   UNL     1      -0.742   1.585  -1.213  0.00  0.00    -0.046 A 
ATOM     20  C   UNL     1      -1.750   0.825  -1.775  0.00  0.00    +0.004 A 
ATOM     21  C   UNL     1      -2.422   1.285  -2.892  0.00  0.00    +0.000 A 
ENDBRANCH  15  19
ENDBRANCH  14  15
ENDBRANCH   1  14
BRANCH   8  22
ATOM     22  C   UNL     1       2.896   0.528   4.073  0.00  0.00    +0.128 C 
BRANCH  22  23
ATOM     23  C   UNL     1       3.751   1.768   4.037  0.00  0.00    +0.160 C 
ATOM     24  O   UNL     1       3.236   2.864   4.131  0.00  0.00    -0.293 OA
BRANCH  23  25
ATOM     25  C   UNL     1       5.147   1.656   3.894  0.00  0.00    +0.047 C 
ATOM     26  C   UNL     1       5.917   2.772   3.861  0.00  0.00    +0.011 C 
BRANCH  26  27
ATOM     27  C   UNL     1       7.372   2.655   3.712  0.00  0.00    -0.021 A 
ATOM     28  C   UNL     1       7.969   1.393   3.610  0.00  0.00    +0.012 A 
ATOM     29  C   UNL     1       9.334   1.287   3.465  0.00  0.00    +0.050 A 
ATOM     30  C   UNL     1      10.125   2.429   3.431  0.00  0.00    +0.166 A 
ATOM     31  C   UNL     1       9.538   3.691   3.539  0.00  0.00    +0.167 A 
ATOM     32  C   UNL     1       8.169   3.807   3.678  0.00  0.00    +0.057 A 
ATOM     33  O   UNL     1      10.522   4.636   3.479  0.00  0.00    -0.453 OA
ATOM     34  C   UNL     1      11.748   3.929   3.745  0.00  0.00    +0.466 C 
ATOM     35  O   UNL     1      11.474   2.587   3.304  0.00  0.00    -0.453 OA
ENDBRANCH  26  27
ENDBRANCH  23  25
ENDBRANCH  22  23
ENDBRANCH   8  22
TORSDOF 8
