REMARK  Name = ZINC09692601
REMARK  7 active torsions:
REMARK  status: ('A' for Active; 'I' for Inactive)
REMARK    1  A    between atoms: C_4  and  C_7
REMARK    2  A    between atoms: C_7  and  C_9
REMARK    3  A    between atoms: C_7  and  N_24
REMARK    4  A    between atoms: N_11  and  C_12
REMARK    5  A    between atoms: C_12  and  C_13
REMARK    6  A    between atoms: N_24  and  S_25
REMARK    7  A    between atoms: S_25  and  C_28
REMARK                            x       y       z     vdW  Elec       q    Type
REMARK                         _______ _______ _______ _____ _____    ______ ____
ROOT
ATOM      1  C   UNL     1      -0.782   6.134   1.731  0.00  0.00    +0.192 C 
ENDROOT
BRANCH   1   5
ATOM      2  C   UNL     1       1.333   5.788   5.426  0.00  0.00    +0.000 A 
ATOM      3  C   UNL     1       0.284   4.933   5.147  0.00  0.00    +0.000 A 
ATOM      4  C   UNL     1      -0.401   5.045   3.952  0.00  0.00    +0.006 A 
ATOM      5  C   UNL     1      -0.036   6.012   3.034  0.00  0.00    -0.020 A 
ATOM      6  C   UNL     1       1.018   6.864   3.310  0.00  0.00    +0.006 A 
ATOM      7  C   UNL     1       1.699   6.755   4.508  0.00  0.00    +0.000 A 
ENDBRANCH   1   5
BRANCH   1   8
ATOM      8  C   UNL     1       0.006   5.463   0.636  0.00  0.00    +0.236 C 
ATOM      9  O   UNL     1       0.379   6.104  -0.324  0.00  0.00    -0.274 OA
ATOM     10  N   UNL     1       0.297   4.150   0.723  0.00  0.00    -0.310 N 
ATOM     11  H   UNL     1      -0.001   3.637   1.490  0.00  0.00    +0.149 HD
BRANCH  10  12
ATOM     12  C   UNL     1       1.063   3.497  -0.341  0.00  0.00    +0.152 C 
BRANCH  12  13
ATOM     13  C   UNL     1       1.254   2.018   0.001  0.00  0.00    +0.228 C 
ATOM     14  C   UNL     1       2.136   1.350  -1.063  0.00  0.00    +0.275 C 
ATOM     15  O   UNL     1       2.282  -0.033  -0.719  0.00  0.00    -0.485 OA
ATOM     16  C   UNL     1       1.149  -0.698  -0.364  0.00  0.00    +0.162 A 
ATOM     17  C   UNL     1       1.145  -2.085  -0.368  0.00  0.00    +0.049 A 
ATOM     18  C   UNL     1       0.003  -2.775  -0.007  0.00  0.00    +0.004 A 
ATOM     19  C   UNL     1      -1.138  -2.084   0.359  0.00  0.00    +0.004 A 
ATOM     20  C   UNL     1      -1.140  -0.703   0.365  0.00  0.00    +0.049 A 
ATOM     21  C   UNL     1       0.002  -0.004   0.002  0.00  0.00    +0.163 A 
ATOM     22  O   UNL     1      -0.016   1.357   0.009  0.00  0.00    -0.480 OA
ENDBRANCH  12  13
ENDBRANCH  10  12
ENDBRANCH   1   8
BRANCH   1  23
ATOM     23  N   UNL     1      -0.964   7.551   1.403  0.00  0.00    -0.174 NA
ATOM     24  H   UNL     1      -0.263   8.035   0.940  0.00  0.00    +0.149 HD
BRANCH  23  25
ATOM     25  S   UNL     1      -2.367   8.324   1.823  0.00  0.00    +0.061 S 
ATOM     26  O   UNL     1      -2.230   9.673   1.399  0.00  0.00    -0.153 OA
ATOM     27  O   UNL     1      -3.435   7.493   1.388  0.00  0.00    -0.153 OA
BRANCH  25  28
ATOM     28  C   UNL     1      -2.438   8.354   3.583  0.00  0.00    +0.133 A 
ATOM     29  C   UNL     1      -2.385   9.536   4.243  0.00  0.00    +0.031 A 
ATOM     30  C   UNL     1      -2.438   9.598   5.635  0.00  0.00    +0.004 A 
ATOM     31  C   UNL     1      -2.547   8.478   6.391  0.00  0.00    +0.031 A 
ATOM     32  C   UNL     1      -2.609   7.205   5.767  0.00  0.00    +0.102 A 
ATOM     33  C   UNL     1      -2.557   7.141   4.310  0.00  0.00    +0.126 A 
ATOM     34  N   UNL     1      -2.620   5.888   3.862  0.00  0.00    -0.189 NA
ATOM     35  S   UNL     1      -2.736   4.975   5.130  0.00  0.00    +0.117 S 
ATOM     36  N   UNL     1      -2.715   5.997   6.318  0.00  0.00    -0.191 NA
ENDBRANCH  25  28
ENDBRANCH  23  25
ENDBRANCH   1  23
TORSDOF 7
