REMARK  Name = ZINC45760345
REMARK  8 active torsions:
REMARK  status: ('A' for Active; 'I' for Inactive)
REMARK    1  A    between atoms: C_1  and  C_2
REMARK    2  A    between atoms: C_2  and  C_23
REMARK    3  A    between atoms: N_5  and  C_9
REMARK    4  A    between atoms: C_9  and  C_10
REMARK    5  A    between atoms: N_12  and  C_13
REMARK    6  A    between atoms: C_18  and  N_19
REMARK    7  A    between atoms: N_19  and  C_20
REMARK    8  A    between atoms: N_19  and  C_21
REMARK                            x       y       z     vdW  Elec       q    Type
REMARK                         _______ _______ _______ _____ _____    ______ ____
ROOT
ATOM      1  C   UNL     1      -0.036   1.529  -0.018  0.00  0.00    +0.047 C 
ATOM      2  C   UNL     1      -0.010  -0.001  -0.016  0.00  0.00    +0.135 C 
ATOM      3  C   UNL     1      -1.413  -0.559   0.121  0.00  0.00    +0.251 C 
ATOM      4  O   UNL     1      -2.341  -0.402  -0.643  0.00  0.00    -0.272 OA
ATOM      5  N   UNL     1      -1.413  -1.266   1.268  0.00  0.00    -0.215 N 
ATOM      6  C   UNL     1      -0.218  -1.233   1.869  0.00  0.00    +0.310 C 
ATOM      7  O   UNL     1       0.027  -1.796   2.917  0.00  0.00    -0.252 OA
ATOM      8  N   UNL     1       0.682  -0.506   1.182  0.00  0.00    -0.281 N 
ATOM      9  H   UNL     1       1.607  -0.346   1.428  0.00  0.00    +0.152 HD
ENDROOT
BRANCH   2  10
ATOM     10  C   UNL     1       0.651  -0.520  -1.268  0.00  0.00    -0.016 A 
ATOM     11  C   UNL     1      -0.110  -0.785  -2.391  0.00  0.00    +0.006 A 
ATOM     12  C   UNL     1       0.496  -1.261  -3.539  0.00  0.00    +0.000 A 
ATOM     13  C   UNL     1       1.862  -1.471  -3.563  0.00  0.00    +0.000 A 
ATOM     14  C   UNL     1       2.623  -1.205  -2.440  0.00  0.00    +0.000 A 
ATOM     15  C   UNL     1       2.018  -0.725  -1.294  0.00  0.00    +0.006 A 
ENDBRANCH   2  10
BRANCH   5  16
ATOM     16  C   UNL     1      -2.579  -1.981   1.793  0.00  0.00    +0.214 C 
BRANCH  16  17
ATOM     17  C   UNL     1      -2.587  -3.390   1.257  0.00  0.00    +0.235 C 
ATOM     18  O   UNL     1      -1.706  -3.759   0.510  0.00  0.00    -0.274 OA
ATOM     19  N   UNL     1      -3.573  -4.239   1.608  0.00  0.00    -0.283 N 
ATOM     20  H   UNL     1      -4.232  -3.970   2.267  0.00  0.00    +0.155 HD
BRANCH  19  21
ATOM     21  C   UNL     1      -3.646  -5.509   1.020  0.00  0.00    +0.056 A 
ATOM     22  C   UNL     1      -3.086  -5.731  -0.229  0.00  0.00    +0.025 A 
ATOM     23  C   UNL     1      -3.159  -6.984  -0.807  0.00  0.00    +0.003 A 
ATOM     24  C   UNL     1      -3.790  -8.021  -0.144  0.00  0.00    +0.022 A 
ATOM     25  C   UNL     1      -4.351  -7.809   1.102  0.00  0.00    +0.064 A 
ATOM     26  C   UNL     1      -4.278  -6.554   1.692  0.00  0.00    +0.069 A 
ATOM     27 CL   UNL     1      -5.143  -9.113   1.931  0.00  0.00    -0.082 Cl
BRANCH  26  28
ATOM     28  N   UNL     1      -4.841  -6.339   2.955  0.00  0.00    -0.333 N 
ATOM     29  C   UNL     1      -6.237  -5.910   3.071  0.00  0.00    +0.129 C 
ATOM     30  C   UNL     1      -4.034  -6.541   4.161  0.00  0.00    +0.129 C 
ENDBRANCH  26  28
ENDBRANCH  19  21
ENDBRANCH  16  17
ENDBRANCH   5  16
TORSDOF 5
