REMARK  Name = ZINC64948729
REMARK  8 active torsions:
REMARK  status: ('A' for Active; 'I' for Inactive)
REMARK    1  A    between atoms: C_1  and  C_2
REMARK    2  A    between atoms: C_2  and  O_3
REMARK    3  A    between atoms: O_3  and  C_4
REMARK    4  A    between atoms: C_7  and  C_10
REMARK    5  A    between atoms: C_13  and  C_15
REMARK    6  A    between atoms: C_16  and  N_28
REMARK    7  A    between atoms: N_17  and  C_20
REMARK    8  A    between atoms: C_25  and  C_26
REMARK                            x       y       z     vdW  Elec       q    Type
REMARK                         _______ _______ _______ _____ _____    ______ ____
ROOT
ATOM      1  C   UNL     1       0.184  -9.172  -0.142  0.00  0.00    +0.159 A 
ATOM      2  C   UNL     1       0.388 -10.526  -0.339  0.00  0.00    +0.150 A 
ATOM      3  N   UNL     1      -0.348 -11.167   0.614  0.00  0.00    -0.198 N 
ATOM      4  N   UNL     1      -0.983 -10.171   1.368  0.00  0.00    -0.058 NA
ATOM      5  N   UNL     1      -0.646  -9.020   0.903  0.00  0.00    -0.125 NA
ENDROOT
BRANCH   3   6
ATOM      6  C   UNL     1      -0.450 -12.553   0.802  0.00  0.00    +0.073 A 
ATOM      7  C   UNL     1      -0.697 -13.386  -0.281  0.00  0.00    +0.028 A 
ATOM      8  C   UNL     1      -0.797 -14.750  -0.093  0.00  0.00    +0.004 A 
ATOM      9  C   UNL     1      -0.652 -15.288   1.172  0.00  0.00    +0.020 A 
ATOM     10  C   UNL     1      -0.406 -14.461   2.254  0.00  0.00    +0.046 A 
ATOM     11  C   UNL     1      -0.299 -13.095   2.071  0.00  0.00    -0.007 A 
ATOM     12  C   UNL     1      -0.025 -12.195   3.248  0.00  0.00    +0.047 C 
ATOM     13 CL   UNL     1      -0.225 -15.141   3.841  0.00  0.00    -0.083 Cl
ENDBRANCH   3   6
BRANCH   1  17
ATOM     14  C   UNL     1       1.254  -5.930  -1.618  0.00  0.00    +0.079 A 
ATOM     15  C   UNL     1       2.056  -6.420  -2.613  0.00  0.00    +0.075 A 
ATOM     16  S   UNL     1       1.890  -8.179  -2.337  0.00  0.00    -0.073 S 
ATOM     17  C   UNL     1       0.781  -8.082  -0.938  0.00  0.00    +0.132 A 
ATOM     18  N   UNL     1       0.641  -6.771  -0.803  0.00  0.00    -0.237 NA
BRANCH  14  22
ATOM     19  C   UNL     1       0.754  -1.733  -1.140  0.00  0.00    +0.121 A 
ATOM     20  C   UNL     1       0.106  -2.610  -0.281  0.00  0.00    +0.046 A 
ATOM     21  C   UNL     1       0.266  -3.971  -0.433  0.00  0.00    +0.013 A 
ATOM     22  C   UNL     1       1.079  -4.466  -1.452  0.00  0.00    +0.001 A 
ATOM     23  C   UNL     1       1.728  -3.583  -2.313  0.00  0.00    +0.013 A 
ATOM     24  C   UNL     1       1.560  -2.223  -2.159  0.00  0.00    +0.046 A 
BRANCH  19  25
ATOM     25  O   UNL     1       0.595  -0.392  -0.987  0.00  0.00    -0.492 OA
BRANCH  25  27
ATOM     26  C   UNL     1      -0.306   1.573   0.095  0.00  0.00    +0.048 C 
ATOM     27  C   UNL     1      -0.248   0.044   0.081  0.00  0.00    +0.225 C 
ENDBRANCH  25  27
ENDBRANCH  19  25
ENDBRANCH  14  22
ENDBRANCH   1  17
BRANCH   2  28
ATOM     28  N   UNL     1       1.183 -11.115  -1.311  0.00  0.00    -0.341 N 
ATOM     29  H   UNL     1       1.589 -10.568  -2.001  0.00  0.00    +0.144 HD
ATOM     30  H   UNL     1       1.331 -12.073  -1.301  0.00  0.00    +0.144 HD
ENDBRANCH   2  28
TORSDOF 6
