REMARK  Name = ZINC39676606
REMARK  12 active torsions:
REMARK  status: ('A' for Active; 'I' for Inactive)
REMARK    1  A    between atoms: C_1  and  O_2
REMARK    2  A    between atoms: O_2  and  C_3
REMARK    3  A    between atoms: C_3  and  C_4
REMARK    4  A    between atoms: C_4  and  C_5
REMARK    5  A    between atoms: C_9  and  C_18
REMARK    6  A    between atoms: N_20  and  C_21
REMARK    7  A    between atoms: C_21  and  C_22
REMARK    8  A    between atoms: C_21  and  C_30
REMARK    9  A    between atoms: C_25  and  O_28
REMARK   10  A    between atoms: O_28  and  C_29
REMARK   11  A    between atoms: C_33  and  O_36
REMARK   12  A    between atoms: O_36  and  C_37
REMARK                            x       y       z     vdW  Elec       q    Type
REMARK                         _______ _______ _______ _____ _____    ______ ____
ROOT
ATOM      1  C   UNL     1      -1.659  -7.581   0.411  0.00  0.00    +0.219 C 
ATOM      2  O   UNL     1      -1.631  -7.780  -0.785  0.00  0.00    -0.275 OA
ATOM      3  N   UNL     1      -1.332  -8.569   1.268  0.00  0.00    -0.304 N 
ATOM      4  H   UNL     1      -1.355  -8.409   2.224  0.00  0.00    +0.150 HD
ENDROOT
BRANCH   1   9
ATOM      5  C   UNL     1      -2.558  -2.765   0.003  0.00  0.00    +0.218 C 
ATOM      6  O   UNL     1      -3.553  -2.072   0.028  0.00  0.00    -0.276 OA
ATOM      7  N   UNL     1      -2.672  -4.108   0.005  0.00  0.00    -0.300 N 
ATOM      8  C   UNL     1      -1.583  -5.113  -0.017  0.00  0.00    +0.121 C 
ATOM      9  C   UNL     1      -2.061  -6.228   0.940  0.00  0.00    +0.100 C 
ATOM     10  C   UNL     1      -3.593  -6.093   0.964  0.00  0.00    -0.004 C 
ATOM     11  C   UNL     1      -3.916  -4.914   0.036  0.00  0.00    +0.115 C 
ATOM     12  C   UNL     1      -4.074  -5.790   2.380  0.00  0.00    -0.010 C 
ATOM     13  C   UNL     1      -5.604  -5.717   2.389  0.00  0.00    -0.082 C 
ATOM     14  N   UNL     1      -6.159  -6.995   1.926  0.00  0.00    +0.379 N 
ATOM     15  C   UNL     1      -5.767  -7.235   0.532  0.00  0.00    -0.082 C 
ATOM     16  C   UNL     1      -4.245  -7.371   0.444  0.00  0.00    -0.010 C 
ATOM     17  H   UNL     1      -5.809  -7.742   2.506  0.00  0.00    -0.086 HD
ATOM     18  H   UNL     1      -7.166  -6.966   1.991  0.00  0.00    -0.086 HD
BRANCH   5  19
ATOM     19  C   UNL     1      -1.194  -2.125  -0.031  0.00  0.00    +0.124 C 
BRANCH  19  20
ATOM     20  C   UNL     1      -1.345  -0.603  -0.027  0.00  0.00    +0.168 C 
BRANCH  20  22
ATOM     21  C   UNL     1      -0.079   1.433  -0.057  0.00  0.00    +0.194 C 
ATOM     22  O   UNL     1      -0.051   0.004  -0.059  0.00  0.00    -0.382 OA
ENDBRANCH  20  22
ENDBRANCH  19  20
ENDBRANCH   5  19
ENDBRANCH   1   9
BRANCH   3  23
ATOM     23  C   UNL     1      -0.941  -9.884   0.754  0.00  0.00    +0.134 C 
BRANCH  23  24
ATOM     24  C   UNL     1      -0.071 -10.581   1.767  0.00  0.00    -0.023 A 
ATOM     25  C   UNL     1      -0.373 -10.493   3.114  0.00  0.00    +0.009 A 
ATOM     26  C   UNL     1       0.424 -11.130   4.045  0.00  0.00    +0.046 A 
ATOM     27  C   UNL     1       1.528 -11.860   3.628  0.00  0.00    +0.120 A 
ATOM     28  C   UNL     1       1.829 -11.947   2.276  0.00  0.00    +0.046 A 
ATOM     29  C   UNL     1       1.026 -11.312   1.349  0.00  0.00    +0.009 A 
BRANCH  27  30
ATOM     30  O   UNL     1       2.314 -12.487   4.542  0.00  0.00    -0.495 OA
ATOM     31  C   UNL     1       3.433 -13.220   4.041  0.00  0.00    +0.277 C 
ENDBRANCH  27  30
ENDBRANCH  23  24
BRANCH  23  32
ATOM     32  C   UNL     1      -2.175 -10.710   0.498  0.00  0.00    -0.023 A 
ATOM     33  C   UNL     1      -3.235 -10.660   1.385  0.00  0.00    +0.009 A 
ATOM     34  C   UNL     1      -4.367 -11.417   1.154  0.00  0.00    +0.046 A 
ATOM     35  C   UNL     1      -4.440 -12.228   0.030  0.00  0.00    +0.120 A 
ATOM     36  C   UNL     1      -3.376 -12.276  -0.858  0.00  0.00    +0.046 A 
ATOM     37  C   UNL     1      -2.248 -11.513  -0.625  0.00  0.00    +0.009 A 
BRANCH  35  38
ATOM     38  O   UNL     1      -5.553 -12.974  -0.199  0.00  0.00    -0.495 OA
ATOM     39  C   UNL     1      -5.558 -13.785  -1.376  0.00  0.00    +0.277 C 
ENDBRANCH  35  38
ENDBRANCH  23  32
ENDBRANCH   3  23
TORSDOF 9
