REMARK  Name = ZINC09483396
REMARK  11 active torsions:
REMARK  status: ('A' for Active; 'I' for Inactive)
REMARK    1  A    between atoms: C_1  and  C_2
REMARK    2  A    between atoms: C_2  and  C_33
REMARK    3  A    between atoms: C_6  and  C_25
REMARK    4  A    between atoms: N_8  and  C_16
REMARK    5  A    between atoms: C_16  and  C_17
REMARK    6  A    between atoms: N_19  and  C_20
REMARK    7  A    between atoms: C_20  and  C_21
REMARK    8  A    between atoms: C_21  and  C_22
REMARK    9  A    between atoms: C_22  and  N_67
REMARK   10  A    between atoms: C_23  and  N_67
REMARK   11  A    between atoms: C_24  and  N_67
REMARK                            x       y       z     vdW  Elec       q    Type
REMARK                         _______ _______ _______ _____ _____    ______ ____
ROOT
ATOM      1  C   UNL     1       1.193  -3.523   1.312  0.00  0.00    +0.011 C 
ATOM      2  C   UNL     1       0.339  -2.815   2.367  0.00  0.00    -0.023 C 
ATOM      3  C   UNL     1      -0.475  -1.699   1.711  0.00  0.00    +0.058 C 
ATOM      4  C   UNL     1       0.451  -0.678   1.097  0.00  0.00    +0.017 C 
ATOM      5  C   UNL     1       1.681  -0.423   1.610  0.00  0.00    +0.040 C 
ATOM      6  C   UNL     1       2.734   0.554   1.095  0.00  0.00    +0.175 C 
ATOM      7  N   UNL     1       2.315   1.237  -0.111  0.00  0.00    -0.306 N 
ATOM      8  C   UNL     1       1.174   2.027   0.002  0.00  0.00    +0.052 A 
ATOM      9  C   UNL     1       1.252   3.414   0.069  0.00  0.00    +0.025 A 
ATOM     10  C   UNL     1       0.069   4.137   0.106  0.00  0.00    +0.002 A 
ATOM     11  C   UNL     1      -1.152   3.488   0.081  0.00  0.00    +0.002 A 
ATOM     12  C   UNL     1      -1.212   2.103   0.034  0.00  0.00    +0.025 A 
ATOM     13  C   UNL     1      -0.017   1.394   0.010  0.00  0.00    +0.052 A 
ATOM     14  N   UNL     1       0.002  -0.004   0.002  0.00  0.00    -0.316 N 
ATOM     15  C   UNL     1       2.099  -1.132   2.762  0.00  0.00    +0.163 C 
ATOM     16  O   UNL     1       3.193  -0.888   3.233  0.00  0.00    -0.292 OA
ATOM     17  C   UNL     1       1.246  -2.171   3.422  0.00  0.00    +0.086 C 
ATOM     18  C   UNL     1      -0.602  -3.820   3.034  0.00  0.00    +0.011 C 
ATOM     19  H   UNL     1      -0.303  -0.491  -0.779  0.00  0.00    +0.152 HD
ENDROOT
BRANCH   6  20
ATOM     20  C   UNL     1       4.003  -0.205   0.807  0.00  0.00    +0.130 A 
ATOM     21  C   UNL     1       5.084  -0.263   1.607  0.00  0.00    +0.047 A 
ATOM     22  C   UNL     1       6.034  -1.081   0.953  0.00  0.00    +0.041 A 
ATOM     23  C   UNL     1       5.480  -1.467  -0.211  0.00  0.00    +0.195 A 
ATOM     24  O   UNL     1       4.250  -0.934  -0.293  0.00  0.00    -0.466 OA
ENDBRANCH   6  20
BRANCH   7  25
ATOM     25  C   UNL     1       3.427   1.997  -0.698  0.00  0.00    +0.201 C 
BRANCH  25  26
ATOM     26  C   UNL     1       3.031   2.489  -2.066  0.00  0.00    +0.230 C 
ATOM     27  O   UNL     1       1.932   2.232  -2.509  0.00  0.00    -0.274 OA
ATOM     28  N   UNL     1       3.899   3.215  -2.798  0.00  0.00    -0.314 N 
ATOM     29  H   UNL     1       4.779   3.421  -2.444  0.00  0.00    +0.149 HD
BRANCH  28  30
ATOM     30  C   UNL     1       3.515   3.694  -4.128  0.00  0.00    +0.102 C 
BRANCH  30  31
ATOM     31  C   UNL     1       4.673   4.486  -4.739  0.00  0.00    +0.000 C 
BRANCH  31  32
ATOM     32  C   UNL     1       4.271   4.985  -6.129  0.00  0.00    -0.078 C 
BRANCH  32  35
ATOM     33  C   UNL     1       6.536   4.875  -6.977  0.00  0.00    -0.097 C 
ATOM     34  C   UNL     1       4.958   6.439  -7.939  0.00  0.00    -0.097 C 
ATOM     35  N   UNL     1       5.391   5.766  -6.697  0.00  0.00    +0.376 N 
ATOM     36  H   UNL     1       5.681   6.477  -6.016  0.00  0.00    -0.083 HD
ENDBRANCH  32  35
ENDBRANCH  31  32
ENDBRANCH  30  31
ENDBRANCH  28  30
ENDBRANCH  25  26
ENDBRANCH   7  25
TORSDOF 7
