REMARK  Name = ZINC61444911
REMARK  5 active torsions:
REMARK  status: ('A' for Active; 'I' for Inactive)
REMARK    1  A    between atoms: C_1  and  C_2
REMARK    2  A    between atoms: C_7  and  C_8
REMARK    3  A    between atoms: C_8  and  O_10
REMARK    4  A    between atoms: O_10  and  C_11
REMARK    5  A    between atoms: C_14  and  C_18
REMARK                            x       y       z     vdW  Elec       q    Type
REMARK                         _______ _______ _______ _____ _____    ______ ____
ROOT
ATOM      1  C   UNL     1      -0.286   1.509   0.031  0.00  0.00    +0.047 C 
ATOM      2  C   UNL     1      -0.165   0.007   0.013  0.00  0.00    -0.008 A 
ATOM      3  C   UNL     1      -0.129  -0.815  -1.119  0.00  0.00    +0.042 A 
ATOM      4  C   UNL     1      -0.012  -2.135  -0.682  0.00  0.00    +0.027 A 
ATOM      5  N   UNL     1       0.025  -2.123   0.651  0.00  0.00    -0.352 N 
ATOM      6  H   UNL     1       0.105  -2.907   1.217  0.00  0.00    +0.166 HD
ATOM      7  C   UNL     1      -0.063  -0.818   1.099  0.00  0.00    +0.129 A 
ATOM      8  C   UNL     1       0.051  -3.308  -1.627  0.00  0.00    +0.054 C 
ATOM      9  C   UNL     1      -0.528  -2.895  -2.983  0.00  0.00    +0.014 C 
ATOM     10  C   UNL     1       0.151  -1.621  -3.497  0.00  0.00    +0.080 C 
ATOM     11  C   UNL     1      -0.191  -0.480  -2.550  0.00  0.00    +0.165 C 
ATOM     12  O   UNL     1      -0.492   0.626  -2.947  0.00  0.00    -0.292 OA
ENDROOT
BRANCH   7  13
ATOM     13  C   UNL     1      -0.052  -0.391   2.502  0.00  0.00    +0.361 C 
ATOM     14  O   UNL     1      -0.139   0.789   2.779  0.00  0.00    -0.243 OA
BRANCH  13  15
ATOM     15  O   UNL     1       0.054  -1.309   3.485  0.00  0.00    -0.420 OA
BRANCH  15  16
ATOM     16  C   UNL     1       0.165  -0.863   4.763  0.00  0.00    +0.150 A 
ATOM     17  C   UNL     1       1.422  -0.697   5.332  0.00  0.00    +0.049 A 
ATOM     18  C   UNL     1       1.539  -0.245   6.628  0.00  0.00    +0.022 A 
ATOM     19  C   UNL     1       0.392   0.047   7.372  0.00  0.00    +0.053 A 
ATOM     20  C   UNL     1      -0.870  -0.122   6.796  0.00  0.00    +0.042 A 
ATOM     21  C   UNL     1      -0.979  -0.570   5.497  0.00  0.00    +0.084 A 
ATOM     22 CL   UNL     1      -2.546  -0.774   4.779  0.00  0.00    -0.080 Cl
BRANCH  19  23
ATOM     23  C   UNL     1       0.510   0.516   8.719  0.00  0.00    +0.099 C 
ATOM     24  N   UNL     1       0.603   0.889   9.788  0.00  0.00    -0.191 NA
ENDBRANCH  19  23
ENDBRANCH  15  16
ENDBRANCH  13  15
ENDBRANCH   7  13
TORSDOF 4
