REMARK  Name = ZINC02916798
REMARK  6 active torsions:
REMARK  status: ('A' for Active; 'I' for Inactive)
REMARK    1  A    between atoms: C_1  and  O_2
REMARK    2  A    between atoms: O_2  and  C_3
REMARK    3  A    between atoms: C_7  and  C_9
REMARK    4  A    between atoms: C_20  and  C_22
REMARK    5  A    between atoms: C_25  and  O_29
REMARK    6  A    between atoms: O_29  and  C_30
REMARK                            x       y       z     vdW  Elec       q    Type
REMARK                         _______ _______ _______ _____ _____    ______ ____
ROOT
ATOM      1  C   UNL     1       2.166  -4.372  -2.299  0.00  0.00    +0.159 C 
ATOM      2  C   UNL     1       3.322  -4.612  -1.352  0.00  0.00    +0.027 C 
ATOM      3  C   UNL     1       4.341  -5.385  -1.780  0.00  0.00    +0.083 C 
ATOM      4  C   UNL     1       5.464  -5.620  -0.836  0.00  0.00    +0.042 A 
ATOM      5  C   UNL     1       6.684  -6.119  -1.272  0.00  0.00    +0.013 A 
ATOM      6  C   UNL     1       7.703  -6.320  -0.360  0.00  0.00    +0.001 A 
ATOM      7  C   UNL     1       7.509  -6.027   0.978  0.00  0.00    +0.004 A 
ATOM      8  C   UNL     1       6.296  -5.531   1.420  0.00  0.00    +0.046 A 
ATOM      9  C   UNL     1       5.266  -5.325   0.518  0.00  0.00    +0.131 A 
ATOM     10  O   UNL     1       4.064  -4.845   0.925  0.00  0.00    -0.479 OA
ATOM     11  C   UNL     1       3.345  -4.005   0.020  0.00  0.00    +0.234 C 
ATOM     12  N   UNL     1       4.346  -5.930  -3.021  0.00  0.00    -0.213 NA
ATOM     13  C   UNL     1       3.387  -5.772  -3.902  0.00  0.00    +0.237 C 
ATOM     14  N   UNL     1       2.275  -5.012  -3.615  0.00  0.00    -0.208 N 
ATOM     15  N   UNL     1       1.463  -5.050  -4.751  0.00  0.00    -0.251 N 
ATOM     16  C   UNL     1       2.116  -5.819  -5.666  0.00  0.00    +0.203 C 
ATOM     17  N   UNL     1       3.233  -6.237  -5.162  0.00  0.00    -0.205 NA
ATOM     18  H   UNL     1       0.604  -4.614  -4.866  0.00  0.00    +0.171 HD
ENDROOT
BRANCH  11  19
ATOM     19  C   UNL     1       4.013  -2.656  -0.044  0.00  0.00    -0.002 A 
ATOM     20  C   UNL     1       5.372  -2.569  -0.288  0.00  0.00    +0.011 A 
ATOM     21  C   UNL     1       5.987  -1.333  -0.347  0.00  0.00    +0.047 A 
ATOM     22  C   UNL     1       5.241  -0.179  -0.162  0.00  0.00    +0.134 A 
ATOM     23  C   UNL     1       3.878  -0.268   0.082  0.00  0.00    +0.060 A 
ATOM     24  C   UNL     1       3.266  -1.506   0.135  0.00  0.00    +0.026 A 
ATOM     25 BR   UNL     1       2.857   1.304   0.335  0.00  0.00    -0.047 Br
BRANCH  22  26
ATOM     26  O   UNL     1       5.844   1.038  -0.219  0.00  0.00    -0.494 OA
ATOM     27  C   UNL     1       7.250   1.054  -0.473  0.00  0.00    +0.277 C 
ENDBRANCH  22  26
ENDBRANCH  11  19
BRANCH   1  32
ATOM     28  C   UNL     1       2.766  -0.860  -3.557  0.00  0.00    +0.120 A 
ATOM     29  C   UNL     1       1.776  -0.156  -2.886  0.00  0.00    +0.045 A 
ATOM     30  C   UNL     1       0.918  -0.818  -2.030  0.00  0.00    +0.004 A 
ATOM     31  C   UNL     1       1.045  -2.182  -1.841  0.00  0.00    +0.006 A 
ATOM     32  C   UNL     1       2.030  -2.886  -2.507  0.00  0.00    -0.018 A 
ATOM     33  C   UNL     1       2.887  -2.229  -3.370  0.00  0.00    +0.051 A 
BRANCH  28  35
ATOM     34  C   UNL     1       3.503   1.213  -4.458  0.00  0.00    +0.277 C 
ATOM     35  O   UNL     1       3.610  -0.211  -4.401  0.00  0.00    -0.495 OA
ENDBRANCH  28  35
ENDBRANCH   1  32
TORSDOF 4
