REMARK  Name = ZINC03425441
REMARK  9 active torsions:
REMARK  status: ('A' for Active; 'I' for Inactive)
REMARK    1  A    between atoms: C_1  and  N_59
REMARK    2  A    between atoms: C_2  and  N_59
REMARK    3  A    between atoms: C_3  and  C_5
REMARK    4  A    between atoms: C_3  and  C_29
REMARK    5  A    between atoms: C_3  and  N_59
REMARK    6  A    between atoms: C_5  and  N_6
REMARK    7  A    between atoms: C_7  and  C_9
REMARK    8  A    between atoms: C_13  and  S_15
REMARK    9  A    between atoms: S_15  and  N_18
REMARK                            x       y       z     vdW  Elec       q    Type
REMARK                         _______ _______ _______ _____ _____    ______ ____
ROOT
ATOM      1  C   UNL     1       1.705   6.630   1.395  0.00  0.00    +0.039 A 
ATOM      2  C   UNL     1       1.762   6.776   0.008  0.00  0.00    +0.014 A 
ATOM      3  C   UNL     1       1.790   8.037  -0.549  0.00  0.00    +0.023 A 
ATOM      4  C   UNL     1       1.762   9.157   0.265  0.00  0.00    +0.067 A 
ATOM      5  C   UNL     1       1.704   9.019   1.642  0.00  0.00    +0.124 A 
ATOM      6  C   UNL     1       1.671   7.763   2.210  0.00  0.00    +0.043 A 
ATOM      7 CL   UNL     1       1.797  10.742  -0.443  0.00  0.00    -0.082 Cl
ENDROOT
BRANCH   1   9
ATOM      8  N   UNL     1       1.701   4.189   1.209  0.00  0.00    -0.313 N 
ATOM      9  C   UNL     1       1.674   5.281   1.998  0.00  0.00    +0.244 C 
ATOM     10  O   UNL     1       1.624   5.156   3.207  0.00  0.00    -0.270 OA
ATOM     11  H   UNL     1       1.741   4.288   0.245  0.00  0.00    +0.149 HD
BRANCH   8  12
ATOM     12  C   UNL     1       1.670   2.852   1.807  0.00  0.00    +0.094 C 
BRANCH  12  13
ATOM     13  C   UNL     1       1.589   1.799   0.699  0.00  0.00    -0.014 C 
BRANCH  13  14
ATOM     14  C   UNL     1       1.708   0.424   1.303  0.00  0.00    -0.022 A 
ATOM     15  C   UNL     1       0.740  -0.501   1.517  0.00  0.00    +0.009 A 
ATOM     16  C   UNL     1       1.083  -1.710   2.091  0.00  0.00    +0.008 A 
ATOM     17  C   UNL     1       2.378  -1.936   2.424  0.00  0.00    +0.045 A 
ATOM     18  S   UNL     1       3.159  -0.411   1.923  0.00  0.00    -0.103 S 
ENDBRANCH  13  14
BRANCH  13  21
ATOM     19  C   UNL     1       3.972   2.138   0.437  0.00  0.00    -0.096 C 
ATOM     20  C   UNL     1       2.727   0.932  -1.254  0.00  0.00    -0.096 C 
ATOM     21  N   UNL     1       2.679   2.035  -0.271  0.00  0.00    +0.382 N 
ATOM     22  H   UNL     1       2.499   2.916  -0.767  0.00  0.00    -0.082 HD
ENDBRANCH  13  21
ENDBRANCH  12  13
ENDBRANCH   8  12
ENDBRANCH   1   9
BRANCH   5  23
ATOM     23  S   UNL     1       1.668  10.450   2.669  0.00  0.00    +0.063 S 
ATOM     24  O   UNL     1       1.700   9.987   4.012  0.00  0.00    -0.153 OA
ATOM     25  O   UNL     1       2.640  11.347   2.150  0.00  0.00    -0.153 OA
BRANCH  23  26
ATOM     26  N   UNL     1       0.194  11.172   2.452  0.00  0.00    -0.172 NA
ATOM     27  C   UNL     1       0.009  12.256   1.473  0.00  0.00    +0.114 C 
ATOM     28  C   UNL     1      -0.959  11.751   0.398  0.00  0.00    +0.052 C 
ATOM     29  C   UNL     1      -2.166  11.104   1.025  0.00  0.00    -0.042 A 
ATOM     30  C   UNL     1      -3.307  10.976   0.242  0.00  0.00    +0.004 A 
ATOM     31  C   UNL     1      -4.443  10.381   0.750  0.00  0.00    +0.000 A 
ATOM     32  C   UNL     1      -4.449   9.909   2.050  0.00  0.00    +0.000 A 
ATOM     33  C   UNL     1      -3.320  10.040   2.830  0.00  0.00    +0.005 A 
ATOM     34  C   UNL     1      -2.176  10.641   2.321  0.00  0.00    -0.028 A 
ATOM     35  C   UNL     1      -0.979  10.760   3.230  0.00  0.00    +0.144 C 
ENDBRANCH  23  26
ENDBRANCH   5  23
TORSDOF 7
