REMARK  Name = ZINC36398839
REMARK  4 active torsions:
REMARK  status: ('A' for Active; 'I' for Inactive)
REMARK    1  A    between atoms: C_1  and  C_2
REMARK    2  A    between atoms: N_12  and  C_13
REMARK    3  A    between atoms: C_17  and  C_20
REMARK    4  A    between atoms: C_18  and  C_19
REMARK                            x       y       z     vdW  Elec       q    Type
REMARK                         _______ _______ _______ _____ _____    ______ ____
ROOT
ATOM      1  C   UNL     1      -0.018   1.503   0.010  0.00  0.00    +0.066 C 
ATOM      2  C   UNL     1       0.002  -0.004   0.002  0.00  0.00    +0.046 A 
ATOM      3  C   UNL     1      -1.175  -0.722   0.004  0.00  0.00    +0.095 A 
ATOM      4  C   UNL     1      -1.135  -2.116  -0.005  0.00  0.00    +0.275 A 
ATOM      5  O   UNL     1      -2.174  -2.759  -0.004  0.00  0.00    -0.266 OA
ATOM      6  N   UNL     1       0.069  -2.763  -0.014  0.00  0.00    -0.170 N 
ATOM      7  C   UNL     1       1.185  -1.974  -0.015  0.00  0.00    +0.200 A 
ATOM      8  N   UNL     1       1.156  -0.666  -0.013  0.00  0.00    -0.227 NA
ATOM      9  S   UNL     1       2.503  -3.169  -0.028  0.00  0.00    -0.013 S 
ATOM     10  C   UNL     1       1.489  -4.639  -0.031  0.00  0.00    +0.182 A 
ATOM     11  N   UNL     1       0.283  -4.138  -0.023  0.00  0.00    -0.139 NA
ATOM     12  N   UNL     1       1.880  -5.966  -0.041  0.00  0.00    -0.319 N 
ATOM     13  H   UNL     1       1.211  -6.669  -0.042  0.00  0.00    +0.148 HD
ENDROOT
BRANCH  12  14
ATOM     14  C   UNL     1       3.304  -6.311  -0.050  0.00  0.00    +0.075 C 
ATOM     15  C   UNL     1       3.822  -6.300  -1.489  0.00  0.00    +0.022 C 
ATOM     16  C   UNL     1       5.309  -6.659  -1.498  0.00  0.00    +0.002 C 
ATOM     17  C   UNL     1       5.501  -8.053  -0.898  0.00  0.00    +0.003 C 
ATOM     18  C   UNL     1       4.982  -8.064   0.541  0.00  0.00    -0.009 C 
ATOM     19  C   UNL     1       3.495  -7.705   0.551  0.00  0.00    +0.009 C 
ATOM     20  C   UNL     1       2.718  -8.729  -0.279  0.00  0.00    +0.009 C 
ATOM     21  C   UNL     1       5.174  -9.459   1.142  0.00  0.00    +0.008 C 
ENDBRANCH  12  14
TORSDOF 1
