REMARK  Name = ZINC15277547
REMARK  8 active torsions:
REMARK  status: ('A' for Active; 'I' for Inactive)
REMARK    1  A    between atoms: C_1  and  C_2
REMARK    2  A    between atoms: C_2  and  C_3
REMARK    3  A    between atoms: C_2  and  C_4
REMARK    4  A    between atoms: C_4  and  C_5
REMARK    5  A    between atoms: C_5  and  C_32
REMARK    6  A    between atoms: C_10  and  C_12
REMARK    7  A    between atoms: C_17  and  O_18
REMARK    8  A    between atoms: N_23  and  C_26
REMARK                            x       y       z     vdW  Elec       q    Type
REMARK                         _______ _______ _______ _____ _____    ______ ____
ROOT
ATOM      1  C   UNL     1       1.479   1.748   0.070  0.00  0.00    +0.048 C 
ATOM      2  C   UNL     1       2.298   0.527   0.083  0.00  0.00    +0.086 C 
ATOM      3  C   UNL     1       1.701  -0.293   1.291  0.00  0.00    +0.077 C 
ATOM      4  C   UNL     1       0.232  -0.150   0.906  0.00  0.00    -0.023 C 
ATOM      5  C   UNL     1       2.448  -1.566   1.047  0.00  0.00    +0.229 C 
ATOM      6  O   UNL     1       2.055  -2.694   1.255  0.00  0.00    -0.275 OA
ATOM      7  N   UNL     1       3.664  -1.198   0.543  0.00  0.00    -0.210 N 
ATOM      8  C   UNL     1       3.686   0.104   0.109  0.00  0.00    +0.229 C 
ATOM      9  O   UNL     1       4.657   0.771  -0.179  0.00  0.00    -0.275 OA
ATOM     10  N   UNL     1       0.134   1.289   0.527  0.00  0.00    +0.396 N 
ATOM     11  H   UNL     1      -0.547   1.402  -0.233  0.00  0.00    -0.083 HD
ATOM     12  H   UNL     1      -0.164   1.842   1.339  0.00  0.00    -0.083 HD
ENDROOT
BRANCH   4  13
ATOM     13  C   UNL     1      -0.659  -0.463   2.080  0.00  0.00    -0.016 A 
ATOM     14  C   UNL     1      -1.121   0.559   2.889  0.00  0.00    +0.025 A 
ATOM     15  C   UNL     1      -1.944   0.274   3.963  0.00  0.00    +0.043 A 
ATOM     16  C   UNL     1      -2.297  -1.036   4.239  0.00  0.00    +0.043 A 
ATOM     17  C   UNL     1      -1.833  -2.061   3.436  0.00  0.00    +0.084 A 
ATOM     18  C   UNL     1      -1.012  -1.776   2.354  0.00  0.00    +0.137 A 
ATOM     19 CL   UNL     1      -2.276  -3.703   3.782  0.00  0.00    -0.080 Cl
ATOM     20 CL   UNL     1      -2.528   1.560   4.973  0.00  0.00    -0.083 Cl
BRANCH  18  21
ATOM     21  O   UNL     1      -0.554  -2.782   1.563  0.00  0.00    -0.505 OA
ATOM     22  H   UNL     1       0.290  -3.156   1.852  0.00  0.00    +0.292 HD
ENDBRANCH  18  21
ENDBRANCH   4  13
BRANCH   7  23
ATOM     23  C   UNL     1       4.770  -2.057   0.477  0.00  0.00    +0.044 A 
ATOM     24  C   UNL     1       5.970  -1.607  -0.055  0.00  0.00    +0.024 A 
ATOM     25  C   UNL     1       7.059  -2.454  -0.114  0.00  0.00    +0.002 A 
ATOM     26  C   UNL     1       6.951  -3.754   0.345  0.00  0.00    +0.000 A 
ATOM     27  C   UNL     1       5.755  -4.207   0.871  0.00  0.00    +0.002 A 
ATOM     28  C   UNL     1       4.665  -3.363   0.938  0.00  0.00    +0.024 A 
ENDBRANCH   7  23
BRANCH   1  29
ATOM     29  C   UNL     1       1.402   2.315  -1.324  0.00  0.00    +0.346 C 
ATOM     30  O   UNL     1       2.331   2.177  -2.084  0.00  0.00    -0.248 OA
ATOM     31  O   UNL     1       0.302   2.973  -1.721  0.00  0.00    -0.248 OA
ENDBRANCH   1  29
BRANCH   1  32
ATOM     32  C   UNL     1       2.051   2.784   1.039  0.00  0.00    +0.002 C 
BRANCH  32  34
ATOM     33  C   UNL     1      -0.199   3.734   1.566  0.00  0.00    +0.007 C 
ATOM     34  C   UNL     1       1.188   4.047   1.002  0.00  0.00    -0.018 C 
ATOM     35  C   UNL     1       1.847   5.140   1.847  0.00  0.00    +0.007 C 
ENDBRANCH  32  34
ENDBRANCH   1  32
TORSDOF 6
