REMARK  Name = ZINC06443682
REMARK  7 active torsions:
REMARK  status: ('A' for Active; 'I' for Inactive)
REMARK    1  A    between atoms: C_1  and  C_2
REMARK    2  A    between atoms: C_12  and  C_14
REMARK    3  A    between atoms: C_14  and  C_16
REMARK    4  A    between atoms: C_14  and  N_67
REMARK    5  A    between atoms: N_20  and  C_21
REMARK    6  A    between atoms: C_21  and  C_22
REMARK    7  A    between atoms: N_30  and  C_33
REMARK                            x       y       z     vdW  Elec       q    Type
REMARK                         _______ _______ _______ _____ _____    ______ ____
ROOT
ATOM      1  C   UNL     1       2.457   5.676   0.007  0.00  0.00    +0.039 C 
ENDROOT
BRANCH   1  13
ATOM      2  C   UNL     1       3.207  -0.842  -0.387  0.00  0.00    +0.046 C 
ATOM      3  C   UNL     1       1.969   0.018  -0.364  0.00  0.00    -0.026 A 
ATOM      4  C   UNL     1       0.721  -0.564  -0.432  0.00  0.00    +0.005 A 
ATOM      5  C   UNL     1      -0.426   0.217  -0.411  0.00  0.00    +0.001 A 
ATOM      6  C   UNL     1      -0.340   1.577  -0.322  0.00  0.00    +0.010 A 
ATOM      7  C   UNL     1       0.916   2.189  -0.252  0.00  0.00    -0.001 A 
ATOM      8  C   UNL     1       2.082   1.401  -0.273  0.00  0.00    +0.052 A 
ATOM      9  N   UNL     1       3.317   2.009  -0.204  0.00  0.00    -0.322 N 
ATOM     10  H   UNL     1       4.120   1.464  -0.219  0.00  0.00    +0.169 HD
ATOM     11  C   UNL     1       3.426   3.346  -0.117  0.00  0.00    +0.251 A 
ATOM     12  O   UNL     1       4.534   3.850  -0.057  0.00  0.00    -0.268 OA
ATOM     13  C   UNL     1       2.288   4.182  -0.092  0.00  0.00    +0.011 A 
ATOM     14  C   UNL     1       1.045   3.645  -0.157  0.00  0.00    +0.017 A 
ENDBRANCH   1  13
BRANCH   1  20
ATOM     15  C   UNL     1       3.595   7.585  -0.955  0.00  0.00    -0.058 C 
ATOM     16  C   UNL     1       4.593   8.013  -2.032  0.00  0.00    +0.086 C 
ATOM     17  N   UNL     1       4.059   7.667  -3.357  0.00  0.00    -0.333 N 
ATOM     18  C   UNL     1       3.818   6.221  -3.463  0.00  0.00    +0.086 C 
ATOM     19  C   UNL     1       2.819   5.793  -2.385  0.00  0.00    -0.058 C 
ATOM     20  N   UNL     1       3.378   6.127  -1.058  0.00  0.00    +0.391 N 
ATOM     21  H   UNL     1       4.279   5.647  -0.945  0.00  0.00    -0.080 HD
BRANCH  17  22
ATOM     22  C   UNL     1       4.913   8.108  -4.372  0.00  0.00    +0.030 A 
ATOM     23  C   UNL     1       5.413   7.205  -5.302  0.00  0.00    +0.026 A 
ATOM     24  C   UNL     1       6.252   7.644  -6.307  0.00  0.00    +0.040 A 
ATOM     25  C   UNL     1       6.604   8.982  -6.383  0.00  0.00    +0.124 A 
ATOM     26  C   UNL     1       6.111   9.883  -5.454  0.00  0.00    +0.040 A 
ATOM     27  C   UNL     1       5.267   9.449  -4.450  0.00  0.00    +0.026 A 
ATOM     28  F   UNL     1       7.429   9.408  -7.364  0.00  0.00    -0.205 F 
ENDBRANCH  17  22
ENDBRANCH   1  20
BRANCH   1  29
ATOM     29  C   UNL     1       3.048   6.027   1.348  0.00  0.00    +0.143 A 
ATOM     30  N   UNL     1       4.293   5.861   1.722  0.00  0.00    -0.115 NA
ATOM     31  N   UNL     1       4.404   6.284   2.934  0.00  0.00    -0.023 NA
ATOM     32  N   UNL     1       3.260   6.709   3.345  0.00  0.00    -0.044 NA
ATOM     33  N   UNL     1       2.398   6.567   2.396  0.00  0.00    -0.228 N 
BRANCH  33  34
ATOM     34  C   UNL     1       0.979   6.926   2.449  0.00  0.00    +0.178 C 
BRANCH  34  35
ATOM     35  C   UNL     1       0.168   5.729   2.951  0.00  0.00    +0.140 C 
ATOM     36  C   UNL     1      -1.339   6.059   2.901  0.00  0.00    +0.035 C 
ATOM     37  C   UNL     1      -1.863   5.404   4.208  0.00  0.00    +0.031 C 
ATOM     38  C   UNL     1      -0.651   5.617   5.151  0.00  0.00    +0.160 C 
ATOM     39  O   UNL     1       0.506   5.452   4.316  0.00  0.00    -0.375 OA
ENDBRANCH  34  35
ENDBRANCH  33  34
ENDBRANCH   1  29
TORSDOF 6
