REMARK  Name = ZINC04791647
REMARK  9 active torsions:
REMARK  status: ('A' for Active; 'I' for Inactive)
REMARK    1  A    between atoms: C_1  and  C_2
REMARK    2  A    between atoms: N_5  and  C_8
REMARK    3  A    between atoms: C_8  and  C_9
REMARK    4  A    between atoms: C_9  and  C_10
REMARK    5  A    between atoms: C_10  and  N_11
REMARK    6  A    between atoms: C_12  and  C_14
REMARK    7  A    between atoms: N_24  and  C_27
REMARK    8  A    between atoms: C_27  and  C_28
REMARK    9  A    between atoms: C_28  and  C_29
REMARK                            x       y       z     vdW  Elec       q    Type
REMARK                         _______ _______ _______ _____ _____    ______ ____
ROOT
ATOM      1  C   UNL     1       4.701  -7.998   3.597  0.00  0.00    +0.039 A 
ATOM      2  C   UNL     1       5.212  -7.035   4.473  0.00  0.00    +0.014 A 
ATOM      3  C   UNL     1       6.003  -7.413   5.535  0.00  0.00    +0.016 A 
ATOM      4  C   UNL     1       6.293  -8.761   5.735  0.00  0.00    +0.063 A 
ATOM      5  C   UNL     1       5.783  -9.733   4.858  0.00  0.00    +0.056 A 
ATOM      6  C   UNL     1       4.983  -9.348   3.794  0.00  0.00    +0.039 A 
ATOM      7  N   UNL     1       6.091 -11.067   5.086  0.00  0.00    -0.307 N 
ATOM      8  H   UNL     1       5.746 -11.748   4.489  0.00  0.00    +0.170 HD
ATOM      9  C   UNL     1       6.864 -11.424   6.127  0.00  0.00    +0.330 A 
ATOM     10  O   UNL     1       7.110 -12.603   6.291  0.00  0.00    -0.246 OA
ATOM     11  N   UNL     1       7.375 -10.534   6.992  0.00  0.00    -0.260 N 
ATOM     12  C   UNL     1       7.136  -9.211   6.860  0.00  0.00    +0.264 A 
ATOM     13  O   UNL     1       7.603  -8.412   7.648  0.00  0.00    -0.267 OA
ENDROOT
BRANCH   1  15
ATOM     14  N   UNL     1       3.577  -6.276   2.265  0.00  0.00    -0.311 N 
ATOM     15  C   UNL     1       3.852  -7.581   2.458  0.00  0.00    +0.244 C 
ATOM     16  O   UNL     1       3.402  -8.416   1.698  0.00  0.00    -0.270 OA
ATOM     17  H   UNL     1       3.936  -5.609   2.871  0.00  0.00    +0.149 HD
BRANCH  14  18
ATOM     18  C   UNL     1       2.736  -5.863   1.138  0.00  0.00    +0.102 C 
BRANCH  18  19
ATOM     19  C   UNL     1       2.582  -4.341   1.147  0.00  0.00    +0.000 C 
BRANCH  19  20
ATOM     20  C   UNL     1       1.704  -3.911  -0.029  0.00  0.00    -0.077 C 
BRANCH  20  25
ATOM     21  C   UNL     1      -0.019   1.526   0.010  0.00  0.00    +0.007 C 
ATOM     22  C   UNL     1       0.002  -0.004   0.002  0.00  0.00    -0.018 C 
ATOM     23  C   UNL     1       0.727  -0.499  -1.252  0.00  0.00    -0.016 C 
ATOM     24  C   UNL     1       0.814  -2.027  -1.215  0.00  0.00    -0.079 C 
ATOM     25  N   UNL     1       1.556  -2.449  -0.021  0.00  0.00    +0.380 N 
ATOM     26  C   UNL     1       0.829  -2.040   1.187  0.00  0.00    -0.079 C 
ATOM     27  C   UNL     1       0.743  -0.513   1.242  0.00  0.00    -0.016 C 
ATOM     28  H   UNL     1       2.469  -2.020  -0.024  0.00  0.00    -0.082 HD
ENDBRANCH  20  25
ENDBRANCH  19  20
ENDBRANCH  18  19
ENDBRANCH  14  18
ENDBRANCH   1  15
BRANCH  11  29
ATOM     29  C   UNL     1       8.208 -11.007   8.100  0.00  0.00    +0.134 C 
BRANCH  29  30
ATOM     30  C   UNL     1       9.673 -11.042   7.659  0.00  0.00    +0.057 C 
BRANCH  30  31
ATOM     31  C   UNL     1      10.530 -11.528   8.799  0.00  0.00    -0.046 A 
ATOM     32  C   UNL     1      11.058 -10.624   9.701  0.00  0.00    +0.004 A 
ATOM     33  C   UNL     1      11.845 -11.070  10.746  0.00  0.00    +0.000 A 
ATOM     34  C   UNL     1      12.102 -12.421  10.890  0.00  0.00    +0.000 A 
ATOM     35  C   UNL     1      11.572 -13.325   9.989  0.00  0.00    +0.000 A 
ATOM     36  C   UNL     1      10.783 -12.879   8.945  0.00  0.00    +0.004 A 
ENDBRANCH  30  31
ENDBRANCH  29  30
ENDBRANCH  11  29
TORSDOF 8
