REMARK  Name = ZINC16429626
REMARK  5 active torsions:
REMARK  status: ('A' for Active; 'I' for Inactive)
REMARK    1  A    between atoms: C_6  and  C_7
REMARK    2  A    between atoms: C_10  and  C_12
REMARK    3  A    between atoms: C_13  and  N_33
REMARK    4  A    between atoms: C_17  and  C_19
REMARK    5  A    between atoms: C_22  and  N_25
REMARK                            x       y       z     vdW  Elec       q    Type
REMARK                         _______ _______ _______ _____ _____    ______ ____
ROOT
ATOM      1  C   UNL     1      -3.665   2.072   0.687  0.00  0.00    +0.054 C 
ATOM      2  C   UNL     1      -3.476   3.390   0.480  0.00  0.00    +0.190 C 
ATOM      3  O   UNL     1      -2.377   3.853  -0.140  0.00  0.00    -0.446 OA
ATOM      4  C   UNL     1      -1.264   3.098  -0.183  0.00  0.00    +0.115 C 
ATOM      5  C   UNL     1      -1.318   1.762  -0.019  0.00  0.00    +0.045 C 
ATOM      6  C   UNL     1      -2.639   1.073   0.231  0.00  0.00    +0.093 C 
ATOM      7  C   UNL     1      -0.154   0.972  -0.056  0.00  0.00    +0.163 C 
ATOM      8  O   UNL     1      -0.246  -0.232   0.078  0.00  0.00    -0.292 OA
ATOM      9  C   UNL     1       1.201   1.592  -0.264  0.00  0.00    +0.080 C 
ATOM     10  C   UNL     1       1.178   3.026   0.275  0.00  0.00    +0.016 C 
ATOM     11  C   UNL     1       0.055   3.791  -0.429  0.00  0.00    +0.075 C 
ENDROOT
BRANCH   6  12
ATOM     12  C   UNL     1      -3.107   0.423  -1.046  0.00  0.00    -0.035 A 
ATOM     13  C   UNL     1      -3.351   1.196  -2.166  0.00  0.00    +0.007 A 
ATOM     14  C   UNL     1      -3.776   0.600  -3.338  0.00  0.00    +0.033 A 
ATOM     15  C   UNL     1      -3.966  -0.769  -3.387  0.00  0.00    +0.126 A 
ATOM     16  C   UNL     1      -3.727  -1.541  -2.266  0.00  0.00    +0.033 A 
ATOM     17  C   UNL     1      -3.297  -0.945  -1.095  0.00  0.00    +0.007 A 
BRANCH  15  18
ATOM     18  N   UNL     1      -4.427  -1.407  -4.641  0.00  0.00    +0.056 N 
ATOM     19  O   UNL     1      -4.596  -2.612  -4.684  0.00  0.00    -0.126 OA
ATOM     20  O   UNL     1      -4.638  -0.727  -5.629  0.00  0.00    -0.126 OA
ENDBRANCH  15  18
ENDBRANCH   6  12
BRANCH   1  24
ATOM     21  C   UNL     1      -6.965   1.714   2.344  0.00  0.00    +0.079 A 
ATOM     22  C   UNL     1      -6.915   0.369   2.589  0.00  0.00    +0.075 A 
ATOM     23  S   UNL     1      -5.315  -0.037   1.902  0.00  0.00    -0.075 S 
ATOM     24  C   UNL     1      -4.878   1.610   1.362  0.00  0.00    +0.111 A 
ATOM     25  N   UNL     1      -5.946   2.304   1.742  0.00  0.00    -0.239 NA
BRANCH  21  31
ATOM     26  C   UNL     1      -8.242   3.854   2.417  0.00  0.00    +0.011 A 
ATOM     27  C   UNL     1      -9.349   4.585   2.797  0.00  0.00    +0.020 A 
ATOM     28  C   UNL     1     -10.363   3.982   3.523  0.00  0.00    +0.041 A 
ATOM     29  C   UNL     1     -10.274   2.644   3.865  0.00  0.00    +0.020 A 
ATOM     30  C   UNL     1      -9.174   1.903   3.485  0.00  0.00    +0.011 A 
ATOM     31  C   UNL     1      -8.150   2.505   2.755  0.00  0.00    +0.001 A 
ATOM     32 CL   UNL     1     -11.750   4.908   4.004  0.00  0.00    -0.084 Cl
ENDBRANCH  21  31
ENDBRANCH   1  24
BRANCH   2  33
ATOM     33  N   UNL     1      -4.433   4.285   0.914  0.00  0.00    -0.329 N 
ATOM     34  H   UNL     1      -4.450   5.187   0.559  0.00  0.00    +0.145 HD
ATOM     35  H   UNL     1      -5.088   4.011   1.575  0.00  0.00    +0.145 HD
ENDBRANCH   2  33
TORSDOF 5
