REMARK  Name = ZINC37229564
REMARK  12 active torsions:
REMARK  status: ('A' for Active; 'I' for Inactive)
REMARK    1  A    between atoms: C_1  and  C_2
REMARK    2  A    between atoms: C_13  and  O_15
REMARK    3  A    between atoms: N_21  and  O_22
REMARK    4  A    between atoms: O_22  and  C_23
REMARK    5  A    between atoms: C_23  and  C_24
REMARK    6  A    between atoms: N_26  and  C_27
REMARK    7  A    between atoms: C_27  and  C_29
REMARK    8  A    between atoms: C_27  and  C_36
REMARK    9  A    between atoms: C_29  and  C_30
REMARK   10  A    between atoms: C_36  and  O_38
REMARK   11  A    between atoms: O_38  and  C_39
REMARK   12  A    between atoms: C_42  and  C_43
REMARK                            x       y       z     vdW  Elec       q    Type
REMARK                         _______ _______ _______ _____ _____    ______ ____
ROOT
ATOM      1  C   UNL     1      -0.019   1.542   0.011  0.00  0.00    +0.014 C 
ATOM      2  C   UNL     1       0.002  -0.004   0.002  0.00  0.00    -0.003 C 
ATOM      3  C   UNL     1       0.633  -0.415  -1.306  0.00  0.00    +0.010 C 
ATOM      4  C   UNL     1       1.158  -1.848  -1.302  0.00  0.00    +0.005 C 
ATOM      5  C   UNL     1       2.154  -1.988  -0.147  0.00  0.00    +0.002 C 
ATOM      6  C   UNL     1       1.381  -1.835   1.160  0.00  0.00    -0.003 C 
ATOM      7  C   UNL     1       0.751  -0.450   1.258  0.00  0.00    +0.001 C 
ATOM      8  C   UNL     1      -0.348  -0.491   2.353  0.00  0.00    +0.007 C 
ATOM      9  C   UNL     1      -1.640  -0.886   1.611  0.00  0.00    +0.032 C 
ATOM     10  C   UNL     1      -1.451  -0.465   0.144  0.00  0.00    +0.121 C 
ATOM     11  C   UNL     1       0.334  -2.937   1.290  0.00  0.00    +0.008 C 
ATOM     12  C   UNL     1       1.029  -4.300   1.338  0.00  0.00    +0.031 C 
ATOM     13  C   UNL     1       1.929  -4.446   0.126  0.00  0.00    -0.062 C 
ATOM     14  C   UNL     1       1.817  -5.559  -0.590  0.00  0.00    +0.026 C 
ATOM     15  C   UNL     1       2.685  -5.791  -1.755  0.00  0.00    +0.080 C 
ATOM     16  N   UNL     1       2.409  -6.694  -2.643  0.00  0.00    -0.089 NA
ATOM     17  C   UNL     1       3.938  -4.944  -1.851  0.00  0.00    +0.059 C 
ATOM     18  C   UNL     1       3.549  -3.495  -1.567  0.00  0.00    +0.017 C 
ATOM     19  C   UNL     1       2.874  -3.335  -0.214  0.00  0.00    -0.007 C 
ATOM     20  C   UNL     1       3.987  -3.329   0.841  0.00  0.00    +0.016 C 
ENDROOT
BRANCH  10  21
ATOM     21  O   UNL     1      -1.742  -1.548  -0.737  0.00  0.00    -0.391 OA
ATOM     22  H   UNL     1      -2.652  -1.869  -0.678  0.00  0.00    +0.210 HD
ENDBRANCH  10  21
BRANCH  16  23
ATOM     23  O   UNL     1       1.245  -7.489  -2.506  0.00  0.00    -0.384 OA
BRANCH  23  24
ATOM     24  C   UNL     1       1.067  -8.443  -3.556  0.00  0.00    +0.358 C 
BRANCH  24  25
ATOM     25  C   UNL     1      -0.195  -9.229  -3.310  0.00  0.00    +0.254 C 
ATOM     26  O   UNL     1      -0.875  -8.996  -2.333  0.00  0.00    -0.272 OA
ATOM     27  N   UNL     1      -0.569 -10.191  -4.176  0.00  0.00    -0.299 N 
ATOM     28  H   UNL     1      -0.026 -10.378  -4.958  0.00  0.00    +0.150 HD
BRANCH  27  29
ATOM     29  C   UNL     1      -1.796 -10.956  -3.938  0.00  0.00    +0.186 C 
BRANCH  29  30
ATOM     30  C   UNL     1      -1.498 -12.107  -3.012  0.00  0.00    +0.328 C 
ATOM     31  O   UNL     1      -0.376 -12.272  -2.594  0.00  0.00    -0.249 OA
BRANCH  30  32
ATOM     32  O   UNL     1      -2.479 -12.949  -2.651  0.00  0.00    -0.467 OA
ATOM     33  C   UNL     1      -2.126 -14.018  -1.771  0.00  0.00    +0.280 C 
ENDBRANCH  30  32
ENDBRANCH  29  30
BRANCH  29  34
ATOM     34  C   UNL     1      -2.328 -11.495  -5.267  0.00  0.00    +0.069 C 
BRANCH  34  35
ATOM     35  C   UNL     1      -2.740 -10.344  -6.147  0.00  0.00    -0.045 A 
ATOM     36  C   UNL     1      -4.033  -9.856  -6.087  0.00  0.00    +0.004 A 
ATOM     37  C   UNL     1      -4.411  -8.800  -6.894  0.00  0.00    +0.000 A 
ATOM     38  C   UNL     1      -3.498  -8.231  -7.761  0.00  0.00    +0.000 A 
ATOM     39  C   UNL     1      -2.205  -8.717  -7.821  0.00  0.00    +0.000 A 
ATOM     40  C   UNL     1      -1.825  -9.771  -7.011  0.00  0.00    +0.004 A 
ENDBRANCH  34  35
ENDBRANCH  29  34
ENDBRANCH  27  29
ENDBRANCH  24  25
ENDBRANCH  23  24
ENDBRANCH  16  23
TORSDOF 9
