REMARK  Name = ZINC39325413
REMARK  6 active torsions:
REMARK  status: ('A' for Active; 'I' for Inactive)
REMARK    1  A    between atoms: C_3  and  C_6
REMARK    2  A    between atoms: C_6  and  N_7
REMARK    3  A    between atoms: N_7  and  C_8
REMARK    4  A    between atoms: N_7  and  S_25
REMARK    5  A    between atoms: C_8  and  C_9
REMARK    6  A    between atoms: S_25  and  C_28
REMARK                            x       y       z     vdW  Elec       q    Type
REMARK                         _______ _______ _______ _____ _____    ______ ____
ROOT
ATOM      1  N   UNL     1       4.210   1.934   1.266  0.00  0.00    -0.171 NA
ENDROOT
BRANCH   1   2
ATOM      2  S   UNL     1       4.157   3.461   1.903  0.00  0.00    +0.061 S 
ATOM      3  O   UNL     1       5.186   3.530   2.880  0.00  0.00    -0.153 OA
ATOM      4  O   UNL     1       4.089   4.358   0.803  0.00  0.00    -0.153 OA
BRANCH   2   5
ATOM      5  C   UNL     1       2.630   3.611   2.769  0.00  0.00    +0.106 A 
ATOM      6  C   UNL     1       1.502   4.063   2.109  0.00  0.00    +0.030 A 
ATOM      7  C   UNL     1       0.304   4.181   2.788  0.00  0.00    +0.022 A 
ATOM      8  C   UNL     1       0.233   3.848   4.129  0.00  0.00    +0.041 A 
ATOM      9  C   UNL     1       1.362   3.395   4.789  0.00  0.00    +0.022 A 
ATOM     10  C   UNL     1       2.558   3.272   4.108  0.00  0.00    +0.030 A 
ATOM     11 CL   UNL     1      -1.271   3.996   4.983  0.00  0.00    -0.084 Cl
ENDBRANCH   2   5
ENDBRANCH   1   2
BRANCH   1  12
ATOM     12  C   UNL     1       3.811   1.706  -0.125  0.00  0.00    +0.151 C 
BRANCH  12  15
ATOM     13  C   UNL     1       0.019   1.392  -0.295  0.00  0.00    +0.008 A 
ATOM     14  C   UNL     1       1.250   2.020  -0.272  0.00  0.00    +0.012 A 
ATOM     15  C   UNL     1       2.371   1.265  -0.170  0.00  0.00    +0.005 A 
ATOM     16  S   UNL     1       1.698  -0.388  -0.102  0.00  0.00    -0.100 S 
ATOM     17  C   UNL     1      -0.031   0.040  -0.214  0.00  0.00    +0.045 A 
ENDBRANCH  12  15
ENDBRANCH   1  12
BRANCH   1  18
ATOM     18  C   UNL     1       4.655   0.810   2.094  0.00  0.00    +0.126 C 
BRANCH  18  19
ATOM     19  C   UNL     1       6.160   0.604   1.907  0.00  0.00    +0.114 C 
ATOM     20  C   UNL     1       6.417   0.368   0.432  0.00  0.00    -0.003 C 
ATOM     21  C   UNL     1       7.029  -0.795   0.082  0.00  0.00    -0.003 A 
ATOM     22  C   UNL     1       7.312  -1.100  -1.321  0.00  0.00    +0.059 A 
ATOM     23  C   UNL     1       7.927  -2.272  -1.639  0.00  0.00    +0.163 A 
ATOM     24  C   UNL     1       8.296  -3.195  -0.639  0.00  0.00    +0.164 A 
ATOM     25  C   UNL     1       8.049  -2.955   0.697  0.00  0.00    +0.073 A 
ATOM     26  C   UNL     1       7.420  -1.775   1.113  0.00  0.00    +0.044 A 
ATOM     27  N   UNL     1       7.190  -1.563   2.411  0.00  0.00    -0.284 N 
ATOM     28  C   UNL     1       6.603  -0.473   2.871  0.00  0.00    +0.225 C 
ATOM     29  O   UNL     1       6.420  -0.337   4.066  0.00  0.00    -0.275 OA
ATOM     30  O   UNL     1       8.919  -4.356  -0.977  0.00  0.00    -0.485 OA
ATOM     31  C   UNL     1       8.824  -4.767  -2.344  0.00  0.00    +0.270 C 
ATOM     32  C   UNL     1       9.138  -3.557  -3.234  0.00  0.00    +0.270 C 
ATOM     33  O   UNL     1       8.176  -2.535  -2.953  0.00  0.00    -0.485 OA
ATOM     34  H   UNL     1       7.467  -2.242   3.046  0.00  0.00    +0.155 HD
ENDBRANCH  18  19
ENDBRANCH   1  18
TORSDOF 6
