REMARK  Name = ZINC35862184
REMARK  9 active torsions:
REMARK  status: ('A' for Active; 'I' for Inactive)
REMARK    1  A    between atoms: C_4  and  C_7
REMARK    2  A    between atoms: C_11  and  O_23
REMARK    3  A    between atoms: C_18  and  C_20
REMARK    4  A    between atoms: O_23  and  C_24
REMARK    5  A    between atoms: C_24  and  C_25
REMARK    6  A    between atoms: C_28  and  C_30
REMARK    7  A    between atoms: N_32  and  C_33
REMARK    8  A    between atoms: C_33  and  C_34
REMARK    9  A    between atoms: C_34  and  N_35
REMARK                            x       y       z     vdW  Elec       q    Type
REMARK                         _______ _______ _______ _____ _____    ______ ____
ROOT
ATOM      1  C   UNL     1       3.711  -0.707  -0.038  0.00  0.00    +0.137 C 
ATOM      2  C   UNL     1       4.104  -1.065   1.374  0.00  0.00    -0.016 A 
ATOM      3  C   UNL     1       4.514  -0.038   2.211  0.00  0.00    +0.051 A 
ATOM      4  C   UNL     1       4.878  -0.302   3.521  0.00  0.00    +0.121 A 
ATOM      5  C   UNL     1       4.830  -1.605   3.996  0.00  0.00    +0.046 A 
ATOM      6  C   UNL     1       4.427  -2.623   3.160  0.00  0.00    +0.007 A 
ATOM      7  C   UNL     1       4.067  -2.360   1.843  0.00  0.00    -0.040 A 
ATOM      8  C   UNL     1       3.664  -3.529   0.983  0.00  0.00    +0.054 C 
ATOM      9  C   UNL     1       2.859  -3.061  -0.229  0.00  0.00    +0.113 C 
ATOM     10  N   UNL     1       3.576  -1.929  -0.837  0.00  0.00    -0.290 N 
ATOM     11  C   UNL     1       4.088  -2.013  -2.082  0.00  0.00    +0.219 C 
ATOM     12  O   UNL     1       4.674  -1.065  -2.561  0.00  0.00    -0.275 OA
ENDROOT
BRANCH   1  16
ATOM     13  C   UNL     1      -0.016   1.379   0.014  0.00  0.00    +0.000 A 
ATOM     14  C   UNL     1       0.088   0.135   0.608  0.00  0.00    +0.000 A 
ATOM     15  C   UNL     1       1.294  -0.540   0.592  0.00  0.00    +0.006 A 
ATOM     16  C   UNL     1       2.396   0.029  -0.020  0.00  0.00    -0.023 A 
ATOM     17  C   UNL     1       2.292   1.272  -0.615  0.00  0.00    +0.006 A 
ATOM     18  C   UNL     1       1.086   1.948  -0.597  0.00  0.00    +0.000 A 
ENDBRANCH   1  16
BRANCH  11  19
ATOM     19  C   UNL     1       3.932  -3.283  -2.877  0.00  0.00    +0.075 C 
ATOM     20  C   UNL     1       5.193  -4.105  -3.150  0.00  0.00    +0.013 C 
ATOM     21  C   UNL     1       4.534  -3.315  -4.283  0.00  0.00    +0.013 C 
ENDBRANCH  11  19
BRANCH   4  22
ATOM     22  O   UNL     1       5.279   0.709   4.336  0.00  0.00    -0.484 OA
BRANCH  22  23
ATOM     23  C   UNL     1       5.639   0.359   5.674  0.00  0.00    +0.303 C 
BRANCH  23  24
ATOM     24  C   UNL     1       6.055   1.599   6.423  0.00  0.00    +0.143 A 
ATOM     25  C   UNL     1       5.233   2.398   7.138  0.00  0.00    +0.049 A 
ATOM     26  C   UNL     1       6.021   3.431   7.669  0.00  0.00    +0.055 A 
ATOM     27  C   UNL     1       7.300   3.207   7.245  0.00  0.00    +0.190 A 
ATOM     28  O   UNL     1       7.300   2.087   6.494  0.00  0.00    -0.452 OA
BRANCH  27  29
ATOM     29  C   UNL     1       8.469   4.036   7.556  0.00  0.00    +0.279 C 
ATOM     30  O   UNL     1       8.344   5.027   8.251  0.00  0.00    -0.267 OA
ATOM     31  N   UNL     1       9.681   3.701   7.071  0.00  0.00    -0.311 N 
ATOM     32  H   UNL     1       9.780   2.911   6.517  0.00  0.00    +0.149 HD
BRANCH  31  33
ATOM     33  C   UNL     1      10.849   4.529   7.382  0.00  0.00    +0.086 C 
BRANCH  33  34
ATOM     34  C   UNL     1      12.089   3.933   6.714  0.00  0.00    -0.060 C 
BRANCH  34  35
ATOM     35  N   UNL     1      13.260   4.763   7.026  0.00  0.00    +0.381 N 
ATOM     36  C   UNL     1      13.600   4.649   8.467  0.00  0.00    -0.079 C 
ATOM     37  C   UNL     1      15.089   5.074   8.514  0.00  0.00    -0.020 C 
ATOM     38  C   UNL     1      15.663   4.470   7.212  0.00  0.00    -0.020 C 
ATOM     39  C   UNL     1      14.445   4.269   6.291  0.00  0.00    -0.079 C 
ATOM     40  H   UNL     1      13.078   5.726   6.785  0.00  0.00    -0.082 HD
ENDBRANCH  34  35
ENDBRANCH  33  34
ENDBRANCH  31  33
ENDBRANCH  27  29
ENDBRANCH  23  24
ENDBRANCH  22  23
ENDBRANCH   4  22
TORSDOF 9
