REMARK  Name = ZINC36502658
REMARK  13 active torsions:
REMARK  status: ('A' for Active; 'I' for Inactive)
REMARK    1  A    between atoms: C_1  and  C_2
REMARK    2  A    between atoms: C_5  and  S_8
REMARK    3  A    between atoms: S_8  and  C_11
REMARK    4  A    between atoms: C_11  and  N_12
REMARK    5  A    between atoms: C_13  and  C_15
REMARK    6  A    between atoms: C_15  and  C_17
REMARK    7  A    between atoms: C_15  and  N_24
REMARK    8  A    between atoms: C_21  and  O_23
REMARK    9  A    between atoms: N_24  and  C_25
REMARK   10  A    between atoms: C_25  and  C_26
REMARK   11  A    between atoms: C_31  and  C_33
REMARK   12  A    between atoms: C_34  and  C_35
REMARK   13  A    between atoms: C_34  and  C_36
REMARK                            x       y       z     vdW  Elec       q    Type
REMARK                         _______ _______ _______ _____ _____    ______ ____
ROOT
ATOM      1  C   UNL     1       1.202  -4.943   5.828  0.00  0.00    +0.193 C 
ENDROOT
BRANCH   1   2
ATOM      2  C   UNL     1       0.613  -4.549   7.158  0.00  0.00    -0.015 A 
ATOM      3  C   UNL     1       0.287  -5.523   8.084  0.00  0.00    +0.006 A 
ATOM      4  C   UNL     1      -0.254  -5.165   9.305  0.00  0.00    +0.004 A 
ATOM      5  C   UNL     1      -0.470  -3.833   9.603  0.00  0.00    +0.045 A 
ATOM      6  C   UNL     1      -0.143  -2.855   8.676  0.00  0.00    +0.117 A 
ATOM      7  C   UNL     1       0.405  -3.216   7.453  0.00  0.00    +0.051 A 
BRANCH   6   8
ATOM      8  O   UNL     1      -0.354  -1.544   8.966  0.00  0.00    -0.507 OA
ATOM      9  H   UNL     1       0.396  -1.110   9.394  0.00  0.00    +0.292 HD
ENDBRANCH   6   8
ENDBRANCH   1   2
BRANCH   1  11
ATOM     10  N   UNL     1      -0.983  -4.584   4.726  0.00  0.00    -0.294 N 
ATOM     11  C   UNL     1       0.098  -5.371   4.896  0.00  0.00    +0.239 C 
ATOM     12  O   UNL     1       0.182  -6.423   4.300  0.00  0.00    -0.273 OA
ATOM     13  H   UNL     1      -1.050  -3.742   5.203  0.00  0.00    +0.150 HD
BRANCH  10  14
ATOM     14  C   UNL     1      -2.057  -5.000   3.820  0.00  0.00    +0.278 C 
BRANCH  14  15
ATOM     15  S   UNL     1      -3.356  -5.840   4.768  0.00  0.00    +0.013 S 
ATOM     16  O   UNL     1      -2.780  -6.800   5.643  0.00  0.00    -0.168 OA
ATOM     17  O   UNL     1      -4.434  -6.194   3.913  0.00  0.00    -0.168 OA
BRANCH  15  22
ATOM     18  C   UNL     1      -5.613  -1.594   8.413  0.00  0.00    +0.044 C 
ATOM     19  C   UNL     1      -5.049  -2.655   7.502  0.00  0.00    -0.050 A 
ATOM     20  C   UNL     1      -5.592  -2.847   6.246  0.00  0.00    +0.005 A 
ATOM     21  C   UNL     1      -5.074  -3.819   5.411  0.00  0.00    +0.027 A 
ATOM     22  C   UNL     1      -4.014  -4.600   5.832  0.00  0.00    +0.090 A 
ATOM     23  C   UNL     1      -3.471  -4.407   7.088  0.00  0.00    +0.027 A 
ATOM     24  C   UNL     1      -3.985  -3.432   7.922  0.00  0.00    +0.005 A 
ENDBRANCH  15  22
ENDBRANCH  14  15
ENDBRANCH  10  14
ENDBRANCH   1  11
BRANCH   1  25
ATOM     25  N   UNL     1       2.139  -6.053   6.018  0.00  0.00    -0.275 N 
ATOM     26  C   UNL     1       3.374  -5.818   6.501  0.00  0.00    +0.241 C 
ATOM     27  O   UNL     1       3.712  -4.683   6.780  0.00  0.00    -0.271 OA
BRANCH  26  28
ATOM     28  C   UNL     1       4.315  -6.933   6.692  0.00  0.00    +0.066 C 
ATOM     29  C   UNL     1       5.519  -6.706   7.210  0.00  0.00    -0.071 C 
ATOM     30  C   UNL     1       5.970  -5.294   7.479  0.00  0.00    +0.039 C 
ATOM     31  C   UNL     1       6.432  -7.862   7.527  0.00  0.00    +0.039 C 
ENDBRANCH  26  28
BRANCH  25  32
ATOM     32  C   UNL     1       1.732  -7.420   5.683  0.00  0.00    +0.183 C 
BRANCH  32  33
ATOM     33  C   UNL     1       2.264  -7.783   4.321  0.00  0.00    +0.122 A 
ATOM     34  C   UNL     1       3.407  -8.448   4.074  0.00  0.00    +0.046 A 
ATOM     35  C   UNL     1       3.516  -8.570   2.670  0.00  0.00    +0.041 A 
ATOM     36  C   UNL     1       2.433  -7.972   2.142  0.00  0.00    +0.195 A 
ATOM     37  O   UNL     1       1.675  -7.502   3.147  0.00  0.00    -0.466 OA
ENDBRANCH  32  33
ENDBRANCH  25  32
ENDBRANCH   1  25
TORSDOF 10
