REMARK  Name = ZINC65116326
REMARK  10 active torsions:
REMARK  status: ('A' for Active; 'I' for Inactive)
REMARK    1  A    between atoms: C_1  and  C_2
REMARK    2  A    between atoms: C_2  and  C_3
REMARK    3  A    between atoms: C_4  and  C_12
REMARK    4  A    between atoms: C_5  and  N_8
REMARK    5  A    between atoms: C_9  and  C_11
REMARK    6  A    between atoms: C_15  and  C_30
REMARK    7  A    between atoms: C_16  and  S_18
REMARK    8  A    between atoms: S_18  and  N_21
REMARK    9  A    between atoms: N_21  and  C_22
REMARK   10  A    between atoms: C_25  and  C_29
REMARK                            x       y       z     vdW  Elec       q    Type
REMARK                         _______ _______ _______ _____ _____    ______ ____
ROOT
ATOM      1  C   UNL     1       2.900  -0.289  -0.025  0.00  0.00    -0.009 A 
ATOM      2  C   UNL     1       2.902  -1.079  -1.173  0.00  0.00    +0.009 A 
ATOM      3  C   UNL     1       3.850  -0.866  -2.152  0.00  0.00    +0.006 A 
ATOM      4  C   UNL     1       4.798   0.130  -1.996  0.00  0.00    -0.024 A 
ATOM      5  C   UNL     1       4.801   0.917  -0.858  0.00  0.00    +0.112 A 
ATOM      6  C   UNL     1       3.853   0.716   0.125  0.00  0.00    +0.037 A 
ATOM      7  C   UNL     1       5.831   0.358  -3.069  0.00  0.00    +0.046 C 
ENDROOT
BRANCH   1   9
ATOM      8  C   UNL     1       0.488  -0.331   0.901  0.00  0.00    +0.093 A 
ATOM      9  C   UNL     1       1.883  -0.514   1.031  0.00  0.00    +0.067 A 
ATOM     10  C   UNL     1       2.126  -0.941   2.321  0.00  0.00    +0.232 A 
ATOM     11  O   UNL     1       0.942  -1.016   2.951  0.00  0.00    -0.338 OA
ATOM     12  N   UNL     1      -0.068  -0.623   2.041  0.00  0.00    -0.080 NA
BRANCH  10  13
ATOM     13  N   UNL     1       3.363  -1.238   2.865  0.00  0.00    -0.254 N 
ATOM     14  C   UNL     1       3.455  -1.646   4.146  0.00  0.00    +0.216 C 
ATOM     15  O   UNL     1       2.454  -1.754   4.822  0.00  0.00    -0.276 OA
ATOM     16  C   UNL     1       4.803  -1.970   4.739  0.00  0.00    +0.109 C 
ATOM     17  H   UNL     1       4.164  -1.151   2.325  0.00  0.00    +0.158 HD
ENDBRANCH  10  13
BRANCH   8  19
ATOM     18  C   UNL     1      -0.327   1.657  -0.338  0.00  0.00    +0.010 C 
ATOM     19  C   UNL     1      -0.230   0.130  -0.341  0.00  0.00    +0.056 C 
ENDBRANCH   8  19
ENDBRANCH   1   9
BRANCH   5  20
ATOM     20  S   UNL     1       6.012   2.182  -0.667  0.00  0.00    +0.073 S 
ATOM     21  O   UNL     1       5.983   2.955  -1.859  0.00  0.00    -0.150 OA
ATOM     22  O   UNL     1       5.803   2.754   0.617  0.00  0.00    -0.150 OA
BRANCH  20  23
ATOM     23  N   UNL     1       7.492   1.440  -0.620  0.00  0.00    -0.215 N 
ATOM     24  H   UNL     1       8.124   1.571  -1.344  0.00  0.00    +0.174 HD
BRANCH  23  25
ATOM     25  C   UNL     1       7.830   0.625   0.464  0.00  0.00    +0.062 A 
ATOM     26  C   UNL     1       6.860  -0.157   1.076  0.00  0.00    +0.026 A 
ATOM     27  C   UNL     1       7.197  -0.962   2.147  0.00  0.00    +0.005 A 
ATOM     28  C   UNL     1       8.501  -0.990   2.609  0.00  0.00    -0.049 A 
ATOM     29  C   UNL     1       9.470  -0.213   2.001  0.00  0.00    +0.020 A 
ATOM     30  C   UNL     1       9.140   0.590   0.927  0.00  0.00    +0.040 A 
ATOM     31 BR   UNL     1      10.467   1.647   0.092  0.00  0.00    -0.048 Br
ATOM     32  C   UNL     1       8.865  -1.869   3.777  0.00  0.00    +0.044 C 
ENDBRANCH  23  25
ENDBRANCH  20  23
ENDBRANCH   5  20
TORSDOF 6
