REMARK  Name = ZINC57303831
REMARK  9 active torsions:
REMARK  status: ('A' for Active; 'I' for Inactive)
REMARK    1  A    between atoms: C_1  and  C_2
REMARK    2  A    between atoms: C_4  and  C_34
REMARK    3  A    between atoms: C_6  and  N_8
REMARK    4  A    between atoms: C_9  and  C_11
REMARK    5  A    between atoms: C_11  and  C_13
REMARK    6  A    between atoms: C_11  and  N_19
REMARK    7  A    between atoms: C_22  and  N_25
REMARK    8  A    between atoms: N_25  and  S_26
REMARK    9  A    between atoms: S_26  and  C_29
REMARK                            x       y       z     vdW  Elec       q    Type
REMARK                         _______ _______ _______ _____ _____    ______ ____
ROOT
ATOM      1  C   UNL     1       0.280  -2.900   4.854  0.00  0.00    +0.174 C 
ENDROOT
BRANCH   1   2
ATOM      2  C   UNL     1      -0.926  -3.785   5.037  0.00  0.00    -0.021 A 
ATOM      3  C   UNL     1      -2.111  -3.249   5.507  0.00  0.00    +0.005 A 
ATOM      4  C   UNL     1      -3.217  -4.061   5.675  0.00  0.00    +0.000 A 
ATOM      5  C   UNL     1      -3.139  -5.407   5.372  0.00  0.00    +0.000 A 
ATOM      6  C   UNL     1      -1.955  -5.942   4.901  0.00  0.00    +0.000 A 
ATOM      7  C   UNL     1      -0.850  -5.130   4.729  0.00  0.00    +0.005 A 
ENDBRANCH   1   2
BRANCH   1   8
ATOM      8  N   UNL     1       0.370  -1.956   5.976  0.00  0.00    -0.288 NA
ATOM      9  C   UNL     1       0.397  -2.667   7.260  0.00  0.00    +0.087 C 
ATOM     10  C   UNL     1       0.344  -1.654   8.406  0.00  0.00    +0.036 C 
ATOM     11  C   UNL     1       1.542  -0.707   8.300  0.00  0.00    +0.079 C 
ATOM     12  C   UNL     1       1.517  -0.015   6.934  0.00  0.00    +0.036 C 
ATOM     13  C   UNL     1       1.536  -1.076   5.831  0.00  0.00    +0.087 C 
BRANCH  11  14
ATOM     14  N   UNL     1       1.465   0.301   9.360  0.00  0.00    -0.186 NA
ATOM     15  H   UNL     1       0.602   0.639   9.647  0.00  0.00    +0.148 HD
BRANCH  14  16
ATOM     16  S   UNL     1       2.852   0.864  10.070  0.00  0.00    +0.065 S 
ATOM     17  O   UNL     1       2.452   1.836  11.026  0.00  0.00    -0.153 OA
ATOM     18  O   UNL     1       3.621  -0.278  10.420  0.00  0.00    -0.153 OA
BRANCH  16  19
ATOM     19  C   UNL     1       3.761   1.723   8.829  0.00  0.00    +0.142 A 
ATOM     20  C   UNL     1       3.711   3.034   8.487  0.00  0.00    +0.036 A 
ATOM     21  C   UNL     1       4.526   3.492   7.469  0.00  0.00    +0.010 A 
ATOM     22  C   UNL     1       5.351   2.618   6.843  0.00  0.00    +0.047 A 
ATOM     23  S   UNL     1       4.992   1.093   7.699  0.00  0.00    -0.077 S 
ENDBRANCH  16  19
ENDBRANCH  14  16
ENDBRANCH  11  14
ENDBRANCH   1   8
BRANCH   1  25
ATOM     24  N   UNL     1       0.052  -2.797   2.393  0.00  0.00    -0.284 N 
ATOM     25  C   UNL     1       0.150  -2.134   3.562  0.00  0.00    +0.239 C 
ATOM     26  O   UNL     1       0.134  -0.922   3.575  0.00  0.00    -0.273 OA
ATOM     27  H   UNL     1      -0.003  -3.766   2.387  0.00  0.00    +0.155 HD
BRANCH  24  33
ATOM     28  C   UNL     1       1.264  -2.495  -2.362  0.00  0.00    +0.044 C 
ATOM     29  C   UNL     1       0.609  -1.918  -1.134  0.00  0.00    -0.048 A 
ATOM     30  C   UNL     1      -0.016  -0.686  -1.198  0.00  0.00    +0.006 A 
ATOM     31  C   UNL     1      -0.619  -0.154  -0.073  0.00  0.00    -0.048 A 
ATOM     32  C   UNL     1      -0.598  -0.851   1.119  0.00  0.00    +0.026 A 
ATOM     33  C   UNL     1       0.029  -2.088   1.187  0.00  0.00    +0.034 A 
ATOM     34  C   UNL     1       0.629  -2.623   0.054  0.00  0.00    +0.026 A 
ATOM     35  C   UNL     1      -1.299   1.189  -0.148  0.00  0.00    +0.044 C 
ENDBRANCH  24  33
ENDBRANCH   1  25
TORSDOF 7
