REMARK  Name = ZINC11635128
REMARK  8 active torsions:
REMARK  status: ('A' for Active; 'I' for Inactive)
REMARK    1  A    between atoms: C_1  and  C_2
REMARK    2  A    between atoms: C_5  and  S_12
REMARK    3  A    between atoms: S_12  and  N_15
REMARK    4  A    between atoms: N_15  and  C_16
REMARK    5  A    between atoms: C_19  and  N_22
REMARK    6  A    between atoms: N_22  and  S_23
REMARK    7  A    between atoms: S_23  and  C_26
REMARK    8  A    between atoms: C_29  and  C_36
REMARK                            x       y       z     vdW  Elec       q    Type
REMARK                         _______ _______ _______ _____ _____    ______ ____
ROOT
ATOM      1  C   UNL     1       1.883  -4.262   1.563  0.00  0.00    +0.048 A 
ATOM      2  C   UNL     1       1.665  -3.075   2.248  0.00  0.00    +0.026 A 
ATOM      3  C   UNL     1       2.057  -2.957   3.567  0.00  0.00    +0.026 A 
ATOM      4  C   UNL     1       2.676  -4.023   4.205  0.00  0.00    +0.048 A 
ATOM      5  C   UNL     1       2.899  -5.209   3.518  0.00  0.00    +0.026 A 
ATOM      6  C   UNL     1       2.503  -5.329   2.200  0.00  0.00    +0.026 A 
ENDROOT
BRANCH   1   7
ATOM      7  N   UNL     1       1.482  -4.383   0.227  0.00  0.00    -0.216 N 
ATOM      8  H   UNL     1       1.990  -3.944  -0.473  0.00  0.00    +0.174 HD
BRANCH   7   9
ATOM      9  S   UNL     1       0.142  -5.277  -0.158  0.00  0.00    +0.073 S 
ATOM     10  O   UNL     1       0.255  -6.503   0.550  0.00  0.00    -0.150 OA
ATOM     11  O   UNL     1       0.011  -5.223  -1.572  0.00  0.00    -0.150 OA
BRANCH   9  16
ATOM     12  C   UNL     1      -4.689  -2.362   2.062  0.00  0.00    +0.044 C 
ATOM     13  C   UNL     1      -3.482  -3.092   1.531  0.00  0.00    -0.043 A 
ATOM     14  C   UNL     1      -3.251  -3.148   0.191  0.00  0.00    +0.006 A 
ATOM     15  C   UNL     1      -2.137  -3.811  -0.318  0.00  0.00    +0.030 A 
ATOM     16  C   UNL     1      -1.254  -4.435   0.509  0.00  0.00    +0.116 A 
ATOM     17  C   UNL     1      -1.463  -4.405   1.898  0.00  0.00    +0.009 A 
ATOM     18  C   UNL     1      -2.593  -3.723   2.417  0.00  0.00    -0.013 A 
ATOM     19  C   UNL     1      -2.801  -3.693   3.806  0.00  0.00    +0.009 A 
ATOM     20  C   UNL     1      -1.918  -4.316   4.633  0.00  0.00    +0.001 A 
ATOM     21  C   UNL     1      -0.807  -4.987   4.124  0.00  0.00    +0.001 A 
ATOM     22  C   UNL     1      -0.574  -5.038   2.784  0.00  0.00    +0.010 A 
ENDBRANCH   9  16
ENDBRANCH   7   9
ENDBRANCH   1   7
BRANCH   4  23
ATOM     23  N   UNL     1       3.076  -3.903   5.542  0.00  0.00    -0.216 N 
ATOM     24  H   UNL     1       2.576  -4.354   6.240  0.00  0.00    +0.174 HD
BRANCH  23  25
ATOM     25  S   UNL     1       4.402  -2.990   5.930  0.00  0.00    +0.073 S 
ATOM     26  O   UNL     1       4.221  -1.726   5.307  0.00  0.00    -0.150 OA
ATOM     27  O   UNL     1       4.593  -3.128   7.331  0.00  0.00    -0.150 OA
BRANCH  25  28
ATOM     28  C   UNL     1       5.795  -3.739   5.155  0.00  0.00    +0.116 A 
ATOM     29  C   UNL     1       6.482  -3.071   4.188  0.00  0.00    +0.030 A 
ATOM     30  C   UNL     1       7.587  -3.647   3.564  0.00  0.00    +0.006 A 
ATOM     31  C   UNL     1       8.011  -4.895   3.904  0.00  0.00    -0.043 A 
ATOM     32  C   UNL     1       7.328  -5.616   4.897  0.00  0.00    -0.013 A 
ATOM     33  C   UNL     1       6.208  -5.027   5.536  0.00  0.00    +0.009 A 
ATOM     34  C   UNL     1       5.520  -5.751   6.526  0.00  0.00    +0.010 A 
ATOM     35  C   UNL     1       5.944  -6.999   6.864  0.00  0.00    +0.001 A 
ATOM     36  C   UNL     1       7.049  -7.575   6.240  0.00  0.00    +0.001 A 
ATOM     37  C   UNL     1       7.736  -6.907   5.274  0.00  0.00    +0.009 A 
ATOM     38  C   UNL     1       9.209  -5.500   3.217  0.00  0.00    +0.044 C 
ENDBRANCH  25  28
ENDBRANCH  23  25
ENDBRANCH   4  23
TORSDOF 6
