REMARK  Name = ZINC03105955
REMARK  7 active torsions:
REMARK  status: ('A' for Active; 'I' for Inactive)
REMARK    1  A    between atoms: C_6  and  C_7
REMARK    2  A    between atoms: C_7  and  C_8
REMARK    3  A    between atoms: N_15  and  C_18
REMARK    4  A    between atoms: C_18  and  C_19
REMARK    5  A    between atoms: C_19  and  N_20
REMARK    6  A    between atoms: N_20  and  C_21
REMARK    7  A    between atoms: C_24  and  C_26
REMARK                            x       y       z     vdW  Elec       q    Type
REMARK                         _______ _______ _______ _____ _____    ______ ____
ROOT
ATOM      1  C   UNL     1       4.142  -0.948  -1.485  0.00  0.00    +0.166 C 
ATOM      2  C   UNL     1       3.092  -1.816  -2.152  0.00  0.00    +0.233 C 
ATOM      3  O   UNL     1       1.933  -1.465  -2.214  0.00  0.00    -0.275 OA
ATOM      4  N   UNL     1       3.490  -2.991  -2.676  0.00  0.00    -0.239 N 
ATOM      5  C   UNL     1       4.763  -3.397  -2.615  0.00  0.00    +0.315 C 
ATOM      6  O   UNL     1       5.035  -4.472  -3.111  0.00  0.00    -0.252 OA
ATOM      7  N   UNL     1       5.758  -2.706  -2.048  0.00  0.00    -0.224 N 
ATOM      8  C   UNL     1       5.554  -1.503  -1.471  0.00  0.00    +0.235 C 
ATOM      9  O   UNL     1       6.466  -0.888  -0.961  0.00  0.00    -0.274 OA
ATOM     10  H   UNL     1       2.834  -3.560  -3.109  0.00  0.00    +0.159 HD
ENDROOT
BRANCH   1  11
ATOM     11  C   UNL     1       3.711  -0.707  -0.037  0.00  0.00    +0.057 C 
BRANCH  11  17
ATOM     12  C   UNL     1       1.208  -0.678  -0.013  0.00  0.00    +0.005 A 
ATOM     13  C   UNL     1       0.002  -0.004   0.002  0.00  0.00    +0.020 A 
ATOM     14  C   UNL     1      -0.017   1.379   0.010  0.00  0.00    +0.041 A 
ATOM     15  C   UNL     1       1.172   2.087   0.002  0.00  0.00    +0.020 A 
ATOM     16  C   UNL     1       2.378   1.411  -0.013  0.00  0.00    +0.005 A 
ATOM     17  C   UNL     1       2.396   0.029  -0.021  0.00  0.00    -0.046 A 
ATOM     18 CL   UNL     1      -1.532   2.227   0.021  0.00  0.00    -0.084 Cl
ENDBRANCH  11  17
ENDBRANCH   1  11
BRANCH   7  19
ATOM     19  C   UNL     1       7.109  -3.272  -2.052  0.00  0.00    +0.136 C 
BRANCH  19  20
ATOM     20  C   UNL     1       7.312  -4.118  -0.794  0.00  0.00    +0.122 C 
BRANCH  20  21
ATOM     21  N   UNL     1       8.664  -4.684  -0.799  0.00  0.00    -0.328 N 
ATOM     22  H   UNL     1       9.267  -4.494  -1.534  0.00  0.00    +0.147 HD
BRANCH  21  23
ATOM     23  C   UNL     1       9.082  -5.495   0.251  0.00  0.00    +0.115 A 
ATOM     24  C   UNL     1      10.365  -6.034   0.238  0.00  0.00    +0.079 A 
ATOM     25  C   UNL     1      10.770  -6.834   1.292  0.00  0.00    +0.037 A 
ATOM     26  C   UNL     1       9.870  -7.078   2.322  0.00  0.00    +0.072 A 
ATOM     27  C   UNL     1       8.611  -6.515   2.267  0.00  0.00    +0.096 A 
ATOM     28 CL   UNL     1      11.446  -5.702  -1.080  0.00  0.00    -0.080 Cl
ATOM     29  N   UNL     1       8.181  -5.720   1.251  0.00  0.00    -0.348 N 
ATOM     30  H   UNL     1       7.238  -5.314   1.237  0.00  0.00    +0.167 HD
BRANCH  26  31
ATOM     31  C   UNL     1      10.265  -7.948   3.487  0.00  0.00    +0.419 C 
ATOM     32  F   UNL     1       9.195  -8.039   4.384  0.00  0.00    -0.166 F 
ATOM     33  F   UNL     1      10.596  -9.226   3.024  0.00  0.00    -0.166 F 
ATOM     34  F   UNL     1      11.370  -7.386   4.135  0.00  0.00    -0.166 F 
ENDBRANCH  26  31
ENDBRANCH  21  23
ENDBRANCH  20  21
ENDBRANCH  19  20
ENDBRANCH   7  19
TORSDOF 7
