REMARK  Name = ZINC13063895
REMARK  16 active torsions:
REMARK  status: ('A' for Active; 'I' for Inactive)
REMARK    1  A    between atoms: C_1  and  C_2
REMARK    2  A    between atoms: C_2  and  C_3
REMARK    3  A    between atoms: C_3  and  C_5
REMARK    4  A    between atoms: C_3  and  N_69
REMARK    5  A    between atoms: N_9  and  C_10
REMARK    6  A    between atoms: C_10  and  C_11
REMARK    7  A    between atoms: C_11  and  O_13
REMARK    8  A    between atoms: O_13  and  C_14
REMARK    9  A    between atoms: C_14  and  C_15
REMARK   10  A    between atoms: C_16  and  C_17
REMARK   11  A    between atoms: C_16  and  N_69
REMARK   12  A    between atoms: C_20  and  O_23
REMARK   13  A    between atoms: O_23  and  C_24
REMARK   14  A    between atoms: C_25  and  C_26
REMARK   15  A    between atoms: C_25  and  N_69
REMARK   16  A    between atoms: C_31  and  C_38
REMARK                            x       y       z     vdW  Elec       q    Type
REMARK                         _______ _______ _______ _____ _____    ______ ____
ROOT
ATOM      1  N   UNL     1       0.184   0.052   0.487  0.00  0.00    +0.392 N 
ATOM      2  H   UNL     1       0.746   0.347   1.294  0.00  0.00    -0.080 HD
ENDROOT
BRANCH   1   3
ATOM      3  C   UNL     1      -1.055  -0.590   0.974  0.00  0.00    +0.003 C 
BRANCH   3   4
ATOM      4  C   UNL     1      -1.779  -1.269  -0.160  0.00  0.00    +0.139 A 
ATOM      5  N   UNL     1      -1.254  -2.071  -1.054  0.00  0.00    -0.115 NA
ATOM      6  N   UNL     1      -2.194  -2.447  -1.852  0.00  0.00    -0.023 NA
ATOM      7  N   UNL     1      -3.303  -1.899  -1.494  0.00  0.00    -0.043 NA
ATOM      8  N   UNL     1      -3.088  -1.165  -0.454  0.00  0.00    -0.220 N 
BRANCH   8   9
ATOM      9  C   UNL     1      -4.082  -0.369   0.269  0.00  0.00    +0.267 C 
BRANCH   9  10
ATOM     10  C   UNL     1      -4.146   1.015  -0.325  0.00  0.00    +0.329 C 
ATOM     11  O   UNL     1      -3.434   1.306  -1.256  0.00  0.00    -0.249 OA
BRANCH  10  12
ATOM     12  O   UNL     1      -4.993   1.924   0.182  0.00  0.00    -0.464 OA
BRANCH  12  13
ATOM     13  C   UNL     1      -5.001   3.236  -0.440  0.00  0.00    +0.229 C 
ATOM     14  C   UNL     1      -6.022   4.130   0.268  0.00  0.00    +0.048 C 
ENDBRANCH  12  13
ENDBRANCH  10  12
ENDBRANCH   9  10
ENDBRANCH   8   9
ENDBRANCH   3   4
BRANCH   3  16
ATOM     15  C   UNL     1       0.007  -0.930   3.210  0.00  0.00    +0.002 C 
ATOM     16  C   UNL     1      -0.687  -1.626   2.038  0.00  0.00    -0.011 C 
ENDBRANCH   3  16
ENDBRANCH   1   3
BRANCH   1  17
ATOM     17  C   UNL     1      -0.149   1.240  -0.327  0.00  0.00    -0.042 C 
BRANCH  17  18
ATOM     18  C   UNL     1      -0.458   2.388   0.599  0.00  0.00    -0.064 A 
ATOM     19  C   UNL     1      -1.750   2.579   1.053  0.00  0.00    +0.005 A 
ATOM     20  C   UNL     1      -2.035   3.627   1.907  0.00  0.00    +0.046 A 
ATOM     21  C   UNL     1      -1.027   4.494   2.300  0.00  0.00    +0.120 A 
ATOM     22  C   UNL     1       0.268   4.304   1.838  0.00  0.00    +0.046 A 
ATOM     23  C   UNL     1       0.549   3.251   0.989  0.00  0.00    +0.005 A 
BRANCH  21  24
ATOM     24  O   UNL     1      -1.306   5.529   3.135  0.00  0.00    -0.495 OA
ATOM     25  C   UNL     1      -2.660   5.664   3.571  0.00  0.00    +0.277 C 
ENDBRANCH  21  24
ENDBRANCH  17  18
ENDBRANCH   1  17
BRANCH   1  26
ATOM     26  C   UNL     1       0.968  -0.908  -0.318  0.00  0.00    -0.036 C 
BRANCH  26  27
ATOM     27  C   UNL     1       2.397  -0.433  -0.381  0.00  0.00    +0.001 A 
ATOM     28  C   UNL     1       3.294  -0.868   0.538  0.00  0.00    +0.017 A 
ATOM     29  C   UNL     1       4.674  -0.388   0.450  0.00  0.00    -0.001 A 
ATOM     30  C   UNL     1       5.645  -0.802   1.368  0.00  0.00    +0.010 A 
ATOM     31  C   UNL     1       6.924  -0.335   1.258  0.00  0.00    +0.004 A 
ATOM     32  C   UNL     1       7.269   0.547   0.243  0.00  0.00    -0.048 A 
ATOM     33  C   UNL     1       6.330   0.968  -0.673  0.00  0.00    +0.029 A 
ATOM     34  C   UNL     1       5.021   0.506  -0.581  0.00  0.00    +0.049 A 
ATOM     35  N   UNL     1       4.061   0.911  -1.484  0.00  0.00    -0.322 N 
ATOM     36  H   UNL     1       4.301   1.527  -2.193  0.00  0.00    +0.169 HD
ATOM     37  C   UNL     1       2.797   0.460  -1.398  0.00  0.00    +0.251 A 
ATOM     38  O   UNL     1       1.975   0.835  -2.216  0.00  0.00    -0.268 OA
ATOM     39  C   UNL     1       8.687   1.049   0.141  0.00  0.00    +0.044 C 
ENDBRANCH  26  27
ENDBRANCH   1  26
TORSDOF 12
