REMARK  Name = ZINC40940582
REMARK  14 active torsions:
REMARK  status: ('A' for Active; 'I' for Inactive)
REMARK    1  A    between atoms: C_1  and  C_2
REMARK    2  A    between atoms: C_2  and  N_3
REMARK    3  A    between atoms: N_3  and  C_4
REMARK    4  A    between atoms: C_4  and  C_5
REMARK    5  A    between atoms: C_6  and  C_8
REMARK    6  A    between atoms: C_8  and  O_9
REMARK    7  A    between atoms: O_9  and  C_10
REMARK    8  A    between atoms: C_13  and  C_19
REMARK    9  A    between atoms: C_15  and  O_16
REMARK   10  A    between atoms: O_16  and  C_17
REMARK   11  A    between atoms: C_17  and  C_18
REMARK   12  A    between atoms: N_23  and  N_27
REMARK   13  A    between atoms: C_28  and  C_30
REMARK   14  A    between atoms: C_33  and  C_36
REMARK                            x       y       z     vdW  Elec       q    Type
REMARK                         _______ _______ _______ _____ _____    ______ ____
ROOT
ATOM      1  C   UNL     1       7.475  -3.163   6.193  0.00  0.00    +0.028 C 
ATOM      2  C   UNL     1       6.955  -3.919   7.194  0.00  0.00    +0.079 C 
ATOM      3  C   UNL     1       5.593  -4.467   7.349  0.00  0.00    +0.275 C 
ATOM      4  O   UNL     1       4.727  -4.273   6.516  0.00  0.00    -0.267 OA
ATOM      5  N   UNL     1       5.361  -5.178   8.440  0.00  0.00    -0.169 N 
ATOM      6  C   UNL     1       6.323  -5.390   9.360  0.00  0.00    +0.138 C 
ATOM      7  S   UNL     1       6.220  -6.275  10.822  0.00  0.00    -0.026 S 
ATOM      8  S   UNL     1       7.734  -4.531   8.682  0.00  0.00    -0.059 S 
ENDROOT
BRANCH   1  12
ATOM      9  C   UNL     1       4.930  -1.597   3.181  0.00  0.00    +0.163 A 
ATOM     10  C   UNL     1       4.499  -1.638   4.500  0.00  0.00    +0.050 A 
ATOM     11  C   UNL     1       5.322  -2.146   5.481  0.00  0.00    +0.012 A 
ATOM     12  C   UNL     1       6.596  -2.622   5.149  0.00  0.00    -0.020 A 
ATOM     13  C   UNL     1       7.029  -2.580   3.818  0.00  0.00    +0.057 A 
ATOM     14  C   UNL     1       6.195  -2.074   2.840  0.00  0.00    +0.162 A 
BRANCH   9  15
ATOM     15  O   UNL     1       4.114  -1.095   2.217  0.00  0.00    -0.479 OA
BRANCH  15  16
ATOM     16  C   UNL     1       2.831  -0.623   2.635  0.00  0.00    +0.324 C 
BRANCH  16  18
ATOM     17  N   UNL     1       0.830   0.391   1.594  0.00  0.00    -0.299 N 
ATOM     18  C   UNL     1       2.072  -0.108   1.439  0.00  0.00    +0.253 C 
ATOM     19  O   UNL     1       2.580  -0.141   0.338  0.00  0.00    -0.272 OA
BRANCH  17  21
ATOM     20  C   UNL     1       0.389   2.381   0.242  0.00  0.00    +0.024 C 
ATOM     21  C   UNL     1       0.092   0.892   0.431  0.00  0.00    +0.104 C 
ENDBRANCH  17  21
BRANCH  17  22
ATOM     22  C   UNL     1       0.216   0.431   2.924  0.00  0.00    +0.104 C 
ATOM     23  C   UNL     1      -0.551  -0.870   3.171  0.00  0.00    +0.024 C 
ENDBRANCH  17  22
ENDBRANCH  16  18
ENDBRANCH  15  16
ENDBRANCH   9  15
BRANCH  14  24
ATOM     24  O   UNL     1       6.610  -2.036   1.546  0.00  0.00    -0.489 OA
BRANCH  24  25
ATOM     25  C   UNL     1       7.918  -2.542   1.269  0.00  0.00    +0.226 C 
ATOM     26  C   UNL     1       8.206  -2.417  -0.229  0.00  0.00    +0.048 C 
ENDBRANCH  24  25
ENDBRANCH  14  24
ENDBRANCH   1  12
BRANCH   5  27
ATOM     27  N   UNL     1       4.087  -5.723   8.643  0.00  0.00    -0.222 N 
ATOM     28  C   UNL     1       3.881  -7.042   8.458  0.00  0.00    +0.261 C 
ATOM     29  O   UNL     1       4.801  -7.759   8.114  0.00  0.00    -0.269 OA
ATOM     30  H   UNL     1       3.353  -5.152   8.918  0.00  0.00    +0.174 HD
BRANCH  28  31
ATOM     31  C   UNL     1       2.536  -7.618   8.673  0.00  0.00    +0.038 A 
ATOM     32  C   UNL     1       1.476  -6.797   9.062  0.00  0.00    +0.013 A 
ATOM     33  C   UNL     1       0.224  -7.340   9.260  0.00  0.00    +0.004 A 
ATOM     34  C   UNL     1       0.017  -8.696   9.075  0.00  0.00    -0.050 A 
ATOM     35  C   UNL     1       1.063  -9.515   8.689  0.00  0.00    +0.004 A 
ATOM     36  C   UNL     1       2.319  -8.983   8.482  0.00  0.00    +0.013 A 
ATOM     37  C   UNL     1      -1.354  -9.283   9.294  0.00  0.00    +0.044 C 
ENDBRANCH  28  31
ENDBRANCH   5  27
TORSDOF 10
