REMARK  Name = ZINC63679627
REMARK  11 active torsions:
REMARK  status: ('A' for Active; 'I' for Inactive)
REMARK    1  A    between atoms: C_1  and  C_2
REMARK    2  A    between atoms: C_4  and  C_37
REMARK    3  A    between atoms: C_5  and  S_9
REMARK    4  A    between atoms: C_6  and  C_8
REMARK    5  A    between atoms: S_9  and  N_12
REMARK    6  A    between atoms: C_17  and  C_19
REMARK    7  A    between atoms: C_19  and  N_20
REMARK    8  A    between atoms: C_21  and  C_23
REMARK    9  A    between atoms: N_25  and  C_26
REMARK   10  A    between atoms: C_26  and  C_27
REMARK   11  A    between atoms: C_27  and  C_28
REMARK                            x       y       z     vdW  Elec       q    Type
REMARK                         _______ _______ _______ _____ _____    ______ ____
ROOT
ATOM      1  N   UNL     1      -1.534  -5.622   2.721  0.00  0.00    -0.304 N 
ATOM      2  C   UNL     1      -2.724  -5.439   3.328  0.00  0.00    +0.299 C 
ATOM      3  O   UNL     1      -2.895  -4.482   4.053  0.00  0.00    -0.265 OA
ATOM      4  H   UNL     1      -1.397  -6.387   2.141  0.00  0.00    +0.149 HD
ENDROOT
BRANCH   2   5
ATOM      5  C   UNL     1      -3.833  -6.417   3.106  0.00  0.00    +0.299 C 
ATOM      6  O   UNL     1      -3.662  -7.374   2.380  0.00  0.00    -0.265 OA
ATOM      7  N   UNL     1      -5.023  -6.234   3.712  0.00  0.00    -0.307 N 
ATOM      8  H   UNL     1      -5.159  -5.469   4.292  0.00  0.00    +0.149 HD
BRANCH   7   9
ATOM      9  C   UNL     1      -6.110  -7.192   3.495  0.00  0.00    +0.109 C 
BRANCH   9  10
ATOM     10  C   UNL     1      -7.341  -6.756   4.292  0.00  0.00    +0.052 C 
BRANCH  10  11
ATOM     11  C   UNL     1      -8.459  -7.741   4.069  0.00  0.00    -0.040 C 
ATOM     12  C   UNL     1      -8.781  -8.797   4.850  0.00  0.00    -0.001 A 
ATOM     13  C   UNL     1      -8.207  -9.324   6.094  0.00  0.00    +0.010 A 
ATOM     14  C   UNL     1      -8.758 -10.424   6.656  0.00  0.00    +0.001 A 
ATOM     15  C   UNL     1      -9.861 -11.071   6.081  0.00  0.00    +0.002 A 
ATOM     16  C   UNL     1     -10.442 -10.646   4.940  0.00  0.00    +0.026 A 
ATOM     17  C   UNL     1      -9.945  -9.498   4.264  0.00  0.00    +0.043 A 
ATOM     18  N   UNL     1     -10.328  -8.900   3.162  0.00  0.00    -0.380 N 
ATOM     19  C   UNL     1      -9.453  -7.745   2.928  0.00  0.00    +0.144 C 
ATOM     20  H   UNL     1     -11.068  -9.172   2.598  0.00  0.00    +0.160 HD
ENDBRANCH  10  11
ENDBRANCH   9  10
ENDBRANCH   7   9
ENDBRANCH   2   5
BRANCH   1  21
ATOM     21  C   UNL     1      -0.447  -4.664   2.938  0.00  0.00    +0.154 C 
BRANCH  21  27
ATOM     22  N   UNL     1       0.417  -5.287   0.730  0.00  0.00    -0.147 NA
ATOM     23  C   UNL     1       1.406  -5.901  -0.171  0.00  0.00    +0.114 C 
ATOM     24  C   UNL     1       1.907  -7.197   0.478  0.00  0.00    +0.045 C 
ATOM     25  C   UNL     1       2.365  -6.892   1.907  0.00  0.00    +0.163 C 
ATOM     26  O   UNL     1       1.273  -6.350   2.653  0.00  0.00    -0.358 OA
ATOM     27  C   UNL     1       0.784  -5.100   2.142  0.00  0.00    +0.226 C 
BRANCH  22  28
ATOM     28  S   UNL     1      -1.067  -4.814   0.168  0.00  0.00    +0.064 S 
ATOM     29  O   UNL     1      -1.655  -4.023   1.192  0.00  0.00    -0.153 OA
ATOM     30  O   UNL     1      -1.695  -5.978  -0.351  0.00  0.00    -0.153 OA
BRANCH  28  35
ATOM     31  C   UNL     1      -0.106  -1.136  -4.517  0.00  0.00    +0.044 C 
ATOM     32  C   UNL     1      -0.346  -2.054  -3.347  0.00  0.00    -0.050 A 
ATOM     33  C   UNL     1      -0.312  -1.556  -2.058  0.00  0.00    +0.008 A 
ATOM     34  C   UNL     1      -0.532  -2.398  -0.985  0.00  0.00    -0.024 A 
ATOM     35  C   UNL     1      -0.787  -3.740  -1.200  0.00  0.00    +0.111 A 
ATOM     36  C   UNL     1      -0.822  -4.239  -2.489  0.00  0.00    -0.024 A 
ATOM     37  C   UNL     1      -0.606  -3.395  -3.563  0.00  0.00    +0.008 A 
ATOM     38  C   UNL     1      -1.099  -5.701  -2.724  0.00  0.00    +0.046 C 
ATOM     39  C   UNL     1      -0.495  -1.854   0.420  0.00  0.00    +0.046 C 
ENDBRANCH  28  35
ENDBRANCH  22  28
ENDBRANCH  21  27
ENDBRANCH   1  21
TORSDOF 8
