REMARK  Name = ZINC14024775
REMARK  7 active torsions:
REMARK  status: ('A' for Active; 'I' for Inactive)
REMARK    1  A    between atoms: C_1  and  C_2
REMARK    2  A    between atoms: C_2  and  C_3
REMARK    3  A    between atoms: C_2  and  C_4
REMARK    4  A    between atoms: C_4  and  O_5
REMARK    5  A    between atoms: O_5  and  C_6
REMARK    6  A    between atoms: C_9  and  C_12
REMARK    7  A    between atoms: N_14  and  N_15
REMARK                            x       y       z     vdW  Elec       q    Type
REMARK                         _______ _______ _______ _____ _____    ______ ____
ROOT
ATOM      1  C   UNL     1       5.356  -1.699  -5.470  0.00  0.00    +0.263 C 
ATOM      2  O   UNL     1       4.956  -2.536  -6.256  0.00  0.00    -0.268 OA
ATOM      3  N   UNL     1       6.598  -1.192  -5.600  0.00  0.00    -0.202 N 
ATOM      4  H   UNL     1       6.917  -0.524  -4.972  0.00  0.00    +0.178 HD
ENDROOT
BRANCH   3   5
ATOM      5  N   UNL     1       7.428  -1.628  -6.641  0.00  0.00    -0.174 NA
ATOM      6  C   UNL     1       8.671  -1.217  -6.705  0.00  0.00    +0.153 C 
ATOM      7  C   UNL     1       9.421  -0.450  -5.683  0.00  0.00    +0.029 A 
ATOM      8  C   UNL     1       9.085   0.045  -4.428  0.00  0.00    +0.027 A 
ATOM      9  C   UNL     1      10.025   0.740  -3.691  0.00  0.00    +0.019 A 
ATOM     10  C   UNL     1      11.296   0.942  -4.204  0.00  0.00    +0.017 A 
ATOM     11  C   UNL     1      11.638   0.455  -5.449  0.00  0.00    +0.025 A 
ATOM     12  C   UNL     1      10.705  -0.247  -6.204  0.00  0.00    +0.043 A 
ATOM     13  N   UNL     1      10.789  -0.833  -7.463  0.00  0.00    -0.280 N 
ATOM     14  C   UNL     1       9.631  -1.422  -7.808  0.00  0.00    +0.269 C 
ATOM     15  O   UNL     1       9.411  -2.016  -8.847  0.00  0.00    -0.268 OA
ATOM     16 BR   UNL     1       9.576   1.417  -1.984  0.00  0.00    -0.050 Br
ATOM     17  H   UNL     1      11.583  -0.822  -8.019  0.00  0.00    +0.155 HD
ENDBRANCH   3   5
BRANCH   1  21
ATOM     18  C   UNL     1       2.842  -0.378  -2.314  0.00  0.00    +0.121 A 
ATOM     19  C   UNL     1       2.382  -1.334  -3.212  0.00  0.00    +0.046 A 
ATOM     20  C   UNL     1       3.194  -1.765  -4.237  0.00  0.00    +0.016 A 
ATOM     21  C   UNL     1       4.483  -1.240  -4.374  0.00  0.00    +0.039 A 
ATOM     22  C   UNL     1       4.941  -0.279  -3.468  0.00  0.00    +0.016 A 
ATOM     23  C   UNL     1       4.121   0.150  -2.449  0.00  0.00    +0.046 A 
BRANCH  18  24
ATOM     24  O   UNL     1       2.039   0.044  -1.305  0.00  0.00    -0.492 OA
BRANCH  24  25
ATOM     25  C   UNL     1       0.737  -0.540  -1.224  0.00  0.00    +0.232 C 
BRANCH  25  27
ATOM     26  C   UNL     1      -0.257   1.547  -0.277  0.00  0.00    +0.010 C 
ATOM     27  C   UNL     1      -0.017   0.055  -0.034  0.00  0.00    +0.020 C 
ATOM     28  C   UNL     1      -1.360  -0.658   0.128  0.00  0.00    +0.010 C 
ENDBRANCH  25  27
ENDBRANCH  24  25
ENDBRANCH  18  24
ENDBRANCH   1  21
TORSDOF 5
