REMARK  Name = ZINC00133729
REMARK  6 active torsions:
REMARK  status: ('A' for Active; 'I' for Inactive)
REMARK    1  A    between atoms: C_1  and  C_2
REMARK    2  A    between atoms: C_4  and  C_22
REMARK    3  A    between atoms: C_5  and  N_9
REMARK    4  A    between atoms: C_6  and  C_8
REMARK    5  A    between atoms: C_10  and  C_12
REMARK    6  A    between atoms: C_16  and  N_18
REMARK                            x       y       z     vdW  Elec       q    Type
REMARK                         _______ _______ _______ _____ _____    ______ ____
ROOT
ATOM      1  N   UNL     1       3.624   3.526   0.105  0.00  0.00    -0.281 N 
ATOM      2  C   UNL     1       3.498   2.445  -0.689  0.00  0.00    +0.248 C 
ATOM      3  O   UNL     1       4.412   2.119  -1.421  0.00  0.00    -0.270 OA
ATOM      4  H   UNL     1       2.876   3.817   0.650  0.00  0.00    +0.155 HD
ENDROOT
BRANCH   1   9
ATOM      5  C   UNL     1       8.524   6.378   0.257  0.00  0.00    +0.044 C 
ATOM      6  C   UNL     1       7.223   5.621   0.217  0.00  0.00    -0.050 A 
ATOM      7  C   UNL     1       6.039   6.295  -0.019  0.00  0.00    +0.008 A 
ATOM      8  C   UNL     1       4.844   5.604  -0.057  0.00  0.00    -0.029 A 
ATOM      9  C   UNL     1       4.832   4.230   0.143  0.00  0.00    +0.040 A 
ATOM     10  C   UNL     1       6.022   3.556   0.386  0.00  0.00    -0.029 A 
ATOM     11  C   UNL     1       7.214   4.252   0.416  0.00  0.00    +0.008 A 
ATOM     12  C   UNL     1       6.013   2.066   0.609  0.00  0.00    +0.045 C 
ATOM     13  C   UNL     1       3.554   6.340  -0.315  0.00  0.00    +0.045 C 
ENDBRANCH   1   9
BRANCH   2  14
ATOM     14  C   UNL     1       2.250   1.654  -0.669  0.00  0.00    +0.039 A 
ATOM     15  C   UNL     1       1.198   2.027   0.170  0.00  0.00    +0.014 A 
ATOM     16  C   UNL     1       0.035   1.286   0.184  0.00  0.00    +0.023 A 
ATOM     17  C   UNL     1      -0.091   0.174  -0.633  0.00  0.00    +0.071 A 
ATOM     18  C   UNL     1       0.949  -0.200  -1.468  0.00  0.00    +0.145 A 
ATOM     19  C   UNL     1       2.117   0.533  -1.490  0.00  0.00    +0.047 A 
ATOM     20 CL   UNL     1      -1.558  -0.754  -0.610  0.00  0.00    -0.081 Cl
BRANCH  18  21
ATOM     21  N   UNL     1       0.807  -1.389  -2.337  0.00  0.00    +0.058 N 
ATOM     22  O   UNL     1       1.720  -1.719  -3.072  0.00  0.00    -0.126 OA
ATOM     23  O   UNL     1      -0.224  -2.038  -2.318  0.00  0.00    -0.126 OA
ENDBRANCH  18  21
ENDBRANCH   2  14
TORSDOF 3
