REMARK  Name = ZINC20702413
REMARK  11 active torsions:
REMARK  status: ('A' for Active; 'I' for Inactive)
REMARK    1  A    between atoms: C_1  and  C_2
REMARK    2  A    between atoms: C_5  and  N_9
REMARK    3  A    between atoms: C_6  and  C_8
REMARK    4  A    between atoms: N_9  and  S_10
REMARK    5  A    between atoms: S_10  and  C_13
REMARK    6  A    between atoms: C_26  and  C_29
REMARK    7  A    between atoms: C_32  and  O_37
REMARK    8  A    between atoms: C_33  and  O_35
REMARK    9  A    between atoms: O_35  and  C_36
REMARK   10  A    between atoms: O_37  and  C_38
REMARK   11  A    between atoms: C_38  and  C_40
REMARK                            x       y       z     vdW  Elec       q    Type
REMARK                         _______ _______ _______ _____ _____    ______ ____
ROOT
ATOM      1  C   UNL     1      -0.769  -2.205  -2.608  0.00  0.00    +0.109 A 
ATOM      2  C   UNL     1       0.189  -1.533  -3.346  0.00  0.00    +0.030 A 
ATOM      3  C   UNL     1       0.705  -0.339  -2.887  0.00  0.00    +0.025 A 
ATOM      4  C   UNL     1       0.267   0.199  -1.682  0.00  0.00    +0.031 A 
ATOM      5  C   UNL     1      -0.692  -0.493  -0.935  0.00  0.00    -0.018 A 
ATOM      6  C   UNL     1      -1.206  -1.683  -1.405  0.00  0.00    +0.034 A 
ATOM      7  C   UNL     1      -1.114   0.101   0.352  0.00  0.00    +0.049 C 
ATOM      8  C   UNL     1      -2.449  -0.170   0.944  0.00  0.00    -0.023 C 
ATOM      9  C   UNL     1      -2.829   0.897   1.637  0.00  0.00    -0.030 C 
ATOM     10  C   UNL     1      -1.770   1.996   1.530  0.00  0.00    +0.033 C 
ATOM     11  C   UNL     1      -1.102   1.651   0.192  0.00  0.00    +0.029 C 
ATOM     12  C   UNL     1       0.360   2.029   0.031  0.00  0.00    +0.105 C 
ATOM     13  N   UNL     1       0.790   1.423  -1.248  0.00  0.00    -0.336 N 
ATOM     14  H   UNL     1       1.533   1.935  -1.877  0.00  0.00    +0.147 HD
ENDROOT
BRANCH  12  15
ATOM     15  C   UNL     1       1.171   1.469   1.171  0.00  0.00    -0.023 A 
ATOM     16  C   UNL     1       1.321   2.199   2.335  0.00  0.00    +0.009 A 
ATOM     17  C   UNL     1       2.059   1.688   3.386  0.00  0.00    +0.050 A 
ATOM     18  C   UNL     1       2.661   0.445   3.269  0.00  0.00    +0.173 A 
ATOM     19  C   UNL     1       2.515  -0.288   2.095  0.00  0.00    +0.163 A 
ATOM     20  C   UNL     1       1.769   0.228   1.048  0.00  0.00    +0.055 A 
BRANCH  19  21
ATOM     21  O   UNL     1       3.104  -1.508   1.976  0.00  0.00    -0.491 OA
ATOM     22  C   UNL     1       2.912  -2.203   0.742  0.00  0.00    +0.277 C 
ENDBRANCH  19  21
BRANCH  18  23
ATOM     23  O   UNL     1       3.392  -0.058   4.300  0.00  0.00    -0.422 OA
BRANCH  23  24
ATOM     24  C   UNL     1       4.716   0.157   4.269  0.00  0.00    +0.309 C 
ATOM     25  O   UNL     1       5.196   0.851   3.405  0.00  0.00    -0.251 OA
ATOM     26  C   UNL     1       5.605  -0.468   5.314  0.00  0.00    +0.136 C 
ENDBRANCH  23  24
ENDBRANCH  18  23
ENDBRANCH  12  15
BRANCH   1  27
ATOM     27  S   UNL     1      -1.431  -3.726  -3.201  0.00  0.00    +0.072 S 
ATOM     28  O   UNL     1      -2.707  -3.878  -2.593  0.00  0.00    -0.150 OA
ATOM     29  O   UNL     1      -1.256  -3.723  -4.611  0.00  0.00    -0.150 OA
BRANCH  27  30
ATOM     30  N   UNL     1      -0.476  -4.941  -2.608  0.00  0.00    -0.216 N 
ATOM     31  H   UNL     1       0.054  -5.612  -3.300  0.00  0.00    +0.174 HD
BRANCH  30  36
ATOM     32  C   UNL     1       0.069  -5.638   2.994  0.00  0.00    +0.044 C 
ATOM     33  C   UNL     1      -0.076  -5.454   1.505  0.00  0.00    -0.050 A 
ATOM     34  C   UNL     1      -1.260  -4.966   0.983  0.00  0.00    +0.005 A 
ATOM     35  C   UNL     1      -1.394  -4.790  -0.381  0.00  0.00    +0.025 A 
ATOM     36  C   UNL     1      -0.342  -5.113  -1.228  0.00  0.00    +0.051 A 
ATOM     37  C   UNL     1       0.846  -5.603  -0.700  0.00  0.00    -0.028 A 
ATOM     38  C   UNL     1       0.975  -5.772   0.665  0.00  0.00    +0.008 A 
ATOM     39  C   UNL     1       1.992  -5.950  -1.615  0.00  0.00    +0.046 C 
ENDBRANCH  30  36
ENDBRANCH  27  30
ENDBRANCH   1  27
TORSDOF 7
