REMARK  Name = ZINC39466066
REMARK  9 active torsions:
REMARK  status: ('A' for Active; 'I' for Inactive)
REMARK    1  A    between atoms: C_1  and  C_2
REMARK    2  A    between atoms: C_7  and  C_8
REMARK    3  A    between atoms: C_8  and  C_9
REMARK    4  A    between atoms: C_9  and  N_10
REMARK    5  A    between atoms: C_13  and  C_16
REMARK    6  A    between atoms: C_16  and  N_17
REMARK    7  A    between atoms: N_17  and  C_18
REMARK    8  A    between atoms: C_23  and  C_25
REMARK    9  A    between atoms: C_27  and  C_34
REMARK                            x       y       z     vdW  Elec       q    Type
REMARK                         _______ _______ _______ _____ _____    ______ ____
ROOT
ATOM      1  N   UNL     1      -3.674   2.696   8.220  0.00  0.00    -0.297 N 
ATOM      2  C   UNL     1      -3.945   3.993   7.974  0.00  0.00    +0.232 C 
ATOM      3  O   UNL     1      -4.910   4.519   8.486  0.00  0.00    -0.274 OA
ENDROOT
BRANCH   2   4
ATOM      4  C   UNL     1      -3.048   4.789   7.061  0.00  0.00    +0.187 C 
ATOM      5  C   UNL     1      -3.774   6.026   6.625  0.00  0.00    -0.050 C 
ATOM      6  C   UNL     1      -3.502   7.218   7.130  0.00  0.00    +0.023 C 
ATOM      7  C   UNL     1      -2.446   7.357   8.153  0.00  0.00    +0.026 C 
ATOM      8  N   UNL     1      -1.523   6.315   8.310  0.00  0.00    -0.285 N 
ATOM      9  C   UNL     1      -1.776   5.108   7.785  0.00  0.00    +0.233 C 
ATOM     10  O   UNL     1      -0.940   4.238   7.902  0.00  0.00    -0.274 OA
ATOM     11  C   UNL     1      -2.373   8.453   8.913  0.00  0.00    +0.033 C 
ATOM     12  C   UNL     1      -4.848   5.908   5.575  0.00  0.00    +0.040 C 
ATOM     13  H   UNL     1      -0.700   6.468   8.799  0.00  0.00    +0.155 HD
ENDBRANCH   2   4
BRANCH   1  14
ATOM     14  C   UNL     1      -4.470   1.955   9.202  0.00  0.00    +0.076 C 
ATOM     15  C   UNL     1      -5.945   1.902   8.754  0.00  0.00    +0.022 C 
ATOM     16  C   UNL     1      -6.748   2.029  10.072  0.00  0.00    +0.002 C 
ATOM     17  C   UNL     1      -5.911   3.049  10.885  0.00  0.00    +0.002 C 
ATOM     18  C   UNL     1      -4.448   2.684  10.557  0.00  0.00    +0.022 C 
ENDBRANCH   1  14
BRANCH   1  19
ATOM     19  C   UNL     1      -2.583   2.026   7.507  0.00  0.00    +0.111 C 
BRANCH  19  23
ATOM     20  N   UNL     1      -3.107   0.723   3.469  0.00  0.00    +0.380 N 
ATOM     21  C   UNL     1      -2.594  -0.271   4.419  0.00  0.00    -0.078 C 
ATOM     22  C   UNL     1      -2.036   0.439   5.654  0.00  0.00    -0.014 C 
ATOM     23  C   UNL     1      -3.152   1.251   6.317  0.00  0.00    +0.003 C 
ATOM     24  C   UNL     1      -3.730   2.234   5.295  0.00  0.00    -0.014 C 
ATOM     25  C   UNL     1      -4.225   1.458   4.072  0.00  0.00    -0.078 C 
ATOM     26  H   UNL     1      -2.369   1.370   3.232  0.00  0.00    -0.082 HD
BRANCH  20  27
ATOM     27  C   UNL     1      -3.569   0.043   2.252  0.00  0.00    -0.074 C 
BRANCH  27  28
ATOM     28  C   UNL     1      -2.380  -0.620   1.555  0.00  0.00    +0.017 C 
BRANCH  28  35
ATOM     29  C   UNL     1      -2.649   0.858  -0.913  0.00  0.00    +0.044 C 
ATOM     30  C   UNL     1      -2.983  -0.611  -0.874  0.00  0.00    -0.047 A 
ATOM     31  C   UNL     1      -3.413  -1.253  -2.021  0.00  0.00    +0.003 A 
ATOM     32  C   UNL     1      -3.720  -2.600  -1.985  0.00  0.00    +0.000 A 
ATOM     33  C   UNL     1      -3.596  -3.306  -0.803  0.00  0.00    +0.000 A 
ATOM     34  C   UNL     1      -3.165  -2.665   0.343  0.00  0.00    +0.004 A 
ATOM     35  C   UNL     1      -2.854  -1.318   0.306  0.00  0.00    -0.046 A 
ENDBRANCH  28  35
ENDBRANCH  27  28
ENDBRANCH  20  27
ENDBRANCH  19  23
ENDBRANCH   1  19
TORSDOF 7
