REMARK  Name = ZINC01869151
REMARK  13 active torsions:
REMARK  status: ('A' for Active; 'I' for Inactive)
REMARK    1  A    between atoms: C_1  and  O_2
REMARK    2  A    between atoms: O_2  and  C_3
REMARK    3  A    between atoms: C_3  and  C_5
REMARK    4  A    between atoms: C_5  and  O_42
REMARK    5  A    between atoms: C_6  and  C_31
REMARK    6  A    between atoms: C_7  and  O_17
REMARK    7  A    between atoms: N_10  and  C_11
REMARK    8  A    between atoms: O_17  and  C_18
REMARK    9  A    between atoms: C_18  and  C_19
REMARK   10  A    between atoms: C_18  and  C_25
REMARK   11  A    between atoms: C_31  and  C_33
REMARK   12  A    between atoms: C_36  and  N_39
REMARK   13  A    between atoms: O_42  and  C_43
REMARK                            x       y       z     vdW  Elec       q    Type
REMARK                         _______ _______ _______ _____ _____    ______ ____
ROOT
ATOM      1  C   UNL     1       1.610  -1.404   0.844  0.00  0.00    +0.275 C 
ATOM      2  C   UNL     1       1.946  -2.171  -0.414  0.00  0.00    +0.108 C 
ATOM      3  C   UNL     1       0.799  -2.755  -0.833  0.00  0.00    +0.196 C 
ATOM      4  C   UNL     1      -0.292  -2.406   0.100  0.00  0.00    +0.289 C 
ATOM      5  O   UNL     1      -1.445  -2.778  -0.005  0.00  0.00    -0.266 OA
ATOM      6  N   UNL     1       0.178  -1.616   1.082  0.00  0.00    -0.222 N 
ENDROOT
BRANCH   6   7
ATOM      7  C   UNL     1      -0.566  -1.091   2.142  0.00  0.00    +0.040 A 
ATOM      8  C   UNL     1       0.047  -0.281   3.090  0.00  0.00    +0.023 A 
ATOM      9  C   UNL     1      -0.691   0.236   4.136  0.00  0.00    +0.002 A 
ATOM     10  C   UNL     1      -2.039  -0.051   4.241  0.00  0.00    +0.000 A 
ATOM     11  C   UNL     1      -2.653  -0.858   3.300  0.00  0.00    +0.002 A 
ATOM     12  C   UNL     1      -1.922  -1.373   2.248  0.00  0.00    +0.023 A 
ENDBRANCH   6   7
BRANCH   1  13
ATOM     13  C   UNL     1       1.891   0.064   0.647  0.00  0.00    +0.364 C 
ATOM     14  O   UNL     1       2.736   0.612   1.314  0.00  0.00    -0.245 OA
BRANCH  13  16
ATOM     15  C   UNL     1       1.520   2.148  -0.403  0.00  0.00    +0.280 C 
ATOM     16  O   UNL     1       1.202   0.762  -0.269  0.00  0.00    -0.464 OA
ENDBRANCH  13  16
ENDBRANCH   1  13
BRANCH   2  17
ATOM     17  C   UNL     1       3.260  -2.263  -1.056  0.00  0.00    +0.198 C 
ATOM     18  O   UNL     1       4.125  -2.969  -0.573  0.00  0.00    -0.287 OA
BRANCH  17  19
ATOM     19  C   UNL     1       3.534  -1.499  -2.292  0.00  0.00    +0.022 A 
ATOM     20  C   UNL     1       2.548  -0.679  -2.843  0.00  0.00    +0.014 A 
ATOM     21  C   UNL     1       2.810   0.031  -3.996  0.00  0.00    +0.033 A 
ATOM     22  C   UNL     1       4.048  -0.068  -4.606  0.00  0.00    +0.126 A 
ATOM     23  C   UNL     1       5.031  -0.879  -4.066  0.00  0.00    +0.033 A 
ATOM     24  C   UNL     1       4.783  -1.590  -2.910  0.00  0.00    +0.014 A 
BRANCH  22  25
ATOM     25  N   UNL     1       4.323   0.698  -5.843  0.00  0.00    +0.056 N 
ATOM     26  O   UNL     1       3.467   1.407  -6.318  0.00  0.00    -0.126 OA
ATOM     27  O   UNL     1       5.404   0.614  -6.379  0.00  0.00    -0.126 OA
ENDBRANCH  22  25
ENDBRANCH  17  19
ENDBRANCH   2  17
BRANCH   1  28
ATOM     28  O   UNL     1       2.371  -1.906   1.945  0.00  0.00    -0.346 OA
ATOM     29  C   UNL     1       2.179  -3.299   2.196  0.00  0.00    +0.197 C 
ENDBRANCH   1  28
BRANCH   3  30
ATOM     30  O   UNL     1       0.672  -3.534  -1.932  0.00  0.00    -0.474 OA
BRANCH  30  31
ATOM     31  C   UNL     1       0.331  -4.905  -1.719  0.00  0.00    +0.234 C 
BRANCH  31  32
ATOM     32  C   UNL     1      -1.160  -5.079  -1.856  0.00  0.00    -0.003 A 
ATOM     33  C   UNL     1      -1.856  -4.353  -2.804  0.00  0.00    +0.007 A 
ATOM     34  C   UNL     1      -3.224  -4.512  -2.930  0.00  0.00    +0.000 A 
ATOM     35  C   UNL     1      -3.894  -5.398  -2.108  0.00  0.00    +0.000 A 
ATOM     36  C   UNL     1      -3.198  -6.125  -1.160  0.00  0.00    +0.000 A 
ATOM     37  C   UNL     1      -1.830  -5.968  -1.037  0.00  0.00    +0.007 A 
ENDBRANCH  31  32
BRANCH  31  38
ATOM     38  C   UNL     1       1.032  -5.762  -2.741  0.00  0.00    -0.003 A 
ATOM     39  C   UNL     1       1.234  -5.284  -4.023  0.00  0.00    +0.007 A 
ATOM     40  C   UNL     1       1.877  -6.070  -4.960  0.00  0.00    +0.000 A 
ATOM     41  C   UNL     1       2.320  -7.333  -4.616  0.00  0.00    +0.000 A 
ATOM     42  C   UNL     1       2.120  -7.811  -3.334  0.00  0.00    +0.000 A 
ATOM     43  C   UNL     1       1.480  -7.023  -2.396  0.00  0.00    +0.007 A 
ENDBRANCH  31  38
ENDBRANCH  30  31
ENDBRANCH   3  30
TORSDOF 11
