REMARK  Name = ZINC13993209
REMARK  10 active torsions:
REMARK  status: ('A' for Active; 'I' for Inactive)
REMARK    1  A    between atoms: C_1  and  C_2
REMARK    2  A    between atoms: C_6  and  O_8
REMARK    3  A    between atoms: O_8  and  C_9
REMARK    4  A    between atoms: C_9  and  C_11
REMARK    5  A    between atoms: C_9  and  C_12
REMARK    6  A    between atoms: N_14  and  N_15
REMARK    7  A    between atoms: C_16  and  C_18
REMARK    8  A    between atoms: C_18  and  O_19
REMARK    9  A    between atoms: O_19  and  C_20
REMARK   10  A    between atoms: C_21  and  C_28
REMARK                            x       y       z     vdW  Elec       q    Type
REMARK                         _______ _______ _______ _____ _____    ______ ____
ROOT
ATOM      1  N   UNL     1       1.945   9.089   1.934  0.00  0.00    -0.231 N 
ATOM      2  C   UNL     1       3.009   9.883   2.164  0.00  0.00    +0.267 C 
ATOM      3  O   UNL     1       4.096   9.585   1.717  0.00  0.00    -0.271 OA
ATOM      4  H   UNL     1       1.076   9.327   2.292  0.00  0.00    +0.173 HD
ENDROOT
BRANCH   1   7
ATOM      5  C   UNL     1       1.031   7.124   0.948  0.00  0.00    +0.270 C 
ATOM      6  O   UNL     1      -0.056   7.422   1.395  0.00  0.00    -0.270 OA
ATOM      7  N   UNL     1       2.095   7.919   1.178  0.00  0.00    -0.231 N 
ATOM      8  H   UNL     1       2.964   7.681   0.820  0.00  0.00    +0.173 HD
BRANCH   5   9
ATOM      9  C   UNL     1       1.192   5.866   0.134  0.00  0.00    +0.257 C 
ATOM     10  C   UNL     1       1.695   6.225  -1.266  0.00  0.00    +0.062 C 
BRANCH   9  11
ATOM     11  O   UNL     1      -0.069   5.201   0.031  0.00  0.00    -0.480 OA
BRANCH  11  17
ATOM     12  C   UNL     1      -2.478   0.981  -0.426  0.00  0.00    +0.044 C 
ATOM     13  C   UNL     1      -1.195   1.771  -0.420  0.00  0.00    -0.047 A 
ATOM     14  C   UNL     1       0.011   1.131  -0.641  0.00  0.00    +0.003 A 
ATOM     15  C   UNL     1       1.190   1.854  -0.642  0.00  0.00    +0.004 A 
ATOM     16  C   UNL     1       1.166   3.217  -0.417  0.00  0.00    +0.046 A 
ATOM     17  C   UNL     1      -0.042   3.860  -0.191  0.00  0.00    +0.122 A 
ATOM     18  C   UNL     1      -1.224   3.132  -0.190  0.00  0.00    +0.049 A 
ENDBRANCH  11  17
ENDBRANCH   9  11
ENDBRANCH   5   9
ENDBRANCH   1   7
BRANCH   2  19
ATOM     19  C   UNL     1       2.848  11.141   2.978  0.00  0.00    +0.326 C 
BRANCH  19  20
ATOM     20  O   UNL     1       4.109  11.807   3.081  0.00  0.00    -0.481 OA
BRANCH  20  21
ATOM     21  C   UNL     1       4.138  12.967   3.788  0.00  0.00    +0.138 A 
ATOM     22  C   UNL     1       4.396  12.944   5.151  0.00  0.00    -0.007 A 
ATOM     23  C   UNL     1       4.426  14.125   5.867  0.00  0.00    +0.022 A 
ATOM     24  C   UNL     1       4.198  15.330   5.228  0.00  0.00    +0.019 A 
ATOM     25  C   UNL     1       3.940  15.356   3.869  0.00  0.00    +0.034 A 
ATOM     26  C   UNL     1       3.915  14.178   3.147  0.00  0.00    +0.061 A 
ATOM     27 BR   UNL     1       3.570  14.214   1.288  0.00  0.00    -0.046 Br
ATOM     28 BR   UNL     1       4.241  16.944   6.212  0.00  0.00    -0.050 Br
ATOM     29  C   UNL     1       4.644  11.632   5.849  0.00  0.00    +0.047 C 
ENDBRANCH  20  21
ENDBRANCH  19  20
ENDBRANCH   2  19
TORSDOF 7
