REMARK  Name = ZINC39663231
REMARK  8 active torsions:
REMARK  status: ('A' for Active; 'I' for Inactive)
REMARK    1  A    between atoms: C_1  and  C_2
REMARK    2  A    between atoms: C_4  and  C_11
REMARK    3  A    between atoms: N_5  and  C_7
REMARK    4  A    between atoms: C_7  and  C_8
REMARK    5  A    between atoms: C_7  and  C_9
REMARK    6  A    between atoms: C_7  and  C_10
REMARK    7  A    between atoms: C_15  and  C_24
REMARK    8  A    between atoms: N_26  and  C_27
REMARK                            x       y       z     vdW  Elec       q    Type
REMARK                         _______ _______ _______ _____ _____    ______ ____
ROOT
ATOM      1  C   UNL     1      -0.597  -4.018  -1.461  0.00  0.00    +0.265 C 
ATOM      2  O   UNL     1      -0.840  -3.836  -2.639  0.00  0.00    -0.268 OA
ATOM      3  N   UNL     1      -0.704  -5.254  -0.935  0.00  0.00    -0.295 N 
ATOM      4  C   UNL     1      -0.581  -5.649   0.488  0.00  0.00    +0.121 C 
ATOM      5  C   UNL     1      -1.671  -6.726   0.691  0.00  0.00    +0.100 C 
ATOM      6  C   UNL     1      -1.922  -7.298  -0.714  0.00  0.00    -0.004 C 
ATOM      7  C   UNL     1      -0.979  -6.525  -1.647  0.00  0.00    +0.115 C 
ATOM      8  C   UNL     1      -1.593  -8.788  -0.744  0.00  0.00    -0.010 C 
ATOM      9  C   UNL     1      -1.905  -9.347  -2.135  0.00  0.00    -0.082 C 
ATOM     10  N   UNL     1      -3.325  -9.133  -2.443  0.00  0.00    +0.379 N 
ATOM     11  C   UNL     1      -3.613  -7.695  -2.503  0.00  0.00    -0.082 C 
ATOM     12  C   UNL     1      -3.372  -7.066  -1.128  0.00  0.00    -0.010 C 
ATOM     13  H   UNL     1      -3.542  -9.556  -3.333  0.00  0.00    -0.086 HD
ATOM     14  H   UNL     1      -3.891  -9.558  -1.724  0.00  0.00    -0.086 HD
ENDROOT
BRANCH   1  18
ATOM     15  C   UNL     1       1.054  -1.171   2.398  0.00  0.00    +0.067 C 
ATOM     16  C   UNL     1       0.534  -1.634   1.061  0.00  0.00    +0.061 A 
ATOM     17  C   UNL     1       0.273  -2.956   0.693  0.00  0.00    +0.057 A 
ATOM     18  C   UNL     1      -0.184  -2.890  -0.612  0.00  0.00    +0.124 A 
ATOM     19  N   UNL     1      -0.175  -1.567  -0.953  0.00  0.00    -0.254 N 
ATOM     20  N   UNL     1       0.242  -0.868   0.041  0.00  0.00    -0.175 NA
BRANCH  19  21
ATOM     21  C   UNL     1      -0.583  -1.028  -2.252  0.00  0.00    +0.056 C 
ATOM     22  C   UNL     1      -2.004  -1.493  -2.574  0.00  0.00    +0.036 C 
ATOM     23  C   UNL     1      -0.545   0.501  -2.204  0.00  0.00    +0.036 C 
ATOM     24  C   UNL     1       0.375  -1.527  -3.336  0.00  0.00    +0.036 C 
ENDBRANCH  19  21
ENDBRANCH   1  18
BRANCH   5  25
ATOM     25  C   UNL     1      -1.177  -7.805   1.619  0.00  0.00    +0.218 C 
ATOM     26  O   UNL     1       0.011  -8.033   1.706  0.00  0.00    -0.275 OA
ATOM     27  N   UNL     1      -2.055  -8.516   2.353  0.00  0.00    -0.314 N 
ATOM     28  H   UNL     1      -3.008  -8.388   2.227  0.00  0.00    +0.149 HD
BRANCH  27  29
ATOM     29  C   UNL     1      -1.570  -9.483   3.341  0.00  0.00    +0.059 C 
ATOM     30  C   UNL     1      -1.282  -8.767   4.662  0.00  0.00    -0.056 C 
ATOM     31  N   UNL     1      -2.116  -9.327   5.728  0.00  0.00    +0.381 N 
ATOM     32  C   UNL     1      -3.537  -9.136   5.426  0.00  0.00    -0.078 C 
ATOM     33  C   UNL     1      -3.899  -9.865   4.130  0.00  0.00    -0.014 C 
ATOM     34  C   UNL     1      -2.641 -10.556   3.579  0.00  0.00    +0.004 C 
ATOM     35  C   UNL     1      -2.121 -11.531   4.644  0.00  0.00    -0.014 C 
ATOM     36  C   UNL     1      -1.816 -10.747   5.925  0.00  0.00    -0.078 C 
ATOM     37  H   UNL     1      -1.911  -8.835   6.585  0.00  0.00    -0.082 HD
ENDBRANCH  27  29
ENDBRANCH   5  25
TORSDOF 4
