REMARK  Name = ZINC13064495
REMARK  16 active torsions:
REMARK  status: ('A' for Active; 'I' for Inactive)
REMARK    1  A    between atoms: C_1  and  C_2
REMARK    2  A    between atoms: C_2  and  C_3
REMARK    3  A    between atoms: C_3  and  C_5
REMARK    4  A    between atoms: C_3  and  N_76
REMARK    5  A    between atoms: N_9  and  C_10
REMARK    6  A    between atoms: C_10  and  C_11
REMARK    7  A    between atoms: C_10  and  C_12
REMARK    8  A    between atoms: C_10  and  C_13
REMARK    9  A    between atoms: C_13  and  C_14
REMARK   10  A    between atoms: C_15  and  C_16
REMARK   11  A    between atoms: C_15  and  N_76
REMARK   12  A    between atoms: C_20  and  O_30
REMARK   13  A    between atoms: C_21  and  O_28
REMARK   14  A    between atoms: O_28  and  C_29
REMARK   15  A    between atoms: O_30  and  C_31
REMARK   16  A    between atoms: C_32  and  N_76
REMARK                            x       y       z     vdW  Elec       q    Type
REMARK                         _______ _______ _______ _____ _____    ______ ____
ROOT
ATOM      1  N   UNL     1      -1.290   2.535   1.506  0.00  0.00    +0.391 N 
ATOM      2  H   UNL     1      -1.724   2.962   2.333  0.00  0.00    -0.080 HD
ENDROOT
BRANCH   1   3
ATOM      3  C   UNL     1       0.011   3.191   1.255  0.00  0.00    -0.067 C 
ATOM      4  C   UNL     1       0.771   2.466   0.142  0.00  0.00    -0.015 C 
ATOM      5  C   UNL     1       2.113   3.161  -0.095  0.00  0.00    -0.002 C 
ATOM      6  C   UNL     1       2.940   3.127   1.192  0.00  0.00    -0.000 C 
ATOM      7  C   UNL     1       2.180   3.851   2.306  0.00  0.00    -0.002 C 
ATOM      8  C   UNL     1       0.838   3.156   2.543  0.00  0.00    -0.015 C 
ENDBRANCH   1   3
BRANCH   1   9
ATOM      9  C   UNL     1      -1.088   1.093   1.759  0.00  0.00    +0.003 C 
BRANCH   9  10
ATOM     10  C   UNL     1      -0.840   0.361   0.466  0.00  0.00    +0.139 A 
ATOM     11  N   UNL     1      -1.383   0.622  -0.698  0.00  0.00    -0.115 NA
ATOM     12  N   UNL     1      -0.918  -0.223  -1.553  0.00  0.00    -0.023 NA
ATOM     13  N   UNL     1      -0.092  -1.016  -0.964  0.00  0.00    -0.043 NA
ATOM     14  N   UNL     1      -0.012  -0.685   0.280  0.00  0.00    -0.225 N 
BRANCH  14  15
ATOM     15  C   UNL     1       0.819  -1.328   1.300  0.00  0.00    +0.061 C 
ATOM     16  C   UNL     1       1.911  -0.357   1.755  0.00  0.00    +0.036 C 
ATOM     17  C   UNL     1      -0.051  -1.714   2.498  0.00  0.00    +0.036 C 
BRANCH  15  18
ATOM     18  C   UNL     1       1.466  -2.584   0.714  0.00  0.00    +0.026 C 
ATOM     19  C   UNL     1       2.334  -3.256   1.779  0.00  0.00    +0.006 C 
ENDBRANCH  15  18
ENDBRANCH  14  15
ENDBRANCH   9  10
BRANCH   9  21
ATOM     20  C   UNL     1      -2.529   1.192   3.798  0.00  0.00    +0.002 C 
ATOM     21  C   UNL     1      -2.344   0.533   2.429  0.00  0.00    -0.011 C 
ENDBRANCH   9  21
ENDBRANCH   1   9
BRANCH   1  22
ATOM     22  C   UNL     1      -2.183   2.725   0.344  0.00  0.00    -0.036 C 
BRANCH  22  23
ATOM     23  C   UNL     1      -2.691   4.143   0.351  0.00  0.00    +0.001 A 
ATOM     24  C   UNL     1      -2.078   5.085  -0.411  0.00  0.00    +0.017 A 
ATOM     25  C   UNL     1      -2.596   6.452  -0.383  0.00  0.00    +0.002 A 
ATOM     26  C   UNL     1      -2.003   7.464  -1.149  0.00  0.00    +0.059 A 
ATOM     27  C   UNL     1      -2.514   8.743  -1.101  0.00  0.00    +0.162 A 
ATOM     28  C   UNL     1      -3.619   9.031  -0.293  0.00  0.00    +0.163 A 
ATOM     29  C   UNL     1      -4.211   8.040   0.466  0.00  0.00    +0.075 A 
ATOM     30  C   UNL     1      -3.708   6.745   0.430  0.00  0.00    +0.053 A 
ATOM     31  N   UNL     1      -4.286   5.741   1.181  0.00  0.00    -0.322 N 
ATOM     32  H   UNL     1      -5.052   5.943   1.741  0.00  0.00    +0.169 HD
ATOM     33  C   UNL     1      -3.805   4.486   1.143  0.00  0.00    +0.251 A 
ATOM     34  O   UNL     1      -4.343   3.623   1.816  0.00  0.00    -0.268 OA
BRANCH  28  35
ATOM     35  O   UNL     1      -4.114  10.295  -0.255  0.00  0.00    -0.491 OA
ATOM     36  C   UNL     1      -5.243  10.524   0.590  0.00  0.00    +0.277 C 
ENDBRANCH  28  35
BRANCH  27  37
ATOM     37  O   UNL     1      -1.941   9.729  -1.843  0.00  0.00    -0.491 OA
ATOM     38  C   UNL     1      -0.816   9.367  -2.646  0.00  0.00    +0.277 C 
ENDBRANCH  27  37
ENDBRANCH  22  23
ENDBRANCH   1  22
TORSDOF 10
