REMARK  Name = ZINC13498778
REMARK  13 active torsions:
REMARK  status: ('A' for Active; 'I' for Inactive)
REMARK    1  A    between atoms: C_1  and  C_2
REMARK    2  A    between atoms: C_2  and  C_3
REMARK    3  A    between atoms: C_2  and  C_4
REMARK    4  A    between atoms: C_4  and  C_6
REMARK    5  A    between atoms: C_4  and  N_15
REMARK    6  A    between atoms: N_10  and  C_11
REMARK    7  A    between atoms: C_11  and  C_12
REMARK    8  A    between atoms: C_11  and  C_13
REMARK    9  A    between atoms: C_11  and  C_14
REMARK   10  A    between atoms: N_15  and  C_16
REMARK   11  A    between atoms: N_15  and  C_24
REMARK   12  A    between atoms: C_16  and  C_17
REMARK   13  A    between atoms: C_24  and  C_25
REMARK                            x       y       z     vdW  Elec       q    Type
REMARK                         _______ _______ _______ _____ _____    ______ ____
ROOT
ATOM      1  N   UNL     1      -1.771   0.676  -1.231  0.00  0.00    -0.284 NA
ENDROOT
BRANCH   1   2
ATOM      2  C   UNL     1      -0.976   0.062  -0.159  0.00  0.00    +0.130 C 
BRANCH   2   3
ATOM      3  C   UNL     1      -1.062   0.914   1.081  0.00  0.00    +0.169 A 
ATOM      4  N   UNL     1      -1.955   0.819   2.036  0.00  0.00    -0.112 NA
ATOM      5  N   UNL     1      -1.691   1.720   2.918  0.00  0.00    -0.023 NA
ATOM      6  N   UNL     1      -0.654   2.388   2.550  0.00  0.00    -0.043 NA
ATOM      7  N   UNL     1      -0.234   1.918   1.425  0.00  0.00    -0.222 N 
BRANCH   7   8
ATOM      8  C   UNL     1       0.925   2.390   0.663  0.00  0.00    +0.059 C 
ATOM      9  C   UNL     1       0.467   2.875  -0.714  0.00  0.00    +0.036 C 
ATOM     10  C   UNL     1       1.594   3.543   1.414  0.00  0.00    +0.036 C 
ATOM     11  C   UNL     1       1.925   1.244   0.493  0.00  0.00    +0.036 C 
ENDBRANCH   7   8
ENDBRANCH   2   3
BRANCH   2  13
ATOM     12  C   UNL     1      -1.511  -2.175  -1.135  0.00  0.00    +0.009 C 
ATOM     13  C   UNL     1      -1.521  -1.335   0.144  0.00  0.00    +0.008 C 
ATOM     14  C   UNL     1      -0.642  -2.007   1.201  0.00  0.00    +0.009 C 
ENDBRANCH   2  13
ENDBRANCH   1   2
BRANCH   1  15
ATOM     15  C   UNL     1      -3.204   0.410  -1.042  0.00  0.00    +0.120 C 
BRANCH  15  16
ATOM     16  C   UNL     1      -3.736   1.288   0.060  0.00  0.00    -0.033 A 
ATOM     17  C   UNL     1      -4.122   0.729   1.264  0.00  0.00    +0.008 A 
ATOM     18  C   UNL     1      -4.610   1.533   2.276  0.00  0.00    +0.038 A 
ATOM     19  C   UNL     1      -4.712   2.900   2.084  0.00  0.00    +0.123 A 
ATOM     20  C   UNL     1      -4.326   3.460   0.878  0.00  0.00    +0.038 A 
ATOM     21  C   UNL     1      -3.833   2.654  -0.131  0.00  0.00    +0.008 A 
ATOM     22  F   UNL     1      -5.190   3.688   3.073  0.00  0.00    -0.205 F 
ENDBRANCH  15  16
ENDBRANCH   1  15
BRANCH   1  23
ATOM     23  C   UNL     1      -1.320   0.215  -2.551  0.00  0.00    +0.126 C 
BRANCH  23  24
ATOM     24  C   UNL     1      -0.034   0.912  -2.914  0.00  0.00    +0.031 A 
ATOM     25  C   UNL     1       1.156   0.310  -2.661  0.00  0.00    +0.020 A 
ATOM     26  C   UNL     1       2.386   1.012  -3.025  0.00  0.00    +0.003 A 
ATOM     27  C   UNL     1       3.642   0.441  -2.787  0.00  0.00    +0.059 A 
ATOM     28  C   UNL     1       4.784   1.126  -3.143  0.00  0.00    +0.163 A 
ATOM     29  C   UNL     1       4.692   2.386  -3.741  0.00  0.00    +0.164 A 
ATOM     30  C   UNL     1       3.455   2.959  -3.978  0.00  0.00    +0.075 A 
ATOM     31  C   UNL     1       2.294   2.283  -3.625  0.00  0.00    +0.053 A 
ATOM     32  N   UNL     1       1.052   2.840  -3.855  0.00  0.00    -0.322 N 
ATOM     33  H   UNL     1       0.990   3.715  -4.268  0.00  0.00    +0.169 HD
ATOM     34  C   UNL     1      -0.072   2.183  -3.521  0.00  0.00    +0.254 A 
ATOM     35  O   UNL     1      -1.152   2.704  -3.744  0.00  0.00    -0.268 OA
ATOM     36  O   UNL     1       5.815   3.065  -4.102  0.00  0.00    -0.485 OA
ATOM     37  C   UNL     1       7.046   2.633  -3.513  0.00  0.00    +0.270 C 
ATOM     38  C   UNL     1       7.116   1.103  -3.610  0.00  0.00    +0.270 C 
ATOM     39  O   UNL     1       5.999   0.558  -2.901  0.00  0.00    -0.485 OA
ENDBRANCH  23  24
ENDBRANCH   1  23
TORSDOF 8
