REMARK  Name = ZINC12311877
REMARK  13 active torsions:
REMARK  status: ('A' for Active; 'I' for Inactive)
REMARK    1  A    between atoms: C_1  and  C_2
REMARK    2  A    between atoms: C_5  and  S_24
REMARK    3  A    between atoms: C_7  and  N_8
REMARK    4  A    between atoms: N_8  and  C_9
REMARK    5  A    between atoms: C_9  and  N_11
REMARK    6  A    between atoms: N_11  and  N_12
REMARK    7  A    between atoms: C_13  and  C_14
REMARK    8  A    between atoms: C_16  and  O_22
REMARK    9  A    between atoms: C_17  and  O_21
REMARK   10  A    between atoms: O_22  and  C_23
REMARK   11  A    between atoms: S_24  and  N_27
REMARK   12  A    between atoms: N_27  and  C_28
REMARK   13  A    between atoms: N_27  and  C_29
REMARK                            x       y       z     vdW  Elec       q    Type
REMARK                         _______ _______ _______ _____ _____    ______ ____
ROOT
ATOM      1  C   UNL     1       2.336   5.233  -0.093  0.00  0.00    +0.154 C 
ATOM      2  S   UNL     1       0.843   6.071  -0.075  0.00  0.00    -0.017 S 
ENDROOT
BRANCH   1   3
ATOM      3  N   UNL     1       2.355   3.889   0.001  0.00  0.00    -0.295 N 
ATOM      4  H   UNL     1       3.201   3.419   0.071  0.00  0.00    +0.154 HD
BRANCH   3  11
ATOM      5  C   UNL     1       2.043   1.787   1.894  0.00  0.00    +0.045 C 
ATOM      6  C   UNL     1       0.961   2.137   0.905  0.00  0.00    -0.029 A 
ATOM      7  C   UNL     1      -0.226   1.429   0.900  0.00  0.00    +0.007 A 
ATOM      8  C   UNL     1      -1.216   1.745  -0.011  0.00  0.00    +0.029 A 
ATOM      9  C   UNL     1      -1.028   2.777  -0.912  0.00  0.00    +0.107 A 
ATOM     10  C   UNL     1       0.155   3.488  -0.912  0.00  0.00    +0.052 A 
ATOM     11  C   UNL     1       1.155   3.170  -0.002  0.00  0.00    +0.037 A 
BRANCH   9  12
ATOM     12  S   UNL     1      -2.297   3.180  -2.066  0.00  0.00    +0.060 S 
ATOM     13  O   UNL     1      -3.519   2.725  -1.501  0.00  0.00    -0.153 OA
ATOM     14  O   UNL     1      -2.089   4.534  -2.442  0.00  0.00    -0.153 OA
BRANCH  12  15
ATOM     15  N   UNL     1      -2.034   2.266  -3.422  0.00  0.00    -0.183 NA
ATOM     16  C   UNL     1      -2.646   0.940  -3.542  0.00  0.00    +0.131 C 
ATOM     17  C   UNL     1      -1.188   2.783  -4.501  0.00  0.00    +0.131 C 
ENDBRANCH  12  15
ENDBRANCH   9  12
ENDBRANCH   3  11
ENDBRANCH   1   3
BRANCH   1  18
ATOM     18  N   UNL     1       3.491   5.918  -0.202  0.00  0.00    -0.218 N 
ATOM     19  H   UNL     1       3.477   6.885  -0.270  0.00  0.00    +0.176 HD
BRANCH  18  20
ATOM     20  N   UNL     1       4.713   5.232  -0.216  0.00  0.00    -0.188 NA
ATOM     21  C   UNL     1       5.826   5.891  -0.321  0.00  0.00    +0.138 C 
BRANCH  21  22
ATOM     22  C   UNL     1       7.112   5.170  -0.336  0.00  0.00    -0.001 A 
ATOM     23  C   UNL     1       8.311   5.878  -0.455  0.00  0.00    +0.059 A 
ATOM     24  C   UNL     1       9.514   5.197  -0.463  0.00  0.00    +0.163 A 
ATOM     25  C   UNL     1       9.529   3.808  -0.365  0.00  0.00    +0.173 A 
ATOM     26  C   UNL     1       8.339   3.103  -0.253  0.00  0.00    +0.063 A 
ATOM     27  C   UNL     1       7.134   3.777  -0.239  0.00  0.00    +0.028 A 
ATOM     28 BR   UNL     1       8.367   1.217  -0.120  0.00  0.00    -0.046 Br
BRANCH  25  29
ATOM     29  O   UNL     1      10.713   3.140  -0.379  0.00  0.00    -0.503 OA
ATOM     30  H   UNL     1      11.010   2.884  -1.262  0.00  0.00    +0.292 HD
ENDBRANCH  25  29
BRANCH  24  31
ATOM     31  O   UNL     1      10.683   5.884  -0.572  0.00  0.00    -0.491 OA
ATOM     32  C   UNL     1      10.593   7.307  -0.668  0.00  0.00    +0.277 C 
ENDBRANCH  24  31
ENDBRANCH  21  22
ENDBRANCH  18  20
ENDBRANCH   1  18
TORSDOF 9
