REMARK  Name = ZINC43754985
REMARK  6 active torsions:
REMARK  status: ('A' for Active; 'I' for Inactive)
REMARK    1  A    between atoms: C_1  and  O_2
REMARK    2  A    between atoms: O_2  and  C_3
REMARK    3  A    between atoms: C_3  and  C_5
REMARK    4  A    between atoms: C_18  and  C_25
REMARK    5  A    between atoms: C_21  and  C_23
REMARK    6  A    between atoms: C_28  and  N_31
REMARK                            x       y       z     vdW  Elec       q    Type
REMARK                         _______ _______ _______ _____ _____    ______ ____
ROOT
ATOM      1  C   UNL     1      -1.812  -1.880  -0.568  0.00  0.00    +0.190 C 
ATOM      2  C   UNL     1      -1.061  -1.756   0.763  0.00  0.00    +0.071 C 
ATOM      3  C   UNL     1      -1.019  -3.108   1.430  0.00  0.00    -0.015 A 
ATOM      4  C   UNL     1      -0.144  -3.557   2.494  0.00  0.00    +0.003 A 
ATOM      5  C   UNL     1       0.883  -2.929   3.205  0.00  0.00    +0.010 A 
ATOM      6  C   UNL     1       1.516  -3.674   4.169  0.00  0.00    +0.001 A 
ATOM      7  C   UNL     1       1.163  -4.987   4.435  0.00  0.00    +0.002 A 
ATOM      8  C   UNL     1       0.150  -5.633   3.747  0.00  0.00    +0.026 A 
ATOM      9  C   UNL     1      -0.510  -4.901   2.762  0.00  0.00    +0.047 A 
ATOM     10  N   UNL     1      -1.531  -5.221   1.914  0.00  0.00    -0.356 N 
ATOM     11  H   UNL     1      -1.979  -6.080   1.879  0.00  0.00    +0.166 HD
ATOM     12  C   UNL     1      -1.828  -4.144   1.121  0.00  0.00    +0.046 A 
ATOM     13  C   UNL     1      -2.888  -4.083   0.044  0.00  0.00    +0.154 C 
ATOM     14  N   UNL     1      -3.032  -2.674  -0.359  0.00  0.00    -0.274 N 
ATOM     15  C   UNL     1      -4.251  -2.125  -0.528  0.00  0.00    +0.232 C 
ATOM     16  O   UNL     1      -5.246  -2.756  -0.238  0.00  0.00    -0.274 OA
ENDROOT
BRANCH  13  17
ATOM     17  C   UNL     1      -4.197  -4.600   0.584  0.00  0.00    -0.021 A 
ATOM     18  C   UNL     1      -4.773  -4.002   1.689  0.00  0.00    +0.008 A 
ATOM     19  C   UNL     1      -5.973  -4.476   2.184  0.00  0.00    +0.033 A 
ATOM     20  C   UNL     1      -6.597  -5.548   1.575  0.00  0.00    +0.126 A 
ATOM     21  C   UNL     1      -6.021  -6.146   0.469  0.00  0.00    +0.033 A 
ATOM     22  C   UNL     1      -4.823  -5.669  -0.029  0.00  0.00    +0.008 A 
BRANCH  20  23
ATOM     23  N   UNL     1      -7.882  -6.057   2.106  0.00  0.00    +0.056 N 
ATOM     24  O   UNL     1      -8.386  -5.534   3.072  0.00  0.00    -0.126 OA
ATOM     25  O   UNL     1      -8.428  -6.995   1.573  0.00  0.00    -0.126 OA
ENDBRANCH  20  23
ENDBRANCH  13  17
BRANCH   1  26
ATOM     26  C   UNL     1      -2.183  -0.508  -1.068  0.00  0.00    +0.328 C 
ATOM     27  O   UNL     1      -2.401   0.383  -0.281  0.00  0.00    -0.249 OA
BRANCH  26  29
ATOM     28  C   UNL     1      -2.626   1.050  -2.789  0.00  0.00    +0.280 C 
ATOM     29  O   UNL     1      -2.270  -0.274  -2.387  0.00  0.00    -0.467 OA
ENDBRANCH  26  29
ENDBRANCH   1  26
BRANCH  15  30
ATOM     30  C   UNL     1      -4.379  -0.728  -1.077  0.00  0.00    +0.204 C 
ATOM     31 CL   UNL     1      -6.122  -0.333  -1.319  0.00  0.00    -0.116 Cl
ENDBRANCH  15  30
TORSDOF 5
