REMARK  Name = ZINC18276848
REMARK  3 active torsions:
REMARK  status: ('A' for Active; 'I' for Inactive)
REMARK    1  A    between atoms: C_5  and  C_7
REMARK    2  A    between atoms: N_15  and  C_18
REMARK    3  A    between atoms: C_21  and  N_24
REMARK                            x       y       z     vdW  Elec       q    Type
REMARK                         _______ _______ _______ _____ _____    ______ ____
ROOT
ATOM      1  C   UNL     1       1.229  -2.186  -0.022  0.00  0.00    +0.164 C 
ATOM      2  C   UNL     1       1.318  -2.701  -1.448  0.00  0.00    +0.125 C 
ATOM      3  C   UNL     1      -0.228  -2.687  -1.777  0.00  0.00    +0.138 C 
ATOM      4  C   UNL     1      -0.209  -2.833  -3.212  0.00  0.00    +0.234 C 
ATOM      5  O   UNL     1      -1.006  -3.430  -3.903  0.00  0.00    -0.274 OA
ATOM      6  N   UNL     1       0.907  -2.149  -3.625  0.00  0.00    -0.210 N 
ATOM      7  C   UNL     1       1.760  -1.831  -2.580  0.00  0.00    +0.233 C 
ATOM      8  O   UNL     1       2.671  -1.031  -2.577  0.00  0.00    -0.274 OA
ATOM      9  C   UNL     1      -0.770  -3.333  -0.576  0.00  0.00    +0.206 C 
ATOM     10  O   UNL     1      -0.021  -2.708   0.510  0.00  0.00    -0.348 OA
ATOM     11  C   UNL     1      -0.563  -4.824  -0.525  0.00  0.00    +0.204 C 
ATOM     12  O   UNL     1       0.490  -5.410  -0.658  0.00  0.00    -0.288 OA
ATOM     13  C   UNL     1      -1.883  -5.438  -0.284  0.00  0.00    +0.031 A 
ATOM     14  C   UNL     1      -2.254  -6.778  -0.153  0.00  0.00    +0.012 A 
ATOM     15  C   UNL     1      -3.576  -7.111   0.074  0.00  0.00    +0.001 A 
ATOM     16  C   UNL     1      -4.541  -6.125   0.174  0.00  0.00    +0.001 A 
ATOM     17  C   UNL     1      -4.195  -4.793   0.047  0.00  0.00    +0.012 A 
ATOM     18  C   UNL     1      -2.865  -4.433  -0.184  0.00  0.00    +0.031 A 
ATOM     19  C   UNL     1      -2.243  -3.107  -0.356  0.00  0.00    +0.204 C 
ATOM     20  O   UNL     1      -2.810  -2.036  -0.327  0.00  0.00    -0.288 OA
ENDROOT
BRANCH   1  25
ATOM     21  C   UNL     1      -0.017   1.378   0.010  0.00  0.00    +0.000 A 
ATOM     22  C   UNL     1       1.171   2.086   0.002  0.00  0.00    +0.001 A 
ATOM     23  C   UNL     1       2.377   1.412  -0.013  0.00  0.00    +0.020 A 
ATOM     24  C   UNL     1       2.397   0.029  -0.021  0.00  0.00    +0.047 A 
ATOM     25  C   UNL     1       1.208  -0.679  -0.013  0.00  0.00    +0.000 A 
ATOM     26  C   UNL     1       0.002  -0.004   0.002  0.00  0.00    +0.007 A 
ATOM     27 CL   UNL     1       3.912  -0.818  -0.041  0.00  0.00    -0.083 Cl
ENDBRANCH   1  25
BRANCH   6  28
ATOM     28  C   UNL     1       1.160  -1.808  -4.961  0.00  0.00    +0.044 A 
ATOM     29  C   UNL     1       0.253  -2.158  -5.952  0.00  0.00    +0.026 A 
ATOM     30  C   UNL     1       0.505  -1.820  -7.268  0.00  0.00    +0.034 A 
ATOM     31  C   UNL     1       1.659  -1.133  -7.598  0.00  0.00    +0.126 A 
ATOM     32  C   UNL     1       2.564  -0.784  -6.613  0.00  0.00    +0.034 A 
ATOM     33  C   UNL     1       2.315  -1.114  -5.295  0.00  0.00    +0.026 A 
BRANCH  31  34
ATOM     34  N   UNL     1       1.925  -0.773  -9.008  0.00  0.00    +0.056 N 
ATOM     35  O   UNL     1       1.135  -1.078  -9.870  0.00  0.00    -0.126 OA
ATOM     36  O   UNL     1       2.934  -0.173  -9.299  0.00  0.00    -0.126 OA
ENDBRANCH  31  34
ENDBRANCH   6  28
TORSDOF 3
