REMARK  Name = ZINC14241894
REMARK  9 active torsions:
REMARK  status: ('A' for Active; 'I' for Inactive)
REMARK    1  A    between atoms: C_1  and  C_2
REMARK    2  A    between atoms: C_2  and  C_4
REMARK    3  A    between atoms: C_2  and  N_14
REMARK    4  A    between atoms: C_15  and  C_17
REMARK    5  A    between atoms: C_17  and  N_18
REMARK    6  A    between atoms: C_21  and  C_25
REMARK    7  A    between atoms: C_21  and  C_32
REMARK    8  A    between atoms: C_25  and  C_26
REMARK    9  A    between atoms: C_32  and  C_33
REMARK                            x       y       z     vdW  Elec       q    Type
REMARK                         _______ _______ _______ _____ _____    ______ ____
ROOT
ATOM      1  N   UNL     1       7.911   1.789   2.431  0.00  0.00    -0.215 N 
ATOM      2  C   UNL     1       9.005   2.269   1.808  0.00  0.00    +0.248 C 
ATOM      3  O   UNL     1       9.323   2.099   0.651  0.00  0.00    -0.273 OA
ATOM      4  C   UNL     1       9.755   3.069   2.856  0.00  0.00    +0.120 C 
ATOM      5  N   UNL     1       8.921   2.927   4.062  0.00  0.00    -0.284 N 
ATOM      6  C   UNL     1       7.869   2.164   3.715  0.00  0.00    +0.310 C 
ATOM      7  O   UNL     1       6.979   1.851   4.481  0.00  0.00    -0.252 OA
ATOM      8  H   UNL     1       9.097   3.309   4.936  0.00  0.00    +0.151 HD
ENDROOT
BRANCH   1   9
ATOM      9  C   UNL     1       6.895   0.955   1.784  0.00  0.00    +0.213 C 
BRANCH   9  11
ATOM     10  N   UNL     1       4.777   1.282   0.549  0.00  0.00    -0.307 N 
ATOM     11  C   UNL     1       5.821   1.835   1.197  0.00  0.00    +0.231 C 
ATOM     12  O   UNL     1       5.897   3.040   1.309  0.00  0.00    -0.274 OA
ATOM     13  H   UNL     1       4.717   0.318   0.460  0.00  0.00    +0.149 HD
BRANCH  10  15
ATOM     14  C   UNL     1       4.136   2.559  -1.436  0.00  0.00    +0.033 C 
ATOM     15  C   UNL     1       3.733   2.137  -0.021  0.00  0.00    +0.101 C 
BRANCH  15  16
ATOM     16  C   UNL     1       2.434   1.376  -0.075  0.00  0.00    -0.020 A 
ATOM     17  C   UNL     1       2.440   0.018  -0.172  0.00  0.00    +0.006 A 
ATOM     18  C   UNL     1       1.249  -0.703  -0.223  0.00  0.00    +0.001 A 
ATOM     19  C   UNL     1       0.044  -0.070  -0.176  0.00  0.00    +0.008 A 
ATOM     20  C   UNL     1      -0.002   1.330  -0.075  0.00  0.00    -0.018 A 
ATOM     21  C   UNL     1       1.210   2.063  -0.024  0.00  0.00    -0.013 A 
ATOM     22  C   UNL     1       1.163   3.465   0.076  0.00  0.00    +0.009 A 
ATOM     23  C   UNL     1      -0.041   4.097   0.123  0.00  0.00    +0.001 A 
ATOM     24  C   UNL     1      -1.232   3.376   0.073  0.00  0.00    +0.001 A 
ATOM     25  C   UNL     1      -1.227   2.019  -0.030  0.00  0.00    +0.008 A 
ENDBRANCH  15  16
ENDBRANCH  10  15
ENDBRANCH   9  11
ENDBRANCH   1   9
BRANCH   4  26
ATOM     26  C   UNL     1       9.860   4.538   2.444  0.00  0.00    +0.070 C 
BRANCH  26  27
ATOM     27  C   UNL     1       8.477   5.117   2.288  0.00  0.00    -0.045 A 
ATOM     28  C   UNL     1       7.840   5.064   1.062  0.00  0.00    +0.004 A 
ATOM     29  C   UNL     1       6.570   5.590   0.920  0.00  0.00    +0.000 A 
ATOM     30  C   UNL     1       5.941   6.178   2.002  0.00  0.00    +0.000 A 
ATOM     31  C   UNL     1       6.580   6.235   3.226  0.00  0.00    +0.000 A 
ATOM     32  C   UNL     1       7.848   5.705   3.369  0.00  0.00    +0.004 A 
ENDBRANCH  26  27
ENDBRANCH   4  26
BRANCH   4  33
ATOM     33  C   UNL     1      11.146   2.476   3.090  0.00  0.00    +0.070 C 
BRANCH  33  34
ATOM     34  C   UNL     1      11.017   1.016   3.443  0.00  0.00    -0.045 A 
ATOM     35  C   UNL     1      10.891   0.634   4.765  0.00  0.00    +0.004 A 
ATOM     36  C   UNL     1      10.768  -0.705   5.089  0.00  0.00    +0.000 A 
ATOM     37  C   UNL     1      10.782  -1.661   4.091  0.00  0.00    +0.000 A 
ATOM     38  C   UNL     1      10.914  -1.278   2.769  0.00  0.00    +0.000 A 
ATOM     39  C   UNL     1      11.031   0.060   2.445  0.00  0.00    +0.004 A 
ENDBRANCH  33  34
ENDBRANCH   4  33
TORSDOF 8
