REMARK  Name = ZINC07660681
REMARK  9 active torsions:
REMARK  status: ('A' for Active; 'I' for Inactive)
REMARK    1  A    between atoms: C_1  and  C_2
REMARK    2  A    between atoms: C_2  and  C_3
REMARK    3  A    between atoms: C_2  and  C_4
REMARK    4  A    between atoms: C_2  and  C_5
REMARK    5  A    between atoms: C_14  and  O_28
REMARK    6  A    between atoms: C_16  and  C_19
REMARK    7  A    between atoms: C_22  and  O_26
REMARK    8  A    between atoms: C_23  and  O_25
REMARK    9  A    between atoms: O_26  and  C_27
REMARK                            x       y       z     vdW  Elec       q    Type
REMARK                         _______ _______ _______ _____ _____    ______ ____
ROOT
ATOM      1  C   UNL     1       0.718  -0.497  -1.257  0.00  0.00    -0.000 C 
ATOM      2  C   UNL     1      -0.017   0.014  -2.499  0.00  0.00    +0.009 C 
ATOM      3  C   UNL     1       0.538  -0.670  -3.751  0.00  0.00    +0.037 C 
ATOM      4  C   UNL     1       2.052  -0.513  -3.763  0.00  0.00    -0.023 A 
ATOM      5  C   UNL     1       2.731  -0.196  -2.637  0.00  0.00    -0.004 A 
ATOM      6  S   UNL     1       4.429  -0.127  -3.137  0.00  0.00    -0.078 S 
ATOM      7  C   UNL     1       4.257  -0.500  -4.743  0.00  0.00    +0.080 A 
ATOM      8  C   UNL     1       2.883  -0.682  -4.940  0.00  0.00    +0.068 A 
ATOM      9  C   UNL     1       2.426  -1.017  -6.314  0.00  0.00    +0.220 C 
ATOM     10  N   UNL     1       3.333  -1.364  -7.186  0.00  0.00    -0.223 NA
ATOM     11  C   UNL     1       4.753  -1.508  -6.889  0.00  0.00    +0.224 C 
ATOM     12  N   UNL     1       5.164  -0.642  -5.769  0.00  0.00    -0.313 N 
ATOM     13  C   UNL     1       2.158   0.038  -1.273  0.00  0.00    +0.046 C 
ATOM     14  H   UNL     1       6.026  -0.197  -5.756  0.00  0.00    +0.149 HD
ENDROOT
BRANCH  11  15
ATOM     15  C   UNL     1       5.037  -2.943  -6.530  0.00  0.00    -0.002 A 
ATOM     16  C   UNL     1       6.058  -3.244  -5.647  0.00  0.00    +0.011 A 
ATOM     17  C   UNL     1       6.323  -4.559  -5.314  0.00  0.00    +0.050 A 
ATOM     18  C   UNL     1       5.565  -5.580  -5.865  0.00  0.00    +0.161 A 
ATOM     19  C   UNL     1       4.538  -5.277  -6.754  0.00  0.00    +0.159 A 
ATOM     20  C   UNL     1       4.274  -3.957  -7.080  0.00  0.00    +0.056 A 
BRANCH  19  21
ATOM     21  O   UNL     1       3.791  -6.275  -7.298  0.00  0.00    -0.503 OA
ATOM     22  H   UNL     1       3.008  -6.508  -6.781  0.00  0.00    +0.292 HD
ENDBRANCH  19  21
BRANCH  18  23
ATOM     23  O   UNL     1       5.824  -6.874  -5.539  0.00  0.00    -0.491 OA
ATOM     24  C   UNL     1       6.894  -7.110  -4.621  0.00  0.00    +0.277 C 
ENDBRANCH  18  23
ENDBRANCH  11  15
BRANCH   1  26
ATOM     25  C   UNL     1      -0.019   1.526   0.010  0.00  0.00    +0.011 C 
ATOM     26  C   UNL     1       0.002  -0.004   0.002  0.00  0.00    -0.035 C 
ATOM     27  C   UNL     1       0.742  -0.511   1.242  0.00  0.00    +0.011 C 
ATOM     28  C   UNL     1      -1.433  -0.534   0.013  0.00  0.00    +0.011 C 
ENDBRANCH   1  26
BRANCH   9  29
ATOM     29  O   UNL     1       1.116  -0.964  -6.648  0.00  0.00    -0.492 OA
ATOM     30  H   UNL     1       0.935  -1.202  -7.568  0.00  0.00    +0.294 HD
ENDBRANCH   9  29
TORSDOF 5
