REMARK  Name = ZINC01310407
REMARK  7 active torsions:
REMARK  status: ('A' for Active; 'I' for Inactive)
REMARK    1  A    between atoms: C_4  and  C_7
REMARK    2  A    between atoms: C_7  and  C_8
REMARK    3  A    between atoms: C_8  and  N_9
REMARK    4  A    between atoms: N_17  and  N_18
REMARK    5  A    between atoms: C_19  and  C_21
REMARK    6  A    between atoms: C_21  and  N_22
REMARK    7  A    between atoms: C_23  and  C_25
REMARK                            x       y       z     vdW  Elec       q    Type
REMARK                         _______ _______ _______ _____ _____    ______ ____
ROOT
ATOM      1  N   UNL     1       5.450  -1.678   1.382  0.00  0.00    -0.265 N 
ATOM      2  C   UNL     1       5.572  -3.063   1.368  0.00  0.00    +0.046 A 
ATOM      3  C   UNL     1       4.618  -4.075   1.367  0.00  0.00    +0.024 A 
ATOM      4  C   UNL     1       5.011  -5.398   1.353  0.00  0.00    +0.002 A 
ATOM      5  C   UNL     1       6.354  -5.735   1.339  0.00  0.00    +0.001 A 
ATOM      6  C   UNL     1       7.316  -4.744   1.339  0.00  0.00    +0.012 A 
ATOM      7  C   UNL     1       6.930  -3.409   1.354  0.00  0.00    +0.028 A 
ATOM      8  C   UNL     1       7.685  -2.135   1.360  0.00  0.00    +0.153 C 
ATOM      9  N   UNL     1       8.987  -1.978   1.350  0.00  0.00    -0.174 NA
ATOM     10  C   UNL     1       6.652  -1.079   1.372  0.00  0.00    +0.271 C 
ATOM     11  O   UNL     1       6.854   0.121   1.375  0.00  0.00    -0.268 OA
ENDROOT
BRANCH   9  12
ATOM     12  N   UNL     1       9.537  -0.690   1.357  0.00  0.00    -0.205 N 
ATOM     13  C   UNL     1      10.876  -0.529   1.347  0.00  0.00    +0.249 C 
ATOM     14  O   UNL     1      11.603  -1.499   1.332  0.00  0.00    -0.272 OA
ATOM     15  H   UNL     1       8.956   0.086   1.370  0.00  0.00    +0.177 HD
BRANCH  13  16
ATOM     16  C   UNL     1      11.468   0.857   1.355  0.00  0.00    +0.202 C 
BRANCH  16  17
ATOM     17  N   UNL     1      12.930   0.763   1.341  0.00  0.00    -0.303 N 
ATOM     18  C   UNL     1      13.677   1.884   1.346  0.00  0.00    +0.244 C 
ATOM     19  O   UNL     1      13.139   2.974   1.361  0.00  0.00    -0.270 OA
ATOM     20  H   UNL     1      13.360  -0.107   1.329  0.00  0.00    +0.150 HD
BRANCH  18  21
ATOM     21  C   UNL     1      15.153   1.789   1.332  0.00  0.00    +0.038 A 
ATOM     22  C   UNL     1      15.775   0.540   1.309  0.00  0.00    +0.013 A 
ATOM     23  C   UNL     1      17.152   0.458   1.296  0.00  0.00    +0.002 A 
ATOM     24  C   UNL     1      17.917   1.611   1.307  0.00  0.00    +0.015 A 
ATOM     25  C   UNL     1      17.307   2.853   1.330  0.00  0.00    +0.019 A 
ATOM     26  C   UNL     1      15.929   2.949   1.336  0.00  0.00    +0.028 A 
ATOM     27 BR   UNL     1      18.362   4.422   1.346  0.00  0.00    -0.050 Br
ENDBRANCH  18  21
ENDBRANCH  16  17
ENDBRANCH  13  16
ENDBRANCH   9  12
BRANCH   1  28
ATOM     28  C   UNL     1       4.171  -0.963   1.399  0.00  0.00    +0.118 C 
BRANCH  28  29
ATOM     29  C   UNL     1       3.711  -0.707  -0.038  0.00  0.00    +0.054 C 
BRANCH  29  33
ATOM     30  C   UNL     1      -0.017   1.378   0.010  0.00  0.00    +0.000 A 
ATOM     31  C   UNL     1       1.171   2.086   0.002  0.00  0.00    +0.000 A 
ATOM     32  C   UNL     1       2.377   1.411  -0.013  0.00  0.00    +0.004 A 
ATOM     33  C   UNL     1       2.396   0.029  -0.020  0.00  0.00    -0.046 A 
ATOM     34  C   UNL     1       1.208  -0.679  -0.012  0.00  0.00    +0.004 A 
ATOM     35  C   UNL     1       0.002  -0.004   0.002  0.00  0.00    +0.000 A 
ENDBRANCH  29  33
ENDBRANCH  28  29
ENDBRANCH   1  28
TORSDOF 7
