REMARK  Name = ZINC42027385
REMARK  5 active torsions:
REMARK  status: ('A' for Active; 'I' for Inactive)
REMARK    1  A    between atoms: C_1  and  C_2
REMARK    2  A    between atoms: C_5  and  N_8
REMARK    3  A    between atoms: C_9  and  C_13
REMARK    4  A    between atoms: C_15  and  N_20
REMARK    5  A    between atoms: C_17  and  N_19
REMARK                            x       y       z     vdW  Elec       q    Type
REMARK                         _______ _______ _______ _____ _____    ______ ____
ROOT
ATOM      1  N   UNL     1       0.225  -4.189  -0.152  0.00  0.00    -0.193 N 
ATOM      2  C   UNL     1       0.767  -4.997   0.804  0.00  0.00    +0.187 A 
ATOM      3  N   UNL     1       0.326  -6.215   0.570  0.00  0.00    -0.108 NA
ATOM      4  N   UNL     1      -0.446  -6.226  -0.456  0.00  0.00    -0.022 NA
ATOM      5  N   UNL     1      -0.564  -5.040  -0.947  0.00  0.00    -0.039 NA
ENDROOT
BRANCH   1  10
ATOM      6  C   UNL     1       0.970   1.403  -0.776  0.00  0.00    +0.044 C 
ATOM      7  C   UNL     1       0.772  -0.082  -0.610  0.00  0.00    -0.050 A 
ATOM      8  C   UNL     1       1.855  -0.896  -0.331  0.00  0.00    +0.005 A 
ATOM      9  C   UNL     1       1.677  -2.257  -0.179  0.00  0.00    +0.028 A 
ATOM     10  C   UNL     1       0.409  -2.808  -0.306  0.00  0.00    +0.069 A 
ATOM     11  C   UNL     1      -0.676  -1.988  -0.586  0.00  0.00    +0.028 A 
ATOM     12  C   UNL     1      -0.493  -0.627  -0.732  0.00  0.00    +0.005 A 
ENDBRANCH   1  10
BRANCH   2  13
ATOM     13  C   UNL     1       1.676  -4.582   1.895  0.00  0.00    +0.025 A 
ATOM     14  C   UNL     1       2.640  -5.468   2.375  0.00  0.00    +0.034 A 
ATOM     15  C   UNL     1       3.491  -5.077   3.398  0.00  0.00    +0.027 A 
ATOM     16  C   UNL     1       3.384  -3.805   3.946  0.00  0.00    +0.045 A 
ATOM     17  C   UNL     1       2.424  -2.921   3.470  0.00  0.00    +0.027 A 
ATOM     18  C   UNL     1       1.574  -3.304   2.443  0.00  0.00    +0.034 A 
BRANCH  17  19
ATOM     19  N   UNL     1       2.319  -1.643   4.023  0.00  0.00    -0.358 N 
ATOM     20  H   UNL     1       2.916  -1.373   4.739  0.00  0.00    +0.142 HD
ATOM     21  H   UNL     1       1.649  -1.024   3.691  0.00  0.00    +0.142 HD
ENDBRANCH  17  19
BRANCH  15  22
ATOM     22  N   UNL     1       4.458  -5.964   3.879  0.00  0.00    -0.358 N 
ATOM     23  H   UNL     1       4.533  -6.853   3.498  0.00  0.00    +0.142 HD
ATOM     24  H   UNL     1       5.053  -5.691   4.595  0.00  0.00    +0.142 HD
ENDBRANCH  15  22
ENDBRANCH   2  13
TORSDOF 4
