REMARK  Name = ZINC09673434
REMARK  6 active torsions:
REMARK  status: ('A' for Active; 'I' for Inactive)
REMARK    1  A    between atoms: C_1  and  C_2
REMARK    2  A    between atoms: C_5  and  N_8
REMARK    3  A    between atoms: C_13  and  C_30
REMARK    4  A    between atoms: C_21  and  C_23
REMARK    5  A    between atoms: C_34  and  O_36
REMARK    6  A    between atoms: O_36  and  C_37
REMARK                            x       y       z     vdW  Elec       q    Type
REMARK                         _______ _______ _______ _____ _____    ______ ____
ROOT
ATOM      1  N   UNL     1       0.078  -4.323   0.189  0.00  0.00    -0.208 N 
ATOM      2  C   UNL     1       0.095  -5.146   1.243  0.00  0.00    +0.234 C 
ATOM      3  O   UNL     1       0.143  -4.797   2.403  0.00  0.00    -0.274 OA
ATOM      4  C   UNL     1       0.043  -6.579   0.764  0.00  0.00    +0.130 C 
ATOM      5  C   UNL     1       1.419  -7.241   1.013  0.00  0.00    +0.117 C 
ATOM      6  N   UNL     1       2.179  -6.911  -0.220  0.00  0.00    -0.229 NA
ATOM      7  N   UNL     1       1.272  -7.037  -1.250  0.00  0.00    -0.220 N 
ATOM      8  C   UNL     1      -0.016  -6.436  -0.783  0.00  0.00    +0.194 C 
ATOM      9  C   UNL     1       0.013  -4.940  -0.997  0.00  0.00    +0.249 C 
ATOM     10  O   UNL     1      -0.015  -4.385  -2.074  0.00  0.00    -0.273 OA
ATOM     11  C   UNL     1       1.497  -7.601  -2.453  0.00  0.00    +0.261 C 
ATOM     12  O   UNL     1       0.624  -7.598  -3.299  0.00  0.00    -0.269 OA
ATOM     13  H   UNL     1       2.958  -7.541  -0.344  0.00  0.00    +0.145 HD
ENDROOT
BRANCH   1  18
ATOM     14  C   UNL     1       0.246   1.327   0.704  0.00  0.00    +0.044 C 
ATOM     15  C   UNL     1       0.202  -0.173   0.568  0.00  0.00    -0.050 A 
ATOM     16  C   UNL     1      -0.888  -0.877   1.044  0.00  0.00    +0.005 A 
ATOM     17  C   UNL     1      -0.932  -2.252   0.920  0.00  0.00    +0.024 A 
ATOM     18  C   UNL     1       0.119  -2.927   0.316  0.00  0.00    +0.044 A 
ATOM     19  C   UNL     1       1.213  -2.217  -0.163  0.00  0.00    +0.024 A 
ATOM     20  C   UNL     1       1.248  -0.842  -0.040  0.00  0.00    +0.005 A 
ENDBRANCH   1  18
BRANCH  11  21
ATOM     21  C   UNL     1       2.805  -8.225  -2.744  0.00  0.00    +0.039 A 
ATOM     22  C   UNL     1       2.888  -9.298  -3.633  0.00  0.00    +0.013 A 
ATOM     23  C   UNL     1       4.112  -9.876  -3.901  0.00  0.00    +0.002 A 
ATOM     24  C   UNL     1       5.256  -9.394  -3.289  0.00  0.00    +0.015 A 
ATOM     25  C   UNL     1       5.181  -8.331  -2.406  0.00  0.00    +0.019 A 
ATOM     26  C   UNL     1       3.963  -7.740  -2.135  0.00  0.00    +0.028 A 
ATOM     27 BR   UNL     1       6.751  -7.682  -1.575  0.00  0.00    -0.050 Br
ENDBRANCH  11  21
BRANCH   5  28
ATOM     28  C   UNL     1       2.084  -6.647   2.228  0.00  0.00    -0.025 A 
ATOM     29  C   UNL     1       2.736  -5.431   2.134  0.00  0.00    +0.005 A 
ATOM     30  C   UNL     1       3.346  -4.883   3.246  0.00  0.00    +0.004 A 
ATOM     31  C   UNL     1       3.307  -5.549   4.456  0.00  0.00    +0.045 A 
ATOM     32  C   UNL     1       2.653  -6.769   4.553  0.00  0.00    +0.120 A 
ATOM     33  C   UNL     1       2.036  -7.314   3.437  0.00  0.00    +0.051 A 
BRANCH  32  34
ATOM     34  O   UNL     1       2.613  -7.426   5.742  0.00  0.00    -0.495 OA
ATOM     35  C   UNL     1       3.265  -6.803   6.851  0.00  0.00    +0.277 C 
ENDBRANCH  32  34
ENDBRANCH   5  28
TORSDOF 4
