REMARK  Name = ZINC03451442
REMARK  6 active torsions:
REMARK  status: ('A' for Active; 'I' for Inactive)
REMARK    1  A    between atoms: C_1  and  C_2
REMARK    2  A    between atoms: C_2  and  C_4
REMARK    3  A    between atoms: C_2  and  S_21
REMARK    4  A    between atoms: C_9  and  C_12
REMARK    5  A    between atoms: C_16  and  N_18
REMARK    6  A    between atoms: S_21  and  C_22
REMARK                            x       y       z     vdW  Elec       q    Type
REMARK                         _______ _______ _______ _____ _____    ______ ____
ROOT
ATOM      1  C   UNL     1       0.707  -0.490  -1.238  0.00  0.00    +0.232 C 
ATOM      2  O   UNL     1       0.066  -0.782  -2.225  0.00  0.00    -0.274 OA
ATOM      3  N   UNL     1       2.051  -0.601  -1.250  0.00  0.00    -0.264 N 
ATOM      4  C   UNL     1       2.701  -1.049  -2.393  0.00  0.00    +0.165 A 
ATOM      5  N   UNL     1       3.991  -1.230  -2.603  0.00  0.00    -0.225 NA
ATOM      6  C   UNL     1       4.444  -1.668  -3.768  0.00  0.00    +0.080 A 
ATOM      7  C   UNL     1       3.557  -1.940  -4.772  0.00  0.00    +0.076 A 
ATOM      8  S   UNL     1       2.012  -1.541  -3.967  0.00  0.00    -0.060 S 
ATOM      9  H   UNL     1       2.563  -0.367  -0.460  0.00  0.00    +0.157 HD
ENDROOT
BRANCH   6  10
ATOM     10  C   UNL     1       5.899  -1.863  -3.980  0.00  0.00    +0.003 A 
ATOM     11  C   UNL     1       6.371  -2.320  -5.210  0.00  0.00    +0.010 A 
ATOM     12  C   UNL     1       7.726  -2.499  -5.402  0.00  0.00    +0.003 A 
ATOM     13  C   UNL     1       8.614  -2.228  -4.377  0.00  0.00    +0.033 A 
ATOM     14  C   UNL     1       8.151  -1.775  -3.155  0.00  0.00    +0.127 A 
ATOM     15  C   UNL     1       6.799  -1.586  -2.954  0.00  0.00    +0.042 A 
BRANCH  14  16
ATOM     16  N   UNL     1       9.108  -1.487  -2.063  0.00  0.00    +0.056 N 
ATOM     17  O   UNL     1      10.294  -1.647  -2.240  0.00  0.00    -0.126 OA
ATOM     18  O   UNL     1       8.705  -1.092  -0.995  0.00  0.00    -0.126 OA
ENDBRANCH  14  16
ENDBRANCH   6  10
BRANCH   1  20
ATOM     19  C   UNL     1      -0.019   1.526   0.010  0.00  0.00    +0.029 C 
ATOM     20  C   UNL     1       0.002  -0.004   0.002  0.00  0.00    +0.136 C 
BRANCH  20  21
ATOM     21  S   UNL     1      -1.700  -0.632   0.015  0.00  0.00    -0.093 S 
BRANCH  21  22
ATOM     22  C   UNL     1      -2.335  -0.110   1.573  0.00  0.00    +0.109 A 
ATOM     23  C   UNL     1      -3.662  -0.423   1.961  0.00  0.00    +0.032 A 
ATOM     24  C   UNL     1      -4.524  -1.154   1.137  0.00  0.00    +0.012 A 
ATOM     25  C   UNL     1      -5.791  -1.425   1.564  0.00  0.00    +0.001 A 
ATOM     26  C   UNL     1      -6.236  -0.985   2.807  0.00  0.00    +0.002 A 
ATOM     27  C   UNL     1      -5.420  -0.271   3.633  0.00  0.00    +0.028 A 
ATOM     28  C   UNL     1      -4.112   0.026   3.226  0.00  0.00    +0.075 A 
ATOM     29  N   UNL     1      -3.268   0.724   4.000  0.00  0.00    -0.235 NA
ATOM     30  C   UNL     1      -2.050   0.985   3.590  0.00  0.00    +0.223 A 
ATOM     31  N   UNL     1      -1.582   0.582   2.419  0.00  0.00    -0.229 NA
ENDBRANCH  21  22
ENDBRANCH  20  21
ENDBRANCH   1  20
TORSDOF 5
