REMARK  Name = ZINC17195742
REMARK  8 active torsions:
REMARK  status: ('A' for Active; 'I' for Inactive)
REMARK    1  A    between atoms: C_1  and  C_2
REMARK    2  A    between atoms: C_12  and  C_14
REMARK    3  A    between atoms: C_14  and  N_15
REMARK    4  A    between atoms: N_15  and  C_16
REMARK    5  A    between atoms: C_20  and  O_22
REMARK    6  A    between atoms: O_22  and  C_23
REMARK    7  A    between atoms: C_24  and  C_26
REMARK    8  A    between atoms: C_30  and  N_32
REMARK                            x       y       z     vdW  Elec       q    Type
REMARK                         _______ _______ _______ _____ _____    ______ ____
ROOT
ATOM      1  N   UNL     1       1.199   6.009  -0.225  0.00  0.00    -0.263 N 
ATOM      2  C   UNL     1       0.170   5.149  -0.090  0.00  0.00    +0.251 C 
ATOM      3  O   UNL     1       0.360   3.953  -0.198  0.00  0.00    -0.270 OA
ENDROOT
BRANCH   1   4
ATOM      4  C   UNL     1       2.470   5.533  -0.559  0.00  0.00    +0.040 A 
ATOM      5  C   UNL     1       3.493   6.426  -0.855  0.00  0.00    +0.024 A 
ATOM      6  C   UNL     1       4.748   5.955  -1.185  0.00  0.00    +0.005 A 
ATOM      7  C   UNL     1       4.991   4.595  -1.222  0.00  0.00    +0.046 A 
ATOM      8  C   UNL     1       3.974   3.698  -0.928  0.00  0.00    +0.122 A 
ATOM      9  C   UNL     1       2.714   4.167  -0.591  0.00  0.00    +0.069 A 
BRANCH   8  10
ATOM     10  O   UNL     1       4.214   2.361  -0.967  0.00  0.00    -0.495 OA
ATOM     11  C   UNL     1       5.537   1.949  -1.317  0.00  0.00    +0.277 C 
ENDBRANCH   8  10
ENDBRANCH   1   4
BRANCH   2  12
ATOM     12  C   UNL     1      -1.189   5.659   0.188  0.00  0.00    +0.039 A 
ATOM     13  C   UNL     1      -1.703   6.724  -0.554  0.00  0.00    +0.013 A 
ATOM     14  C   UNL     1      -2.972   7.196  -0.289  0.00  0.00    +0.003 A 
ATOM     15  C   UNL     1      -3.735   6.616   0.710  0.00  0.00    +0.033 A 
ATOM     16  C   UNL     1      -3.229   5.564   1.452  0.00  0.00    +0.127 A 
ATOM     17  C   UNL     1      -1.963   5.078   1.193  0.00  0.00    +0.045 A 
BRANCH  16  18
ATOM     18  N   UNL     1      -4.049   4.953   2.522  0.00  0.00    +0.056 N 
ATOM     19  O   UNL     1      -5.169   5.377   2.748  0.00  0.00    -0.126 OA
ATOM     20  O   UNL     1      -3.606   4.027   3.176  0.00  0.00    -0.126 OA
ENDBRANCH  16  18
ENDBRANCH   2  12
BRANCH   1  21
ATOM     21  C   UNL     1       0.985   7.444  -0.021  0.00  0.00    +0.154 C 
BRANCH  21  33
ATOM     22  C   UNL     1       1.121   8.615   6.445  0.00  0.00    +0.046 C 
ATOM     23  C   UNL     1       2.176   8.779   5.382  0.00  0.00    -0.026 A 
ATOM     24  C   UNL     1       3.427   9.252   5.715  0.00  0.00    +0.005 A 
ATOM     25  C   UNL     1       4.407   9.408   4.745  0.00  0.00    +0.001 A 
ATOM     26  C   UNL     1       4.150   9.095   3.440  0.00  0.00    +0.010 A 
ATOM     27  C   UNL     1       2.887   8.614   3.079  0.00  0.00    -0.001 A 
ATOM     28  C   UNL     1       1.891   8.455   4.060  0.00  0.00    +0.052 A 
ATOM     29  N   UNL     1       0.647   7.980   3.698  0.00  0.00    -0.322 N 
ATOM     30  H   UNL     1      -0.038   7.871   4.375  0.00  0.00    +0.169 HD
ATOM     31  C   UNL     1       0.372   7.667   2.420  0.00  0.00    +0.254 A 
ATOM     32  O   UNL     1      -0.737   7.249   2.136  0.00  0.00    -0.268 OA
ATOM     33  C   UNL     1       1.336   7.808   1.398  0.00  0.00    +0.035 A 
ATOM     34  C   UNL     1       2.579   8.264   1.690  0.00  0.00    +0.020 A 
ENDBRANCH  21  33
ENDBRANCH   1  21
TORSDOF 6
