REMARK  Name = ZINC24095777
REMARK  10 active torsions:
REMARK  status: ('A' for Active; 'I' for Inactive)
REMARK    1  A    between atoms: C_1  and  C_2
REMARK    2  A    between atoms: C_2  and  O_3
REMARK    3  A    between atoms: O_3  and  C_4
REMARK    4  A    between atoms: C_7  and  O_10
REMARK    5  A    between atoms: O_10  and  C_11
REMARK    6  A    between atoms: C_11  and  C_12
REMARK    7  A    between atoms: C_12  and  C_14
REMARK    8  A    between atoms: C_12  and  O_30
REMARK    9  A    between atoms: C_14  and  S_15
REMARK   10  A    between atoms: S_15  and  C_16
REMARK                            x       y       z     vdW  Elec       q    Type
REMARK                         _______ _______ _______ _____ _____    ______ ____
ROOT
ATOM      1  S   UNL     1      -8.675   0.597   0.841  0.00  0.00    -0.083 S 
ENDROOT
BRANCH   1   2
ATOM      2  C   UNL     1      -6.933   0.603   0.576  0.00  0.00    +0.191 A 
ATOM      3  N   UNL     1      -6.481   0.443  -0.659  0.00  0.00    -0.207 NA
ATOM      4  C   UNL     1      -5.191   0.429  -0.982  0.00  0.00    +0.129 A 
ATOM      5  C   UNL     1      -4.276   0.600   0.098  0.00  0.00    +0.051 A 
ATOM      6  C   UNL     1      -2.824   0.624   0.021  0.00  0.00    -0.025 A 
ATOM      7  C   UNL     1      -2.158   0.800   1.185  0.00  0.00    -0.004 A 
ATOM      8  S   UNL     1      -3.417   0.944   2.428  0.00  0.00    -0.073 S 
ATOM      9  C   UNL     1      -4.833   0.766   1.391  0.00  0.00    +0.115 A 
ATOM     10  N   UNL     1      -6.130   0.768   1.629  0.00  0.00    -0.215 NA
ATOM     11  C   UNL     1      -0.670   0.861   1.382  0.00  0.00    +0.043 C 
ATOM     12  C   UNL     1       0.007   0.323   0.114  0.00  0.00    +0.005 C 
ATOM     13  C   UNL     1      -0.638   0.985  -1.107  0.00  0.00    +0.005 C 
ATOM     14  C   UNL     1      -2.062   0.460  -1.291  0.00  0.00    +0.037 C 
ATOM     15  N   UNL     1      -4.762   0.259  -2.285  0.00  0.00    -0.343 N 
ATOM     16  H   UNL     1      -3.686   0.253  -2.514  0.00  0.00    +0.144 HD
ATOM     17  H   UNL     1      -5.497   0.130  -3.094  0.00  0.00    +0.144 HD
ENDBRANCH   1   2
BRANCH   1  18
ATOM     18  C   UNL     1      -9.251   0.348  -0.857  0.00  0.00    +0.112 C 
BRANCH  18  19
ATOM     19  C   UNL     1     -10.780   0.308  -0.876  0.00  0.00    +0.162 C 
BRANCH  19  20
ATOM     20  O   UNL     1     -11.295   1.583  -0.486  0.00  0.00    -0.388 OA
ATOM     21  H   UNL     1     -11.052   1.994   0.505  0.00  0.00    +0.210 HD
ENDBRANCH  19  20
BRANCH  19  22
ATOM     22  C   UNL     1     -11.264  -0.026  -2.289  0.00  0.00    +0.261 C 
BRANCH  22  23
ATOM     23  O   UNL     1     -12.685  -0.178  -2.283  0.00  0.00    -0.489 OA
BRANCH  23  27
ATOM     24  C   UNL     1     -14.488  -1.090  -5.882  0.00  0.00    +0.121 A 
ATOM     25  C   UNL     1     -15.258  -0.946  -4.737  0.00  0.00    +0.049 A 
ATOM     26  C   UNL     1     -14.655  -0.640  -3.533  0.00  0.00    +0.049 A 
ATOM     27  C   UNL     1     -13.279  -0.478  -3.468  0.00  0.00    +0.121 A 
ATOM     28  C   UNL     1     -12.509  -0.619  -4.614  0.00  0.00    +0.049 A 
ATOM     29  C   UNL     1     -13.112  -0.928  -5.817  0.00  0.00    +0.049 A 
BRANCH  24  30
ATOM     30  O   UNL     1     -15.082  -1.391  -7.068  0.00  0.00    -0.492 OA
BRANCH  30  32
ATOM     31  C   UNL     1     -15.070  -1.863  -9.438  0.00  0.00    +0.048 C 
ATOM     32  C   UNL     1     -14.228  -1.525  -8.206  0.00  0.00    +0.225 C 
ENDBRANCH  30  32
ENDBRANCH  24  30
ENDBRANCH  23  27
ENDBRANCH  22  23
ENDBRANCH  19  22
ENDBRANCH  18  19
ENDBRANCH   1  18
TORSDOF 9
