REMARK  Name = ZINC39371396
REMARK  14 active torsions:
REMARK  status: ('A' for Active; 'I' for Inactive)
REMARK    1  A    between atoms: C_1  and  C_2
REMARK    2  A    between atoms: C_6  and  C_9
REMARK    3  A    between atoms: C_7  and  C_8
REMARK    4  A    between atoms: N_11  and  C_12
REMARK    5  A    between atoms: C_17  and  C_27
REMARK    6  A    between atoms: C_21  and  C_23
REMARK    7  A    between atoms: C_23  and  O_25
REMARK    8  A    between atoms: O_25  and  C_26
REMARK    9  A    between atoms: C_27  and  N_28
REMARK   10  A    between atoms: N_28  and  C_29
REMARK   11  A    between atoms: N_28  and  C_30
REMARK   12  A    between atoms: C_30  and  C_31
REMARK   13  A    between atoms: C_32  and  C_38
REMARK   14  A    between atoms: C_35  and  C_37
REMARK                            x       y       z     vdW  Elec       q    Type
REMARK                         _______ _______ _______ _____ _____    ______ ____
ROOT
ATOM      1  C   UNL     1      -0.147  -5.296   3.457  0.00  0.00    +0.130 C 
ATOM      2  C   UNL     1       1.155  -5.098   4.190  0.00  0.00    +0.006 A 
ATOM      3  C   UNL     1       1.490  -4.034   5.032  0.00  0.00    +0.010 A 
ATOM      4  C   UNL     1       2.742  -3.998   5.618  0.00  0.00    +0.022 A 
ATOM      5  C   UNL     1       3.649  -5.009   5.366  0.00  0.00    +0.026 A 
ATOM      6  N   UNL     1       3.316  -6.011   4.574  0.00  0.00    -0.247 NA
ATOM      7  C   UNL     1       2.127  -6.081   4.007  0.00  0.00    +0.103 A 
ATOM      8  S   UNL     1       1.401  -7.313   2.946  0.00  0.00    -0.089 S 
ATOM      9  C   UNL     1      -0.352  -6.773   3.048  0.00  0.00    +0.186 C 
ENDROOT
BRANCH   1  12
ATOM     10  C   UNL     1      -0.719  -3.242   2.277  0.00  0.00    +0.245 C 
ATOM     11  O   UNL     1      -1.232  -2.833   3.300  0.00  0.00    -0.270 OA
ATOM     12  N   UNL     1      -0.148  -4.463   2.252  0.00  0.00    -0.303 N 
ATOM     13  H   UNL     1       0.261  -4.790   1.435  0.00  0.00    +0.150 HD
BRANCH  10  19
ATOM     14  C   UNL     1      -1.703   1.107   0.037  0.00  0.00    +0.044 C 
ATOM     15  C   UNL     1      -1.193  -0.310  -0.021  0.00  0.00    -0.047 A 
ATOM     16  C   UNL     1      -0.723  -0.826  -1.216  0.00  0.00    +0.003 A 
ATOM     17  C   UNL     1      -0.252  -2.125  -1.278  0.00  0.00    +0.001 A 
ATOM     18  C   UNL     1      -0.248  -2.915  -0.147  0.00  0.00    +0.013 A 
ATOM     19  C   UNL     1      -0.720  -2.401   1.062  0.00  0.00    +0.040 A 
ATOM     20  C   UNL     1      -1.189  -1.087   1.119  0.00  0.00    -0.035 A 
ATOM     21  C   UNL     1      -1.694  -0.521   2.421  0.00  0.00    +0.045 C 
ENDBRANCH  10  19
ENDBRANCH   1  12
BRANCH   9  22
ATOM     22  C   UNL     1      -1.038  -6.883   1.711  0.00  0.00    +0.322 C 
ATOM     23  O   UNL     1      -2.242  -6.820   1.642  0.00  0.00    -0.250 OA
BRANCH  22  24
ATOM     24  O   UNL     1      -0.310  -7.050   0.595  0.00  0.00    -0.467 OA
ATOM     25  C   UNL     1      -1.025  -7.147  -0.638  0.00  0.00    +0.280 C 
ENDBRANCH  22  24
ENDBRANCH   9  22
BRANCH   5  26
ATOM     26  C   UNL     1       5.018  -4.967   5.995  0.00  0.00    -0.022 C 
BRANCH  26  27
ATOM     27  N   UNL     1       5.012  -5.758   7.233  0.00  0.00    +0.384 N 
ATOM     28  C   UNL     1       4.116  -5.129   8.212  0.00  0.00    -0.095 C 
ATOM     29  H   UNL     1       4.689  -6.693   7.033  0.00  0.00    -0.081 HD
BRANCH  27  30
ATOM     30  C   UNL     1       6.373  -5.817   7.782  0.00  0.00    -0.043 C 
BRANCH  30  31
ATOM     31  C   UNL     1       6.396  -6.744   8.970  0.00  0.00    -0.038 C 
ATOM     32  C   UNL     1       6.327  -6.424  10.264  0.00  0.00    +0.060 C 
ATOM     33  N   UNL     1       6.378  -7.533  11.036  0.00  0.00    -0.159 NA
ATOM     34  N   UNL     1       6.474  -8.590  10.408  0.00  0.00    -0.180 NA
ATOM     35  C   UNL     1       6.496  -8.259   8.972  0.00  0.00    +0.151 C 
ATOM     36  C   UNL     1       7.809  -8.716   8.334  0.00  0.00    +0.039 C 
ATOM     37  C   UNL     1       6.210  -5.018  10.793  0.00  0.00    +0.067 C 
ENDBRANCH  30  31
ENDBRANCH  27  30
ENDBRANCH  26  27
ENDBRANCH   5  26
TORSDOF 8
