REMARK  Name = ZINC63384972
REMARK  2 active torsions:
REMARK  status: ('A' for Active; 'I' for Inactive)
REMARK    1  A    between atoms: C_1  and  C_2
REMARK    2  A    between atoms: C_2  and  C_3
REMARK                            x       y       z     vdW  Elec       q    Type
REMARK                         _______ _______ _______ _____ _____    ______ ____
ROOT
ATOM      1  C   UNL     1       0.707  -0.490  -1.238  0.00  0.00    +0.216 C 
ATOM      2  O   UNL     1       1.175   0.309  -2.021  0.00  0.00    -0.276 OA
ATOM      3  N   UNL     1       0.847  -1.812  -1.460  0.00  0.00    -0.281 N 
ATOM      4  C   UNL     1       0.401  -2.769  -0.440  0.00  0.00    +0.113 C 
ATOM      5  C   UNL     1      -0.623  -3.738  -1.059  0.00  0.00    +0.052 C 
ATOM      6  C   UNL     1      -0.054  -4.186  -2.383  0.00  0.00    -0.034 C 
ATOM      7  C   UNL     1       0.137  -5.396  -2.894  0.00  0.00    -0.001 A 
ATOM      8  C   UNL     1      -0.242  -6.734  -2.412  0.00  0.00    +0.010 A 
ATOM      9  C   UNL     1       0.137  -7.781  -3.191  0.00  0.00    +0.001 A 
ATOM     10  C   UNL     1       0.848  -7.633  -4.386  0.00  0.00    +0.002 A 
ATOM     11  C   UNL     1       1.229  -6.440  -4.909  0.00  0.00    +0.026 A 
ATOM     12  C   UNL     1       0.877  -5.264  -4.185  0.00  0.00    +0.043 A 
ATOM     13  N   UNL     1       1.086  -4.011  -4.464  0.00  0.00    -0.375 N 
ATOM     14  C   UNL     1       0.452  -3.196  -3.427  0.00  0.00    +0.143 C 
ATOM     15  C   UNL     1       1.435  -2.277  -2.719  0.00  0.00    +0.165 C 
ATOM     16  C   UNL     1       1.823  -1.125  -3.589  0.00  0.00    +0.009 A 
ATOM     17  C   UNL     1       1.076  -0.116  -4.157  0.00  0.00    +0.023 A 
ATOM     18  C   UNL     1       1.760   0.819  -4.928  0.00  0.00    +0.018 A 
ATOM     19  C   UNL     1       3.126   0.735  -5.114  0.00  0.00    +0.017 A 
ATOM     20  C   UNL     1       3.883  -0.278  -4.547  0.00  0.00    +0.025 A 
ATOM     21  C   UNL     1       3.208  -1.222  -3.771  0.00  0.00    +0.039 A 
ATOM     22  N   UNL     1       3.706  -2.323  -3.096  0.00  0.00    -0.283 N 
ATOM     23  C   UNL     1       2.734  -3.003  -2.451  0.00  0.00    +0.248 C 
ATOM     24  O   UNL     1       2.876  -4.006  -1.784  0.00  0.00    -0.273 OA
ATOM     25 BR   UNL     1       0.800   2.232  -5.739  0.00  0.00    -0.050 Br
ATOM     26  H   UNL     1       4.642  -2.577  -3.089  0.00  0.00    +0.155 HD
ATOM     27  H   UNL     1       1.579  -3.674  -5.228  0.00  0.00    +0.160 HD
ENDROOT
BRANCH   1  29
ATOM     28  C   UNL     1      -0.043   1.526  -0.004  0.00  0.00    +0.013 C 
ATOM     29  C   UNL     1      -0.029  -0.004  -0.016  0.00  0.00    +0.092 C 
ENDBRANCH   1  29
TORSDOF 1
