REMARK  Name = ZINC19211943
REMARK  9 active torsions:
REMARK  status: ('A' for Active; 'I' for Inactive)
REMARK    1  A    between atoms: C_1  and  C_2
REMARK    2  A    between atoms: C_5  and  C_8
REMARK    3  A    between atoms: N_11  and  C_20
REMARK    4  A    between atoms: C_13  and  C_15
REMARK    5  A    between atoms: C_20  and  C_21
REMARK    6  A    between atoms: N_23  and  C_24
REMARK    7  A    between atoms: N_23  and  C_25
REMARK    8  A    between atoms: C_25  and  C_26
REMARK    9  A    between atoms: C_27  and  C_31
REMARK                            x       y       z     vdW  Elec       q    Type
REMARK                         _______ _______ _______ _____ _____    ______ ____
ROOT
ATOM      1  C   UNL     1       4.255   1.286   1.580  0.00  0.00    +0.010 C 
ATOM      2  C   UNL     1       5.637   0.653   1.335  0.00  0.00    -0.069 C 
ATOM      3  N   UNL     1       5.811   0.544  -0.129  0.00  0.00    +0.386 N 
ATOM      4  C   UNL     1       4.440   0.484  -0.697  0.00  0.00    -0.068 C 
ATOM      5  C   UNL     1       3.653   1.497   0.172  0.00  0.00    +0.029 C 
ATOM      6  H   UNL     1       6.384   1.392  -0.531  0.00  0.00    -0.081 HD
ENDROOT
BRANCH   1  11
ATOM      7  C   UNL     1       4.826   6.355   4.296  0.00  0.00    +0.044 C 
ATOM      8  C   UNL     1       4.677   5.033   3.588  0.00  0.00    -0.050 A 
ATOM      9  C   UNL     1       3.882   4.042   4.133  0.00  0.00    +0.003 A 
ATOM     10  C   UNL     1       3.745   2.830   3.483  0.00  0.00    +0.004 A 
ATOM     11  C   UNL     1       4.404   2.608   2.288  0.00  0.00    -0.045 A 
ATOM     12  C   UNL     1       5.204   3.597   1.746  0.00  0.00    +0.004 A 
ATOM     13  C   UNL     1       5.336   4.811   2.393  0.00  0.00    +0.003 A 
ENDBRANCH   1  11
BRANCH   5  14
ATOM     14  C   UNL     1       2.181   1.172   0.168  0.00  0.00    +0.074 A 
ATOM     15  C   UNL     1       1.704  -0.101   0.099  0.00  0.00    +0.092 A 
ATOM     16  S   UNL     1      -0.005   0.183   0.133  0.00  0.00    +0.028 S 
ATOM     17  N   UNL     1       0.003   1.759   0.225  0.00  0.00    -0.110 NA
ATOM     18  N   UNL     1       1.244   2.094   0.231  0.00  0.00    -0.146 NA
ENDBRANCH   5  14
BRANCH   3  19
ATOM     19  C   UNL     1       6.579  -0.659  -0.480  0.00  0.00    +0.019 C 
BRANCH  19  20
ATOM     20  C   UNL     1       7.932  -0.602   0.181  0.00  0.00    +0.199 C 
ATOM     21  O   UNL     1       8.205   0.317   0.925  0.00  0.00    -0.278 OA
ATOM     22  N   UNL     1       8.839  -1.570  -0.055  0.00  0.00    -0.300 N 
ATOM     23  C   UNL     1       8.509  -2.679  -0.954  0.00  0.00    +0.132 C 
BRANCH  22  24
ATOM     24  C   UNL     1      10.154  -1.515   0.587  0.00  0.00    +0.168 C 
BRANCH  24  25
ATOM     25  C   UNL     1      10.130  -2.332   1.853  0.00  0.00    +0.124 A 
ATOM     26  C   UNL     1      10.578  -3.662   1.972  0.00  0.00    +0.106 A 
ATOM     27  N   UNL     1      10.415  -4.064   3.198  0.00  0.00    -0.054 NA
ATOM     28  O   UNL     1       9.847  -2.987   3.926  0.00  0.00    -0.242 OA
ATOM     29  N   UNL     1       9.698  -1.917   3.007  0.00  0.00    -0.052 NA
ATOM     30  C   UNL     1      11.155  -4.491   0.854  0.00  0.00    +0.071 C 
ENDBRANCH  24  25
ENDBRANCH  22  24
ENDBRANCH  19  20
ENDBRANCH   3  19
TORSDOF 6
