REMARK  Name = ZINC09283384
REMARK  14 active torsions:
REMARK  status: ('A' for Active; 'I' for Inactive)
REMARK    1  A    between atoms: C_1  and  C_2
REMARK    2  A    between atoms: C_4  and  C_35
REMARK    3  A    between atoms: C_5  and  N_9
REMARK    4  A    between atoms: C_6  and  C_8
REMARK    5  A    between atoms: C_10  and  C_12
REMARK    6  A    between atoms: C_12  and  N_13
REMARK    7  A    between atoms: C_14  and  C_16
REMARK    8  A    between atoms: C_16  and  O_17
REMARK    9  A    between atoms: O_17  and  C_18
REMARK   10  A    between atoms: C_18  and  C_20
REMARK   11  A    between atoms: C_21  and  C_22
REMARK   12  A    between atoms: C_23  and  C_34
REMARK   13  A    between atoms: N_25  and  C_28
REMARK   14  A    between atoms: C_26  and  C_27
REMARK                            x       y       z     vdW  Elec       q    Type
REMARK                         _______ _______ _______ _____ _____    ______ ____
ROOT
ATOM      1  C   UNL     1       0.545   2.825  -2.889  0.00  0.00    +0.328 C 
ENDROOT
BRANCH   1   3
ATOM      2  N   UNL     1       1.799   4.823  -2.144  0.00  0.00    -0.304 N 
ATOM      3  C   UNL     1       0.644   4.129  -2.140  0.00  0.00    +0.251 C 
ATOM      4  O   UNL     1      -0.317   4.554  -1.534  0.00  0.00    -0.272 OA
ATOM      5  H   UNL     1       2.567   4.483  -2.629  0.00  0.00    +0.149 HD
BRANCH   2   6
ATOM      6  C   UNL     1       1.895   6.091  -1.417  0.00  0.00    +0.200 C 
BRANCH   6   8
ATOM      7  N   UNL     1       3.601   7.831  -0.993  0.00  0.00    -0.284 N 
ATOM      8  C   UNL     1       3.280   6.661  -1.579  0.00  0.00    +0.234 C 
ATOM      9  O   UNL     1       4.107   6.066  -2.239  0.00  0.00    -0.274 OA
ATOM     10  H   UNL     1       2.968   8.266  -0.400  0.00  0.00    +0.155 HD
BRANCH   7  15
ATOM     11  C   UNL     1       8.653  10.213  -1.987  0.00  0.00    +0.044 C 
ATOM     12  C   UNL     1       7.311   9.580  -1.723  0.00  0.00    -0.050 A 
ATOM     13  C   UNL     1       6.152  10.289  -1.979  0.00  0.00    +0.008 A 
ATOM     14  C   UNL     1       4.920   9.712  -1.738  0.00  0.00    -0.029 A 
ATOM     15  C   UNL     1       4.847   8.418  -1.238  0.00  0.00    +0.039 A 
ATOM     16  C   UNL     1       6.013   7.710  -0.979  0.00  0.00    -0.029 A 
ATOM     17  C   UNL     1       7.242   8.291  -1.226  0.00  0.00    +0.008 A 
ATOM     18  C   UNL     1       5.939   6.308  -0.431  0.00  0.00    +0.045 C 
ATOM     19  C   UNL     1       3.657  10.485  -2.016  0.00  0.00    +0.045 C 
ENDBRANCH   7  15
ENDBRANCH   6   8
ENDBRANCH   2   6
ENDBRANCH   1   3
BRANCH   1  20
ATOM     20  O   UNL     1      -0.769   2.285  -2.734  0.00  0.00    -0.452 OA
BRANCH  20  21
ATOM     21  C   UNL     1      -1.024   1.110  -3.348  0.00  0.00    +0.332 C 
ATOM     22  O   UNL     1      -0.154   0.560  -3.996  0.00  0.00    -0.246 OA
BRANCH  21  23
ATOM     23  C   UNL     1      -2.305   0.518  -3.237  0.00  0.00    +0.092 C 
ATOM     24  C   UNL     1      -2.561  -0.659  -3.851  0.00  0.00    +0.018 C 
BRANCH  24  25
ATOM     25  C   UNL     1      -3.890  -1.273  -3.736  0.00  0.00    +0.019 A 
ATOM     26  C   UNL     1      -4.610  -1.501  -2.539  0.00  0.00    +0.068 A 
ATOM     27  N   UNL     1      -5.747  -2.061  -2.850  0.00  0.00    -0.171 NA
ATOM     28  N   UNL     1      -5.807  -2.227  -4.239  0.00  0.00    -0.236 N 
ATOM     29  C   UNL     1      -4.671  -1.744  -4.776  0.00  0.00    +0.049 A 
ATOM     30  C   UNL     1      -4.316  -1.720  -6.241  0.00  0.00    +0.066 C 
ATOM     31  C   UNL     1      -4.147  -1.154  -1.148  0.00  0.00    +0.068 C 
BRANCH  28  32
ATOM     32  C   UNL     1      -6.871  -2.799  -4.949  0.00  0.00    +0.066 A 
ATOM     33  C   UNL     1      -8.181  -2.489  -4.609  0.00  0.00    +0.028 A 
ATOM     34  C   UNL     1      -9.227  -3.050  -5.316  0.00  0.00    +0.002 A 
ATOM     35  C   UNL     1      -8.971  -3.928  -6.353  0.00  0.00    +0.000 A 
ATOM     36  C   UNL     1      -7.668  -4.242  -6.690  0.00  0.00    +0.002 A 
ATOM     37  C   UNL     1      -6.617  -3.680  -5.991  0.00  0.00    +0.028 A 
ENDBRANCH  28  32
ENDBRANCH  24  25
ENDBRANCH  21  23
ENDBRANCH  20  21
ENDBRANCH   1  20
TORSDOF 9
