REMARK  Name = ZINC34664850
REMARK  8 active torsions:
REMARK  status: ('A' for Active; 'I' for Inactive)
REMARK    1  A    between atoms: C_1  and  C_2
REMARK    2  A    between atoms: C_2  and  N_3
REMARK    3  A    between atoms: N_3  and  C_4
REMARK    4  A    between atoms: C_4  and  C_5
REMARK    5  A    between atoms: C_6  and  C_20
REMARK    6  A    between atoms: N_8  and  C_19
REMARK    7  A    between atoms: C_9  and  O_10
REMARK    8  A    between atoms: O_10  and  C_11
REMARK                            x       y       z     vdW  Elec       q    Type
REMARK                         _______ _______ _______ _____ _____    ______ ____
ROOT
ATOM      1  C   UNL     1      -2.728  -2.651   0.012  0.00  0.00    +0.020 A 
ATOM      2  C   UNL     1      -3.510  -2.877   1.148  0.00  0.00    +0.065 A 
ATOM      3  N   UNL     1      -4.735  -3.126   0.760  0.00  0.00    -0.173 NA
ATOM      4  N   UNL     1      -4.775  -3.068  -0.638  0.00  0.00    -0.236 N 
ATOM      5  C   UNL     1      -3.532  -2.770  -1.078  0.00  0.00    +0.220 A 
ATOM      6  C   UNL     1      -5.956  -3.286  -1.477  0.00  0.00    +0.176 C 
ATOM      7  C   UNL     1      -3.027  -2.839   2.575  0.00  0.00    +0.068 C 
ENDROOT
BRANCH   1   8
ATOM      8  C   UNL     1      -1.256  -2.328  -0.002  0.00  0.00    -0.040 C 
BRANCH   8   9
ATOM      9  N   UNL     1      -1.073  -0.872   0.065  0.00  0.00    +0.382 N 
ATOM     10  H   UNL     1      -1.487  -0.520   0.915  0.00  0.00    -0.085 HD
ATOM     11  H   UNL     1      -1.520  -0.441  -0.730  0.00  0.00    -0.085 HD
BRANCH   9  13
ATOM     12  C   UNL     1       0.551   0.959   0.121  0.00  0.00    -0.017 C 
ATOM     13  C   UNL     1       0.361  -0.557   0.052  0.00  0.00    -0.086 C 
ENDBRANCH   9  13
ENDBRANCH   8   9
ENDBRANCH   1   8
BRANCH   5  14
ATOM     14  O   UNL     1      -3.154  -2.619  -2.373  0.00  0.00    -0.437 OA
BRANCH  14  15
ATOM     15  C   UNL     1      -2.749  -3.724  -3.053  0.00  0.00    +0.149 A 
ATOM     16  C   UNL     1      -2.833  -4.975  -2.458  0.00  0.00    +0.049 A 
ATOM     17  C   UNL     1      -2.421  -6.097  -3.151  0.00  0.00    +0.019 A 
ATOM     18  C   UNL     1      -1.926  -5.975  -4.437  0.00  0.00    +0.019 A 
ATOM     19  C   UNL     1      -1.841  -4.729  -5.032  0.00  0.00    +0.039 A 
ATOM     20  C   UNL     1      -2.257  -3.604  -4.345  0.00  0.00    +0.084 A 
ATOM     21 CL   UNL     1      -2.157  -2.042  -5.095  0.00  0.00    -0.080 Cl
ATOM     22 BR   UNL     1      -1.363  -7.513  -5.381  0.00  0.00    -0.050 Br
ENDBRANCH  14  15
ENDBRANCH   5  14
TORSDOF 5
