REMARK  Name = ZINC64380687
REMARK  7 active torsions:
REMARK  status: ('A' for Active; 'I' for Inactive)
REMARK    1  A    between atoms: C_1  and  C_2
REMARK    2  A    between atoms: C_2  and  O_3
REMARK    3  A    between atoms: O_3  and  C_4
REMARK    4  A    between atoms: C_7  and  C_12
REMARK    5  A    between atoms: C_9  and  O_10
REMARK    6  A    between atoms: O_10  and  C_11
REMARK    7  A    between atoms: N_13  and  N_14
REMARK                            x       y       z     vdW  Elec       q    Type
REMARK                         _______ _______ _______ _____ _____    ______ ____
ROOT
ATOM      1  N   UNL     1       0.711  -8.203  -1.113  0.00  0.00    -0.183 N 
ATOM      2  C   UNL     1       1.396  -8.704  -2.293  0.00  0.00    +0.230 C 
ATOM      3  C   UNL     1       1.446 -10.195  -2.326  0.00  0.00    +0.236 C 
ATOM      4  O   UNL     1       2.001 -10.720  -3.269  0.00  0.00    -0.274 OA
ATOM      5  N   UNL     1       0.924 -10.995  -1.388  0.00  0.00    -0.286 N 
ATOM      6  C   UNL     1       1.082 -12.457  -1.559  0.00  0.00    +0.137 C 
ATOM      7  C   UNL     1      -0.319 -13.069  -1.649  0.00  0.00    +0.124 C 
ATOM      8  C   UNL     1      -1.114 -12.517  -0.473  0.00  0.00    -0.035 C 
ATOM      9  C   UNL     1      -1.568 -13.568   0.200  0.00  0.00    -0.001 A 
ATOM     10  C   UNL     1      -2.446 -13.673   1.376  0.00  0.00    +0.010 A 
ATOM     11  C   UNL     1      -2.704 -14.931   1.820  0.00  0.00    +0.001 A 
ATOM     12  C   UNL     1      -2.183 -16.081   1.220  0.00  0.00    +0.002 A 
ATOM     13  C   UNL     1      -1.371 -16.078   0.133  0.00  0.00    +0.026 A 
ATOM     14  C   UNL     1      -1.031 -14.813  -0.428  0.00  0.00    +0.043 A 
ATOM     15  N   UNL     1      -0.292 -14.524  -1.483  0.00  0.00    -0.376 N 
ATOM     16  C   UNL     1      -1.219 -11.038  -0.193  0.00  0.00    +0.065 C 
ATOM     17  C   UNL     1       0.217 -10.482  -0.220  0.00  0.00    +0.168 C 
ATOM     18  C   UNL     1       0.184  -8.990  -0.177  0.00  0.00    +0.256 C 
ATOM     19  O   UNL     1      -0.361  -8.461   0.769  0.00  0.00    -0.272 OA
ATOM     20  H   UNL     1       0.189 -15.150  -2.047  0.00  0.00    +0.160 HD
ENDROOT
BRANCH   1  22
ATOM     21  C   UNL     1       1.104  -6.016  -1.840  0.00  0.00    +0.138 C 
ATOM     22  N   UNL     1       0.604  -6.816  -0.949  0.00  0.00    -0.184 NA
BRANCH  21  26
ATOM     23  C   UNL     1       0.777  -1.810  -1.336  0.00  0.00    +0.162 A 
ATOM     24  C   UNL     1       0.242  -2.667  -0.385  0.00  0.00    +0.050 A 
ATOM     25  C   UNL     1       0.346  -4.032  -0.545  0.00  0.00    +0.013 A 
ATOM     26  C   UNL     1       0.991  -4.556  -1.667  0.00  0.00    -0.002 A 
ATOM     27  C   UNL     1       1.530  -3.694  -2.625  0.00  0.00    +0.059 A 
ATOM     28  C   UNL     1       1.417  -2.326  -2.461  0.00  0.00    +0.162 A 
BRANCH  28  29
ATOM     29  O   UNL     1       1.936  -1.484  -3.394  0.00  0.00    -0.491 OA
ATOM     30  C   UNL     1       2.579  -2.082  -4.521  0.00  0.00    +0.277 C 
ENDBRANCH  28  29
BRANCH  23  31
ATOM     31  O   UNL     1       0.671  -0.465  -1.174  0.00  0.00    -0.489 OA
BRANCH  31  33
ATOM     32  C   UNL     1      -0.019   1.526   0.010  0.00  0.00    +0.048 C 
ATOM     33  C   UNL     1       0.002  -0.004   0.002  0.00  0.00    +0.226 C 
ENDBRANCH  31  33
ENDBRANCH  23  31
ENDBRANCH  21  26
ENDBRANCH   1  22
TORSDOF 5
