REMARK  Name = ZINC36545071
REMARK  11 active torsions:
REMARK  status: ('A' for Active; 'I' for Inactive)
REMARK    1  A    between atoms: C_1  and  C_2
REMARK    2  A    between atoms: C_3  and  C_4
REMARK    3  A    between atoms: C_4  and  C_6
REMARK    4  A    between atoms: C_4  and  N_20
REMARK    5  A    between atoms: N_8  and  C_9
REMARK    6  A    between atoms: C_9  and  S_10
REMARK    7  A    between atoms: S_10  and  C_13
REMARK    8  A    between atoms: C_16  and  C_19
REMARK    9  A    between atoms: N_20  and  C_21
REMARK   10  A    between atoms: C_28  and  C_30
REMARK   11  A    between atoms: C_33  and  O_36
REMARK                            x       y       z     vdW  Elec       q    Type
REMARK                         _______ _______ _______ _____ _____    ______ ____
ROOT
ATOM      1  C   UNL     1       0.476  -2.069  -0.933  0.00  0.00    +0.190 C 
ENDROOT
BRANCH   1   2
ATOM      2  C   UNL     1       1.914  -2.219  -1.357  0.00  0.00    +0.239 C 
ATOM      3  O   UNL     1       2.666  -2.920  -0.714  0.00  0.00    -0.273 OA
ATOM      4  N   UNL     1       2.365  -1.573  -2.451  0.00  0.00    -0.294 N 
ATOM      5  H   UNL     1       1.764  -1.012  -2.966  0.00  0.00    +0.150 HD
BRANCH   4   6
ATOM      6  C   UNL     1       3.763  -1.718  -2.863  0.00  0.00    +0.278 C 
BRANCH   6   7
ATOM      7  S   UNL     1       3.892  -3.026  -4.113  0.00  0.00    +0.013 S 
ATOM      8  O   UNL     1       5.234  -3.137  -4.570  0.00  0.00    -0.168 OA
ATOM      9  O   UNL     1       3.173  -4.178  -3.693  0.00  0.00    -0.168 OA
BRANCH   7  10
ATOM     10  C   UNL     1       2.994  -2.416  -5.501  0.00  0.00    +0.090 A 
ATOM     11  C   UNL     1       1.641  -2.677  -5.618  0.00  0.00    +0.027 A 
ATOM     12  C   UNL     1       0.937  -2.198  -6.707  0.00  0.00    +0.005 A 
ATOM     13  C   UNL     1       1.585  -1.459  -7.678  0.00  0.00    -0.050 A 
ATOM     14  C   UNL     1       2.937  -1.198  -7.561  0.00  0.00    +0.005 A 
ATOM     15  C   UNL     1       3.641  -1.673  -6.470  0.00  0.00    +0.027 A 
ATOM     16  C   UNL     1       0.817  -0.938  -8.866  0.00  0.00    +0.044 C 
ENDBRANCH   7  10
ENDBRANCH   6   7
ENDBRANCH   4   6
ENDBRANCH   1   2
BRANCH   1  19
ATOM     17  C   UNL     1      -0.507   1.212   0.798  0.00  0.00    +0.035 C 
ATOM     18  C   UNL     1      -0.343  -0.251   0.476  0.00  0.00    -0.032 C 
ATOM     19  C   UNL     1       0.178  -0.615  -0.669  0.00  0.00    +0.000 C 
ENDBRANCH   1  19
BRANCH   1  20
ATOM     20  N   UNL     1       0.243  -2.845   0.287  0.00  0.00    -0.251 N 
ATOM     21  C   UNL     1       1.020  -2.646   1.371  0.00  0.00    +0.252 C 
ATOM     22  O   UNL     1       1.846  -1.753   1.371  0.00  0.00    -0.270 OA
BRANCH  20  23
ATOM     23  C   UNL     1      -0.785  -3.792   0.329  0.00  0.00    +0.056 A 
ATOM     24  C   UNL     1      -1.969  -3.506   0.996  0.00  0.00    +0.025 A 
ATOM     25  C   UNL     1      -2.983  -4.443   1.035  0.00  0.00    +0.002 A 
ATOM     26  C   UNL     1      -2.820  -5.667   0.411  0.00  0.00    +0.002 A 
ATOM     27  C   UNL     1      -1.643  -5.956  -0.255  0.00  0.00    +0.022 A 
ATOM     28  C   UNL     1      -0.627  -5.020  -0.303  0.00  0.00    +0.062 A 
ATOM     29 CL   UNL     1       0.848  -5.381  -1.145  0.00  0.00    -0.082 Cl
ENDBRANCH  20  23
BRANCH  21  30
ATOM     30  C   UNL     1       0.868  -3.511   2.556  0.00  0.00    +0.037 A 
ATOM     31  C   UNL     1       1.058  -2.984   3.837  0.00  0.00    +0.016 A 
ATOM     32  C   UNL     1       0.915  -3.795   4.941  0.00  0.00    +0.046 A 
ATOM     33  C   UNL     1       0.582  -5.135   4.783  0.00  0.00    +0.117 A 
ATOM     34  C   UNL     1       0.393  -5.663   3.511  0.00  0.00    +0.046 A 
ATOM     35  C   UNL     1       0.529  -4.858   2.402  0.00  0.00    +0.016 A 
BRANCH  33  36
ATOM     36  O   UNL     1       0.443  -5.931   5.873  0.00  0.00    -0.507 OA
ATOM     37  H   UNL     1      -0.456  -5.954   6.231  0.00  0.00    +0.292 HD
ENDBRANCH  33  36
ENDBRANCH  21  30
ENDBRANCH   1  20
TORSDOF 9
