REMARK  Name = ZINC39325254
REMARK  6 active torsions:
REMARK  status: ('A' for Active; 'I' for Inactive)
REMARK    1  A    between atoms: C_1  and  O_2
REMARK    2  A    between atoms: O_2  and  C_3
REMARK    3  A    between atoms: C_3  and  C_5
REMARK    4  A    between atoms: C_8  and  C_11
REMARK    5  A    between atoms: C_26  and  N_30
REMARK    6  A    between atoms: C_27  and  C_28
REMARK                            x       y       z     vdW  Elec       q    Type
REMARK                         _______ _______ _______ _____ _____    ______ ____
ROOT
ATOM      1  C   UNL     1       0.827  -6.343  -1.340  0.00  0.00    +0.084 C 
ATOM      2  C   UNL     1       0.115  -6.817  -2.612  0.00  0.00    +0.154 C 
ATOM      3  C   UNL     1       0.562  -8.255  -2.812  0.00  0.00    +0.129 C 
ATOM      4  C   UNL     1      -0.410  -9.244  -2.835  0.00  0.00    +0.035 A 
ATOM      5  C   UNL     1      -0.073 -10.598  -3.036  0.00  0.00    +0.013 A 
ATOM      6  C   UNL     1      -1.056 -11.539  -3.058  0.00  0.00    +0.001 A 
ATOM      7  C   UNL     1      -2.393 -11.193  -2.886  0.00  0.00    +0.002 A 
ATOM      8  C   UNL     1      -2.780  -9.902  -2.686  0.00  0.00    +0.024 A 
ATOM      9  C   UNL     1      -1.820  -8.878  -2.649  0.00  0.00    +0.044 A 
ATOM     10  N   UNL     1      -2.199  -7.611  -2.443  0.00  0.00    -0.284 N 
ATOM     11  C   UNL     1      -1.365  -6.571  -2.415  0.00  0.00    +0.229 C 
ATOM     12  O   UNL     1      -1.775  -5.441  -2.227  0.00  0.00    -0.275 OA
ATOM     13  O   UNL     1       1.867  -8.505  -2.942  0.00  0.00    -0.444 OA
ATOM     14  C   UNL     1       2.700  -7.812  -2.130  0.00  0.00    +0.198 C 
ATOM     15  C   UNL     1       2.263  -6.787  -1.368  0.00  0.00    +0.095 C 
ATOM     16  H   UNL     1      -3.144  -7.434  -2.313  0.00  0.00    +0.155 HD
ENDROOT
BRANCH   1  20
ATOM     17  C   UNL     1       0.658  -2.076  -1.122  0.00  0.00    +0.059 A 
ATOM     18  C   UNL     1       0.089  -2.853  -0.111  0.00  0.00    +0.015 A 
ATOM     19  C   UNL     1       0.147  -4.229  -0.188  0.00  0.00    +0.005 A 
ATOM     20  C   UNL     1       0.767  -4.840  -1.263  0.00  0.00    -0.038 A 
ATOM     21  C   UNL     1       1.334  -4.076  -2.268  0.00  0.00    +0.005 A 
ATOM     22  C   UNL     1       1.278  -2.699  -2.207  0.00  0.00    +0.015 A 
BRANCH  17  23
ATOM     23  C   UNL     1       0.601  -0.602  -1.046  0.00  0.00    +0.339 C 
ATOM     24  O   UNL     1       1.092   0.071  -1.930  0.00  0.00    -0.245 OA
BRANCH  23  26
ATOM     25  C   UNL     1      -0.017   1.425   0.010  0.00  0.00    +0.280 C 
ATOM     26  O   UNL     1       0.002  -0.004   0.002  0.00  0.00    -0.464 OA
ENDBRANCH  23  26
ENDBRANCH  17  23
ENDBRANCH   1  20
BRANCH  14  27
ATOM     27  N   UNL     1       4.027  -8.163  -2.080  0.00  0.00    -0.328 N 
ATOM     28  H   UNL     1       4.355  -8.897  -2.622  0.00  0.00    +0.145 HD
ATOM     29  H   UNL     1       4.636  -7.676  -1.503  0.00  0.00    +0.145 HD
ENDBRANCH  14  27
BRANCH  15  30
ATOM     30  C   UNL     1       3.211  -6.091  -0.550  0.00  0.00    +0.100 C 
ATOM     31  N   UNL     1       3.962  -5.539   0.099  0.00  0.00    -0.191 NA
ENDBRANCH  15  30
TORSDOF 5
