REMARK  Name = ZINC40351998
REMARK  6 active torsions:
REMARK  status: ('A' for Active; 'I' for Inactive)
REMARK    1  A    between atoms: C_1  and  C_2
REMARK    2  A    between atoms: C_2  and  C_4
REMARK    3  A    between atoms: C_2  and  N_7
REMARK    4  A    between atoms: C_4  and  N_6
REMARK    5  A    between atoms: C_8  and  C_10
REMARK    6  A    between atoms: C_19  and  O_20
REMARK                            x       y       z     vdW  Elec       q    Type
REMARK                         _______ _______ _______ _____ _____    ______ ____
ROOT
ATOM      1  C   UNL     1      -3.433  -1.153  -1.134  0.00  0.00    +0.079 A 
ATOM      2  C   UNL     1      -4.043  -1.496   0.087  0.00  0.00    +0.017 A 
ATOM      3  C   UNL     1      -5.314  -1.967   0.123  0.00  0.00    +0.009 A 
ATOM      4  C   UNL     1      -6.047  -2.121  -1.070  0.00  0.00    -0.014 A 
ATOM      5  C   UNL     1      -7.364  -2.607  -1.052  0.00  0.00    +0.008 A 
ATOM      6  C   UNL     1      -8.050  -2.745  -2.221  0.00  0.00    +0.001 A 
ATOM      7  C   UNL     1      -7.463  -2.410  -3.439  0.00  0.00    +0.001 A 
ATOM      8  C   UNL     1      -6.188  -1.936  -3.495  0.00  0.00    +0.012 A 
ATOM      9  C   UNL     1      -5.451  -1.781  -2.310  0.00  0.00    +0.024 A 
ATOM     10  C   UNL     1      -4.131  -1.287  -2.332  0.00  0.00    +0.137 A 
ENDROOT
BRANCH   1  12
ATOM     11  N   UNL     1      -1.372  -0.511   0.012  0.00  0.00    -0.303 N 
ATOM     12  C   UNL     1      -2.051  -0.643  -1.145  0.00  0.00    +0.248 C 
ATOM     13  O   UNL     1      -1.522  -0.341  -2.197  0.00  0.00    -0.270 OA
ATOM     14  H   UNL     1      -1.794  -0.752   0.852  0.00  0.00    +0.150 HD
BRANCH  11  16
ATOM     15  C   UNL     1      -0.019   1.526   0.010  0.00  0.00    +0.035 C 
ATOM     16  C   UNL     1       0.002  -0.004   0.002  0.00  0.00    +0.121 C 
BRANCH  16  17
ATOM     17  C   UNL     1       0.731  -0.503   1.223  0.00  0.00    +0.066 C 
ATOM     18  S   UNL     1      -0.055  -1.338   2.337  0.00  0.00    -0.039 S 
BRANCH  17  19
ATOM     19  N   UNL     1       2.045  -0.246   1.375  0.00  0.00    -0.354 N 
ATOM     20  H   UNL     1       2.522   0.261   0.699  0.00  0.00    +0.143 HD
ATOM     21  H   UNL     1       2.514  -0.567   2.161  0.00  0.00    +0.143 HD
ENDBRANCH  17  19
ENDBRANCH  16  17
ENDBRANCH  11  16
ENDBRANCH   1  12
BRANCH  10  22
ATOM     22  O   UNL     1      -3.545  -0.952  -3.507  0.00  0.00    -0.505 OA
ATOM     23  H   UNL     1      -3.071  -1.680  -3.932  0.00  0.00    +0.292 HD
ENDBRANCH  10  22
TORSDOF 5
