REMARK  Name = ZINC12075836
REMARK  10 active torsions:
REMARK  status: ('A' for Active; 'I' for Inactive)
REMARK    1  A    between atoms: C_1  and  C_2
REMARK    2  A    between atoms: C_7  and  C_8
REMARK    3  A    between atoms: C_8  and  N_57
REMARK    4  A    between atoms: C_14  and  C_16
REMARK    5  A    between atoms: C_16  and  C_17
REMARK    6  A    between atoms: N_19  and  C_20
REMARK    7  A    between atoms: C_20  and  C_21
REMARK    8  A    between atoms: C_24  and  C_27
REMARK    9  A    between atoms: C_27  and  O_29
REMARK   10  A    between atoms: O_29  and  C_30
REMARK                            x       y       z     vdW  Elec       q    Type
REMARK                         _______ _______ _______ _____ _____    ______ ____
ROOT
ATOM      1  C   UNL     1       4.716   3.359   1.658  0.00  0.00    -0.058 C 
ATOM      2  C   UNL     1       5.897   2.409   1.871  0.00  0.00    +0.085 C 
ATOM      3  N   UNL     1       5.932   1.409   0.808  0.00  0.00    -0.318 N 
ATOM      4  C   UNL     1       4.880   1.138   0.029  0.00  0.00    +0.200 C 
ATOM      5  O   UNL     1       4.986   0.269  -0.811  0.00  0.00    -0.278 OA
ATOM      6  C   UNL     1       3.571   1.866   0.150  0.00  0.00    +0.028 C 
ATOM      7  H   UNL     1       6.756   0.918   0.660  0.00  0.00    +0.149 HD
ATOM      8  N   UNL     1       3.502   2.542   1.459  0.00  0.00    +0.391 N 
ATOM      9  H   UNL     1       3.450   1.834   2.200  0.00  0.00    -0.080 HD
ENDROOT
BRANCH   8  10
ATOM     10  C   UNL     1       2.297   3.399   1.524  0.00  0.00    -0.042 C 
BRANCH  10  17
ATOM     11  C   UNL     1       1.419   1.730   3.713  0.00  0.00    +0.044 C 
ATOM     12  C   UNL     1       1.760   3.178   3.959  0.00  0.00    -0.049 A 
ATOM     13  C   UNL     1       1.653   3.707   5.231  0.00  0.00    +0.003 A 
ATOM     14  C   UNL     1       1.966   5.034   5.457  0.00  0.00    +0.000 A 
ATOM     15  C   UNL     1       2.386   5.833   4.409  0.00  0.00    +0.000 A 
ATOM     16  C   UNL     1       2.498   5.302   3.138  0.00  0.00    +0.002 A 
ATOM     17  C   UNL     1       2.180   3.976   2.911  0.00  0.00    -0.061 A 
ENDBRANCH  10  17
ENDBRANCH   8  10
BRANCH   6  18
ATOM     18  C   UNL     1       2.420   0.862   0.048  0.00  0.00    +0.089 C 
BRANCH  18  19
ATOM     19  C   UNL     1       2.508  -0.120   1.187  0.00  0.00    +0.212 C 
ATOM     20  O   UNL     1       3.448  -0.078   1.953  0.00  0.00    -0.276 OA
ATOM     21  N   UNL     1       1.543  -1.045   1.356  0.00  0.00    -0.311 N 
ATOM     22  H   UNL     1       0.791  -1.078   0.744  0.00  0.00    +0.149 HD
BRANCH  21  23
ATOM     23  C   UNL     1       1.625  -1.996   2.467  0.00  0.00    +0.139 C 
BRANCH  23  24
ATOM     24  C   UNL     1       0.428  -2.911   2.435  0.00  0.00    -0.030 A 
ATOM     25  C   UNL     1      -0.721  -2.567   3.125  0.00  0.00    +0.006 A 
ATOM     26  C   UNL     1      -1.822  -3.397   3.096  0.00  0.00    +0.015 A 
ATOM     27  C   UNL     1      -1.771  -4.593   2.377  0.00  0.00    +0.059 A 
ATOM     28  C   UNL     1      -0.607  -4.937   1.688  0.00  0.00    +0.015 A 
ATOM     29  C   UNL     1       0.485  -4.095   1.721  0.00  0.00    +0.006 A 
BRANCH  27  30
ATOM     30  C   UNL     1      -2.944  -5.490   2.345  0.00  0.00    +0.339 C 
ATOM     31  O   UNL     1      -2.897  -6.530   1.719  0.00  0.00    -0.245 OA
BRANCH  30  32
ATOM     32  O   UNL     1      -4.066  -5.155   3.012  0.00  0.00    -0.464 OA
ATOM     33  C   UNL     1      -5.180  -6.084   2.937  0.00  0.00    +0.280 C 
ENDBRANCH  30  32
ENDBRANCH  27  30
ENDBRANCH  23  24
ENDBRANCH  21  23
ENDBRANCH  18  19
ENDBRANCH   6  18
TORSDOF 8
