REMARK  Name = ZINC38903790
REMARK  13 active torsions:
REMARK  status: ('A' for Active; 'I' for Inactive)
REMARK    1  A    between atoms: C_1  and  C_2
REMARK    2  A    between atoms: N_7  and  C_9
REMARK    3  A    between atoms: C_12  and  C_15
REMARK    4  A    between atoms: C_15  and  C_17
REMARK    5  A    between atoms: C_15  and  N_18
REMARK    6  A    between atoms: C_19  and  C_21
REMARK    7  A    between atoms: N_26  and  C_28
REMARK    8  A    between atoms: C_28  and  C_29
REMARK    9  A    between atoms: C_31  and  C_34
REMARK   10  A    between atoms: C_37  and  C_40
REMARK   11  A    between atoms: C_40  and  C_41
REMARK   12  A    between atoms: C_40  and  C_42
REMARK   13  A    between atoms: C_40  and  C_43
REMARK                            x       y       z     vdW  Elec       q    Type
REMARK                         _______ _______ _______ _____ _____    ______ ____
ROOT
ATOM      1  C   UNL     1       6.001  -8.353  -0.291  0.00  0.00    +0.058 C 
ATOM      2  C   UNL     1       5.271  -9.389   0.568  0.00  0.00    +0.009 C 
ATOM      3  C   UNL     1       5.156 -10.699  -0.217  0.00  0.00    -0.018 C 
ATOM      4  C   UNL     1       6.555 -11.167  -0.625  0.00  0.00    -0.078 C 
ATOM      5  N   UNL     1       7.190 -10.145  -1.466  0.00  0.00    +0.386 N 
ATOM      6  C   UNL     1       7.369  -8.907  -0.698  0.00  0.00    -0.065 C 
ATOM      7  H   UNL     1       6.606  -9.960  -2.268  0.00  0.00    -0.081 HD
ENDROOT
BRANCH   1   9
ATOM      8  N   UNL     1       5.114  -6.418   0.968  0.00  0.00    -0.309 N 
ATOM      9  C   UNL     1       6.188  -7.084   0.500  0.00  0.00    +0.215 C 
ATOM     10  O   UNL     1       7.304  -6.663   0.717  0.00  0.00    -0.276 OA
ATOM     11  H   UNL     1       4.221  -6.755   0.794  0.00  0.00    +0.149 HD
BRANCH   8  12
ATOM     12  C   UNL     1       5.295  -5.184   1.737  0.00  0.00    +0.100 C 
ATOM     13  C   UNL     1       5.536  -5.531   3.207  0.00  0.00    +0.033 C 
BRANCH  12  17
ATOM     14  C   UNL     1       1.786  -2.767   1.399  0.00  0.00    +0.030 A 
ATOM     15  C   UNL     1       3.043  -2.177   1.369  0.00  0.00    +0.023 A 
ATOM     16  C   UNL     1       4.175  -2.961   1.479  0.00  0.00    +0.007 A 
ATOM     17  C   UNL     1       4.057  -4.332   1.618  0.00  0.00    -0.027 A 
ATOM     18  C   UNL     1       2.807  -4.923   1.648  0.00  0.00    +0.007 A 
ATOM     19  C   UNL     1       1.671  -4.144   1.545  0.00  0.00    +0.023 A 
BRANCH  14  25
ATOM     20  C   UNL     1      -0.013   1.539   0.045  0.00  0.00    +0.009 C 
ATOM     21  C   UNL     1       0.010   0.010   0.019  0.00  0.00    +0.003 C 
ATOM     22  C   UNL     1      -1.425  -0.522   0.015  0.00  0.00    +0.006 C 
ATOM     23  C   UNL     1      -1.404  -2.052  -0.044  0.00  0.00    +0.019 C 
ATOM     24  C   UNL     1      -0.690  -2.596   1.198  0.00  0.00    +0.105 C 
ATOM     25  N   UNL     1       0.639  -1.977   1.288  0.00  0.00    -0.330 N 
ATOM     26  C   UNL     1       0.740  -0.512   1.261  0.00  0.00    +0.108 C 
ENDBRANCH  14  25
ENDBRANCH  12  17
ENDBRANCH   8  12
ENDBRANCH   1   9
BRANCH   5  27
ATOM     27  C   UNL     1       8.500 -10.631  -1.919  0.00  0.00    +0.022 C 
BRANCH  27  28
ATOM     28  C   UNL     1       8.309 -11.826  -2.818  0.00  0.00    +0.211 A 
ATOM     29  N   UNL     1       8.165 -11.789  -4.112  0.00  0.00    -0.193 NA
ATOM     30  C   UNL     1       8.018 -13.036  -4.594  0.00  0.00    +0.202 A 
ATOM     31  N   UNL     1       8.069 -13.881  -3.594  0.00  0.00    -0.056 NA
ATOM     32  O   UNL     1       8.265 -13.104  -2.422  0.00  0.00    -0.340 OA
BRANCH  30  33
ATOM     33  C   UNL     1       7.828 -13.396  -6.022  0.00  0.00    +0.022 A 
ATOM     34  C   UNL     1       7.796 -12.399  -6.995  0.00  0.00    +0.012 A 
ATOM     35  C   UNL     1       7.620 -12.739  -8.321  0.00  0.00    +0.005 A 
ATOM     36  C   UNL     1       7.474 -14.066  -8.685  0.00  0.00    -0.042 A 
ATOM     37  C   UNL     1       7.505 -15.059  -7.722  0.00  0.00    +0.005 A 
ATOM     38  C   UNL     1       7.687 -14.731  -6.394  0.00  0.00    +0.012 A 
BRANCH  36  39
ATOM     39  C   UNL     1       7.281 -14.431 -10.134  0.00  0.00    -0.013 C 
ATOM     40  C   UNL     1       8.487 -13.954 -10.945  0.00  0.00    +0.015 C 
ATOM     41  C   UNL     1       7.146 -15.949 -10.264  0.00  0.00    +0.015 C 
ATOM     42  C   UNL     1       6.012 -13.759 -10.664  0.00  0.00    +0.015 C 
ENDBRANCH  36  39
ENDBRANCH  30  33
ENDBRANCH  27  28
ENDBRANCH   5  27
TORSDOF 8
