REMARK  Name = ZINC63160812
REMARK  6 active torsions:
REMARK  status: ('A' for Active; 'I' for Inactive)
REMARK    1  A    between atoms: C_4  and  O_35
REMARK    2  A    between atoms: C_5  and  N_7
REMARK    3  A    between atoms: C_13  and  C_15
REMARK    4  A    between atoms: C_15  and  C_16
REMARK    5  A    between atoms: C_16  and  C_17
REMARK    6  A    between atoms: C_25  and  C_27
REMARK                            x       y       z     vdW  Elec       q    Type
REMARK                         _______ _______ _______ _____ _____    ______ ____
ROOT
ATOM      1  C   UNL     1       0.129  -8.156  -1.077  0.00  0.00    +0.043 C 
ENDROOT
BRANCH   1   2
ATOM      2  C   UNL     1       0.133  -8.902  -2.386  0.00  0.00    -0.034 C 
ATOM      3  C   UNL     1       0.124  -8.365  -3.627  0.00  0.00    +0.002 A 
ATOM      4  C   UNL     1       0.108  -6.980  -4.111  0.00  0.00    +0.048 A 
ATOM      5  C   UNL     1       0.102  -6.750  -5.446  0.00  0.00    +0.124 A 
ATOM      6  C   UNL     1       0.111  -7.803  -6.375  0.00  0.00    +0.040 A 
ATOM      7  C   UNL     1       0.126  -9.100  -6.005  0.00  0.00    +0.029 A 
ATOM      8  C   UNL     1       0.134  -9.456  -4.628  0.00  0.00    +0.043 A 
ATOM      9  N   UNL     1       0.148 -10.622  -4.028  0.00  0.00    -0.374 N 
ATOM     10  C   UNL     1       0.156 -10.402  -2.578  0.00  0.00    +0.137 C 
ATOM     11  F   UNL     1       0.086  -5.476  -5.894  0.00  0.00    -0.205 F 
ATOM     12  H   UNL     1       0.155 -11.486  -4.470  0.00  0.00    +0.161 HD
BRANCH  10  13
ATOM     13  C   UNL     1      -1.068 -11.023  -1.955  0.00  0.00    -0.021 A 
ATOM     14  C   UNL     1      -2.273 -11.003  -2.631  0.00  0.00    +0.009 A 
ATOM     15  C   UNL     1      -3.396 -11.573  -2.061  0.00  0.00    +0.039 A 
ATOM     16  C   UNL     1      -3.312 -12.165  -0.812  0.00  0.00    +0.123 A 
ATOM     17  C   UNL     1      -2.104 -12.184  -0.135  0.00  0.00    +0.039 A 
ATOM     18  C   UNL     1      -0.982 -11.618  -0.710  0.00  0.00    +0.009 A 
ATOM     19  F   UNL     1      -4.409 -12.722  -0.253  0.00  0.00    -0.205 F 
ENDBRANCH  10  13
ENDBRANCH   1   2
BRANCH   1  20
ATOM     20  C   UNL     1       0.104  -6.650  -1.347  0.00  0.00    +0.100 C 
BRANCH  20  27
ATOM     21  N   UNL     1       1.235  -2.080  -0.021  0.00  0.00    -0.324 N 
ATOM     22  C   UNL     1       1.252  -2.836   1.239  0.00  0.00    +0.124 C 
ATOM     23  C   UNL     1       0.073  -3.816   1.240  0.00  0.00    +0.126 C 
ATOM     24  N   UNL     1       0.078  -4.557  -0.030  0.00  0.00    -0.298 N 
ATOM     25  C   UNL     1       0.060  -3.802  -1.290  0.00  0.00    +0.126 C 
ATOM     26  C   UNL     1       1.234  -2.821  -1.291  0.00  0.00    +0.124 C 
ATOM     27  C   UNL     1       0.099  -5.904  -0.038  0.00  0.00    +0.216 C 
ATOM     28  O   UNL     1       0.114  -6.517   1.009  0.00  0.00    -0.276 OA
BRANCH  21  33
ATOM     29  C   UNL     1      -0.017   1.378   0.010  0.00  0.00    +0.002 A 
ATOM     30  C   UNL     1       1.169   2.089   0.002  0.00  0.00    +0.004 A 
ATOM     31  C   UNL     1       2.380   1.421  -0.013  0.00  0.00    +0.047 A 
ATOM     32  C   UNL     1       2.407   0.036  -0.021  0.00  0.00    +0.138 A 
ATOM     33  C   UNL     1       1.213  -0.681  -0.013  0.00  0.00    +0.072 A 
ATOM     34  C   UNL     1       0.002  -0.004   0.002  0.00  0.00    +0.027 A 
BRANCH  32  35
ATOM     35  O   UNL     1       3.598  -0.622  -0.036  0.00  0.00    -0.505 OA
ATOM     36  H   UNL     1       3.950  -0.817   0.843  0.00  0.00    +0.292 HD
ENDBRANCH  32  35
ENDBRANCH  21  33
ENDBRANCH  20  27
ENDBRANCH   1  20
TORSDOF 6
