REMARK  Name = ZINC39711445
REMARK  10 active torsions:
REMARK  status: ('A' for Active; 'I' for Inactive)
REMARK    1  A    between atoms: C_1  and  C_2
REMARK    2  A    between atoms: C_2  and  O_3
REMARK    3  A    between atoms: O_3  and  C_4
REMARK    4  A    between atoms: C_11  and  C_16
REMARK    5  A    between atoms: C_16  and  C_18
REMARK    6  A    between atoms: C_16  and  N_28
REMARK    7  A    between atoms: N_23  and  C_24
REMARK    8  A    between atoms: C_24  and  C_25
REMARK    9  A    between atoms: C_24  and  C_26
REMARK   10  A    between atoms: C_24  and  C_27
REMARK                            x       y       z     vdW  Elec       q    Type
REMARK                         _______ _______ _______ _____ _____    ______ ____
ROOT
ATOM      1  C   UNL     1       0.841  -6.241  -4.937  0.00  0.00    -0.010 C 
ENDROOT
BRANCH   1   9
ATOM      2  C   UNL     1       2.651  -9.434  -0.397  0.00  0.00    +0.121 A 
ATOM      3  C   UNL     1       3.813  -9.822  -1.074  0.00  0.00    +0.047 A 
ATOM      4  C   UNL     1       4.221  -9.231  -2.226  0.00  0.00    +0.027 A 
ATOM      5  C   UNL     1       3.474  -8.183  -2.796  0.00  0.00    +0.041 A 
ATOM      6  N   UNL     1       3.886  -7.611  -3.927  0.00  0.00    -0.285 N 
ATOM      7  C   UNL     1       3.234  -6.623  -4.516  0.00  0.00    +0.223 C 
ATOM      8  O   UNL     1       3.659  -6.141  -5.549  0.00  0.00    -0.275 OA
ATOM      9  C   UNL     1       1.958  -6.095  -3.901  0.00  0.00    +0.088 C 
ATOM     10  C   UNL     1       1.484  -6.741  -2.614  0.00  0.00    -0.006 C 
ATOM     11  C   UNL     1       2.245  -7.752  -2.106  0.00  0.00    -0.004 A 
ATOM     12  C   UNL     1       1.857  -8.434  -0.871  0.00  0.00    +0.055 A 
ATOM     13  H   UNL     1       4.702  -7.935  -4.338  0.00  0.00    +0.155 HD
BRANCH   2  14
ATOM     14  O   UNL     1       2.304 -10.072   0.752  0.00  0.00    -0.492 OA
BRANCH  14  16
ATOM     15  C   UNL     1       2.623 -11.709   2.502  0.00  0.00    +0.048 C 
ATOM     16  C   UNL     1       3.172 -11.113   1.204  0.00  0.00    +0.225 C 
ENDBRANCH  14  16
ENDBRANCH   2  14
ENDBRANCH   1   9
BRANCH   1  17
ATOM     17  N   UNL     1       0.614  -7.666  -5.213  0.00  0.00    +0.385 N 
ATOM     18  C   UNL     1      -0.325  -7.802  -6.334  0.00  0.00    -0.078 C 
ATOM     19  C   UNL     1      -0.503  -9.283  -6.678  0.00  0.00    -0.019 C 
ATOM     20  C   UNL     1      -1.054 -10.022  -5.455  0.00  0.00    -0.004 C 
ATOM     21  C   UNL     1      -0.105  -9.812  -4.272  0.00  0.00    -0.019 C 
ATOM     22  C   UNL     1       0.058  -8.312  -4.017  0.00  0.00    -0.078 C 
ATOM     23  H   UNL     1       1.489  -8.105  -5.455  0.00  0.00    -0.081 HD
ENDBRANCH   1  17
BRANCH   1  24
ATOM     24  C   UNL     1       1.248  -5.530  -6.230  0.00  0.00    +0.205 C 
ATOM     25  N   UNL     1       2.551  -6.023  -6.697  0.00  0.00    -0.152 NA
ATOM     26  N   UNL     1       3.349  -5.083  -6.717  0.00  0.00    -0.070 NA
ATOM     27  N   UNL     1       2.780  -3.880  -6.300  0.00  0.00    -0.179 N 
ATOM     28  N   UNL     1       1.461  -4.089  -5.981  0.00  0.00    -0.183 NA
ATOM     29  H   UNL     1       3.243  -3.030  -6.245  0.00  0.00    +0.191 HD
BRANCH  28  30
ATOM     30  C   UNL     1       1.200  -3.754  -4.574  0.00  0.00    +0.035 C 
ATOM     31  C   UNL     1       2.501  -3.854  -3.776  0.00  0.00    +0.029 C 
ATOM     32  C   UNL     1       0.655  -2.327  -4.483  0.00  0.00    +0.029 C 
ATOM     33  C   UNL     1       0.172  -4.731  -4.000  0.00  0.00    +0.029 C 
ENDBRANCH  28  30
ENDBRANCH   1  24
TORSDOF 6
