REMARK  Name = ZINC32631795
REMARK  5 active torsions:
REMARK  status: ('A' for Active; 'I' for Inactive)
REMARK    1  A    between atoms: C_3  and  N_17
REMARK    2  A    between atoms: C_5  and  S_7
REMARK    3  A    between atoms: S_7  and  N_10
REMARK    4  A    between atoms: N_17  and  S_18
REMARK    5  A    between atoms: S_18  and  C_21
REMARK                            x       y       z     vdW  Elec       q    Type
REMARK                         _______ _______ _______ _____ _____    ______ ____
ROOT
ATOM      1  C   UNL     1      -0.017   1.378   0.010  0.00  0.00    +0.004 A 
ATOM      2  C   UNL     1       1.169   2.087   0.002  0.00  0.00    +0.024 A 
ATOM      3  C   UNL     1       2.381   1.409  -0.013  0.00  0.00    +0.050 A 
ATOM      4  C   UNL     1       2.396   0.020  -0.021  0.00  0.00    +0.053 A 
ATOM      5  C   UNL     1       1.207  -0.682  -0.013  0.00  0.00    +0.107 A 
ATOM      6  C   UNL     1       0.002  -0.004   0.002  0.00  0.00    +0.028 A 
ENDROOT
BRANCH   5   7
ATOM      7  S   UNL     1       1.225  -2.444  -0.023  0.00  0.00    +0.061 S 
ATOM      8  O   UNL     1      -0.021  -2.860  -0.565  0.00  0.00    -0.153 OA
ATOM      9  O   UNL     1       2.469  -2.834  -0.589  0.00  0.00    -0.153 OA
BRANCH   7  10
ATOM     10  N   UNL     1       1.246  -2.943   1.556  0.00  0.00    -0.166 NA
ATOM     11  C   UNL     1       2.513  -3.155   2.276  0.00  0.00    +0.128 C 
ATOM     12  C   UNL     1       2.555  -2.189   3.462  0.00  0.00    +0.121 C 
ATOM     13  N   UNL     1       1.294  -2.210   4.190  0.00  0.00    -0.313 N 
ATOM     14  C   UNL     1       0.131  -2.614   3.678  0.00  0.00    +0.229 C 
ATOM     15  O   UNL     1      -0.868  -2.511   4.359  0.00  0.00    -0.274 OA
ATOM     16  C   UNL     1      -0.000  -3.186   2.297  0.00  0.00    +0.205 C 
ATOM     17  H   UNL     1       1.301  -1.910   5.112  0.00  0.00    +0.149 HD
ENDBRANCH   7  10
ENDBRANCH   5   7
BRANCH   3  18
ATOM     18  N   UNL     1       3.582   2.122  -0.021  0.00  0.00    -0.216 N 
ATOM     19  H   UNL     1       4.296   1.862  -0.624  0.00  0.00    +0.174 HD
BRANCH  18  20
ATOM     20  S   UNL     1       3.786   3.412   0.997  0.00  0.00    +0.072 S 
ATOM     21  O   UNL     1       5.101   3.902   0.774  0.00  0.00    -0.150 OA
ATOM     22  O   UNL     1       2.633   4.229   0.853  0.00  0.00    -0.150 OA
BRANCH  20  23
ATOM     23  C   UNL     1       3.756   2.785   2.644  0.00  0.00    +0.109 A 
ATOM     24  C   UNL     1       2.558   2.690   3.328  0.00  0.00    +0.029 A 
ATOM     25  C   UNL     1       2.543   2.201   4.618  0.00  0.00    +0.006 A 
ATOM     26  C   UNL     1       3.722   1.801   5.235  0.00  0.00    -0.044 A 
ATOM     27  C   UNL     1       4.913   1.891   4.552  0.00  0.00    -0.042 A 
ATOM     28  C   UNL     1       4.926   2.382   3.252  0.00  0.00    +0.032 A 
ATOM     29  C   UNL     1       6.226   1.461   5.152  0.00  0.00    +0.035 C 
ATOM     30  C   UNL     1       6.114   1.359   6.672  0.00  0.00    +0.005 C 
ATOM     31  C   UNL     1       4.892   0.498   7.011  0.00  0.00    +0.005 C 
ATOM     32  C   UNL     1       3.634   1.285   6.647  0.00  0.00    +0.035 C 
ENDBRANCH  20  23
ENDBRANCH  18  20
ENDBRANCH   3  18
TORSDOF 5
