REMARK  Name = ZINC44713589
REMARK  6 active torsions:
REMARK  status: ('A' for Active; 'I' for Inactive)
REMARK    1  A    between atoms: C_1  and  C_2
REMARK    2  A    between atoms: C_3  and  C_12
REMARK    3  A    between atoms: C_12  and  C_13
REMARK    4  A    between atoms: C_13  and  N_14
REMARK    5  A    between atoms: C_15  and  C_17
REMARK    6  A    between atoms: C_28  and  C_30
REMARK                            x       y       z     vdW  Elec       q    Type
REMARK                         _______ _______ _______ _____ _____    ______ ____
ROOT
ATOM      1  C   UNL     1       2.608   0.968  -6.441  0.00  0.00    +0.100 C 
ATOM      2  C   UNL     1       2.035  -0.085  -7.415  0.00  0.00    +0.121 C 
ATOM      3  N   UNL     1       2.853   0.054  -8.643  0.00  0.00    -0.297 N 
ATOM      4  C   UNL     1       4.231   0.283  -8.143  0.00  0.00    +0.115 C 
ATOM      5  C   UNL     1       4.050   1.207  -6.922  0.00  0.00    -0.004 C 
ATOM      6  C   UNL     1       4.236   2.665  -7.331  0.00  0.00    -0.010 C 
ATOM      7  C   UNL     1       5.691   2.890  -7.751  0.00  0.00    -0.082 C 
ATOM      8  N   UNL     1       6.582   2.557  -6.633  0.00  0.00    +0.379 N 
ATOM      9  C   UNL     1       6.464   1.131  -6.306  0.00  0.00    -0.082 C 
ATOM     10  C   UNL     1       5.042   0.831  -5.825  0.00  0.00    -0.010 C 
ATOM     11  C   UNL     1       2.440  -0.012  -9.924  0.00  0.00    +0.260 C 
ATOM     12  O   UNL     1       1.258  -0.115 -10.175  0.00  0.00    -0.271 OA
ATOM     13  H   UNL     1       7.535   2.764  -6.891  0.00  0.00    -0.086 HD
ATOM     14  H   UNL     1       6.328   3.107  -5.827  0.00  0.00    -0.086 HD
ENDROOT
BRANCH  11  15
ATOM     15  C   UNL     1       3.446   0.041 -11.044  0.00  0.00    +0.296 C 
ATOM     16  C   UNL     1       4.306  -1.230 -11.029  0.00  0.00    +0.283 C 
ATOM     17  O   UNL     1       5.239  -1.153 -12.112  0.00  0.00    -0.484 OA
ATOM     18  C   UNL     1       4.744  -0.769 -13.320  0.00  0.00    +0.162 A 
ATOM     19  C   UNL     1       5.482  -1.016 -14.468  0.00  0.00    +0.049 A 
ATOM     20  C   UNL     1       4.994  -0.630 -15.702  0.00  0.00    +0.004 A 
ATOM     21  C   UNL     1       3.769   0.003 -15.795  0.00  0.00    +0.004 A 
ATOM     22  C   UNL     1       3.027   0.251 -14.656  0.00  0.00    +0.049 A 
ATOM     23  C   UNL     1       3.511  -0.135 -13.414  0.00  0.00    +0.163 A 
ATOM     24  O   UNL     1       2.766   0.108 -12.302  0.00  0.00    -0.473 OA
ENDBRANCH  11  15
BRANCH   1  26
ATOM     25  N   UNL     1       2.630   1.289  -3.989  0.00  0.00    -0.315 N 
ATOM     26  C   UNL     1       2.607   0.435  -5.032  0.00  0.00    +0.218 C 
ATOM     27  O   UNL     1       2.584  -0.761  -4.836  0.00  0.00    -0.275 OA
ATOM     28  H   UNL     1       2.647   2.246  -4.146  0.00  0.00    +0.149 HD
BRANCH  25  29
ATOM     29  C   UNL     1       2.628   0.771  -2.618  0.00  0.00    +0.109 C 
BRANCH  29  30
ATOM     30  C   UNL     1       2.657   1.940  -1.631  0.00  0.00    +0.056 C 
BRANCH  30  33
ATOM     31  C   UNL     1       5.162   1.245   0.064  0.00  0.00    +0.063 C 
ATOM     32  C   UNL     1       3.733   1.104   0.519  0.00  0.00    +0.017 A 
ATOM     33  C   UNL     1       2.655   1.407  -0.222  0.00  0.00    -0.018 A 
ATOM     34  C   UNL     1       1.476   1.121   0.600  0.00  0.00    +0.003 A 
ATOM     35  C   UNL     1       0.100   1.229   0.394  0.00  0.00    +0.010 A 
ATOM     36  C   UNL     1      -0.765   0.871   1.389  0.00  0.00    +0.001 A 
ATOM     37  C   UNL     1      -0.287   0.402   2.604  0.00  0.00    +0.002 A 
ATOM     38  C   UNL     1       1.067   0.288   2.830  0.00  0.00    +0.026 A 
ATOM     39  C   UNL     1       1.967   0.646   1.830  0.00  0.00    +0.047 A 
ATOM     40  N   UNL     1       3.341   0.643   1.746  0.00  0.00    -0.358 N 
ATOM     41  H   UNL     1       3.942   0.358   2.452  0.00  0.00    +0.166 HD
ENDBRANCH  30  33
ENDBRANCH  29  30
ENDBRANCH  25  29
ENDBRANCH   1  26
TORSDOF 5
