REMARK  Name = ZINC12659018
REMARK  8 active torsions:
REMARK  status: ('A' for Active; 'I' for Inactive)
REMARK    1  A    between atoms: C_1  and  C_2
REMARK    2  A    between atoms: C_2  and  C_4
REMARK    3  A    between atoms: C_7  and  N_10
REMARK    4  A    between atoms: C_11  and  C_13
REMARK    5  A    between atoms: C_13  and  N_24
REMARK    6  A    between atoms: C_14  and  C_15
REMARK    7  A    between atoms: C_19  and  N_21
REMARK    8  A    between atoms: C_25  and  C_27
REMARK                            x       y       z     vdW  Elec       q    Type
REMARK                         _______ _______ _______ _____ _____    ______ ____
ROOT
ATOM      1  C   UNL     1      -1.206   6.351  -0.116  0.00  0.00    +0.097 C 
ATOM      2  C   UNL     1      -0.251   5.454   0.222  0.00  0.00    +0.036 C 
ENDROOT
BRANCH   2   3
ATOM      3  C   UNL     1      -0.629   4.079   0.586  0.00  0.00    -0.021 A 
ATOM      4  C   UNL     1      -1.869   3.825   1.181  0.00  0.00    +0.008 A 
ATOM      5  C   UNL     1      -2.218   2.533   1.513  0.00  0.00    +0.003 A 
ATOM      6  C   UNL     1      -1.341   1.491   1.269  0.00  0.00    +0.033 A 
ATOM      7  C   UNL     1      -0.113   1.734   0.680  0.00  0.00    +0.127 A 
ATOM      8  C   UNL     1       0.249   3.020   0.337  0.00  0.00    +0.040 A 
BRANCH   7   9
ATOM      9  N   UNL     1       0.815   0.611   0.418  0.00  0.00    +0.056 N 
ATOM     10  O   UNL     1       0.497  -0.525   0.720  0.00  0.00    -0.126 OA
ATOM     11  O   UNL     1       1.897   0.823  -0.100  0.00  0.00    -0.126 OA
ENDBRANCH   7   9
ENDBRANCH   2   3
BRANCH   1  13
ATOM     12  N   UNL     1       0.473   8.069  -0.544  0.00  0.00    -0.280 N 
ATOM     13  C   UNL     1      -0.826   7.713  -0.515  0.00  0.00    +0.262 C 
ATOM     14  O   UNL     1      -1.685   8.520  -0.819  0.00  0.00    -0.268 OA
ATOM     15  H   UNL     1       1.153   7.450  -0.236  0.00  0.00    +0.155 HD
BRANCH  12  19
ATOM     16  C   UNL     1       1.569  11.819  -1.956  0.00  0.00    +0.017 A 
ATOM     17  C   UNL     1       2.329  11.194  -0.960  0.00  0.00    +0.013 A 
ATOM     18  C   UNL     1       1.966   9.961  -0.499  0.00  0.00    +0.024 A 
ATOM     19  C   UNL     1       0.841   9.325  -1.018  0.00  0.00    +0.034 A 
ATOM     20  C   UNL     1       0.085   9.941  -2.012  0.00  0.00    +0.024 A 
ATOM     21  C   UNL     1       0.438  11.176  -2.475  0.00  0.00    +0.013 A 
BRANCH  16  23
ATOM     22  C   UNL     1       1.066  13.873  -3.430  0.00  0.00    +0.091 C 
ATOM     23  C   UNL     1       1.956  13.145  -2.455  0.00  0.00    +0.160 C 
ATOM     24  O   UNL     1       2.992  13.655  -2.082  0.00  0.00    -0.292 OA
ENDBRANCH  16  23
ENDBRANCH  12  19
ENDBRANCH   1  13
BRANCH   1  25
ATOM     25  N   UNL     1      -2.554   5.982  -0.086  0.00  0.00    -0.277 N 
ATOM     26  C   UNL     1      -3.417   6.646   0.709  0.00  0.00    +0.248 C 
ATOM     27  O   UNL     1      -3.045   7.626   1.325  0.00  0.00    -0.270 OA
ATOM     28  H   UNL     1      -2.869   5.248  -0.637  0.00  0.00    +0.155 HD
BRANCH  26  29
ATOM     29  C   UNL     1      -4.815   6.183   0.831  0.00  0.00    +0.038 A 
ATOM     30  C   UNL     1      -5.219   5.000   0.208  0.00  0.00    +0.013 A 
ATOM     31  C   UNL     1      -6.524   4.571   0.330  0.00  0.00    +0.002 A 
ATOM     32  C   UNL     1      -7.436   5.314   1.059  0.00  0.00    +0.015 A 
ATOM     33  C   UNL     1      -7.043   6.490   1.675  0.00  0.00    +0.019 A 
ATOM     34  C   UNL     1      -5.739   6.928   1.565  0.00  0.00    +0.028 A 
ATOM     35 BR   UNL     1      -8.297   7.498   2.670  0.00  0.00    -0.050 Br
ENDBRANCH  26  29
ENDBRANCH   1  25
TORSDOF 7
