REMARK  Name = ZINC49684211
REMARK  3 active torsions:
REMARK  status: ('A' for Active; 'I' for Inactive)
REMARK    1  A    between atoms: C_6  and  C_7
REMARK    2  A    between atoms: C_10  and  C_12
REMARK    3  A    between atoms: N_14  and  C_15
REMARK                            x       y       z     vdW  Elec       q    Type
REMARK                         _______ _______ _______ _____ _____    ______ ____
ROOT
ATOM      1  C   UNL     1      -1.265  -0.763   0.011  0.00  0.00    +0.249 A 
ATOM      2  N   UNL     1      -2.480  -0.252   0.020  0.00  0.00    -0.107 NA
ATOM      3  N   UNL     1      -3.343  -1.206   0.024  0.00  0.00    -0.102 NA
ATOM      4  C   UNL     1      -2.716  -2.361   0.018  0.00  0.00    +0.304 A 
ATOM      5  O   UNL     1      -1.390  -2.102   0.005  0.00  0.00    -0.412 OA
ENDROOT
BRANCH   1  11
ATOM      6  C   UNL     1      -0.017   1.393   0.010  0.00  0.00    +0.014 A 
ATOM      7  C   UNL     1       1.169   2.095   0.002  0.00  0.00    +0.021 A 
ATOM      8  C   UNL     1       2.378   1.419  -0.013  0.00  0.00    +0.041 A 
ATOM      9  C   UNL     1       2.404   0.034  -0.022  0.00  0.00    +0.021 A 
ATOM     10  C   UNL     1       1.224  -0.680  -0.014  0.00  0.00    +0.014 A 
ATOM     11  C   UNL     1       0.002  -0.004   0.002  0.00  0.00    +0.039 A 
ATOM     12 CL   UNL     1       3.868   2.311  -0.024  0.00  0.00    -0.084 Cl
ENDBRANCH   1  11
BRANCH   4  13
ATOM     13  C   UNL     1      -3.343  -3.693   0.021  0.00  0.00    +0.301 C 
ATOM     14  O   UNL     1      -2.649  -4.692   0.015  0.00  0.00    -0.265 OA
ATOM     15  N   UNL     1      -4.686  -3.806   0.030  0.00  0.00    -0.305 N 
ATOM     16  H   UNL     1      -5.239  -3.009   0.034  0.00  0.00    +0.149 HD
BRANCH  15  17
ATOM     17  C   UNL     1      -5.310  -5.131   0.032  0.00  0.00    +0.073 C 
ATOM     18  C   UNL     1      -5.422  -5.645  -1.405  0.00  0.00    +0.022 C 
ATOM     19  C   UNL     1      -6.074  -7.029  -1.402  0.00  0.00    +0.002 C 
ATOM     20  C   UNL     1      -7.470  -6.934  -0.783  0.00  0.00    +0.000 C 
ATOM     21  C   UNL     1      -7.357  -6.421   0.654  0.00  0.00    +0.002 C 
ATOM     22  C   UNL     1      -6.706  -5.037   0.651  0.00  0.00    +0.022 C 
ENDBRANCH  15  17
ENDBRANCH   4  13
TORSDOF 3
