REMARK  Name = ZINC01740426
REMARK  7 active torsions:
REMARK  status: ('A' for Active; 'I' for Inactive)
REMARK    1  A    between atoms: C_1  and  C_2
REMARK    2  A    between atoms: C_2  and  O_3
REMARK    3  A    between atoms: O_3  and  C_4
REMARK    4  A    between atoms: C_4  and  C_6
REMARK    5  A    between atoms: C_6  and  N_7
REMARK    6  A    between atoms: C_15  and  N_25
REMARK    7  A    between atoms: C_17  and  C_19
REMARK                            x       y       z     vdW  Elec       q    Type
REMARK                         _______ _______ _______ _____ _____    ______ ____
ROOT
ATOM      1  N   UNL     1       9.338   5.184   1.515  0.00  0.00    -0.289 N 
ATOM      2  C   UNL     1       9.368   3.943   0.989  0.00  0.00    +0.303 C 
ATOM      3  O   UNL     1      10.281   3.188   1.261  0.00  0.00    -0.253 OA
ATOM      4  N   UNL     1       8.384   3.539   0.161  0.00  0.00    -0.281 N 
ATOM      5  C   UNL     1       8.444   2.235  -0.519  0.00  0.00    +0.116 C 
ATOM      6  C   UNL     1       7.283   1.381  -0.008  0.00  0.00    +0.075 C 
ATOM      7  C   UNL     1       6.000   2.165  -0.017  0.00  0.00    +0.053 A 
ATOM      8  C   UNL     1       5.964   3.539  -0.046  0.00  0.00    +0.031 A 
ATOM      9  C   UNL     1       4.719   4.180  -0.031  0.00  0.00    +0.130 A 
ATOM     10  N   UNL     1       3.613   3.447  -0.005  0.00  0.00    -0.212 NA
ATOM     11  C   UNL     1       3.687   2.124   0.019  0.00  0.00    +0.162 A 
ATOM     12  N   UNL     1       4.851   1.494   0.012  0.00  0.00    -0.232 NA
ATOM     13  C   UNL     1       7.210   4.382  -0.098  0.00  0.00    +0.149 C 
ATOM     14  H   UNL     1       8.575   5.760   1.356  0.00  0.00    +0.151 HD
ENDROOT
BRANCH  11  15
ATOM     15  C   UNL     1       2.435   1.329   0.047  0.00  0.00    +0.019 A 
ATOM     16  C   UNL     1       1.199   1.973   0.055  0.00  0.00    +0.011 A 
ATOM     17  C   UNL     1       0.037   1.228   0.082  0.00  0.00    +0.001 A 
ATOM     18  C   UNL     1       0.098  -0.153   0.101  0.00  0.00    +0.000 A 
ATOM     19  C   UNL     1       1.322  -0.797   0.093  0.00  0.00    +0.001 A 
ATOM     20  C   UNL     1       2.490  -0.063   0.067  0.00  0.00    +0.011 A 
ENDBRANCH  11  15
BRANCH   9  21
ATOM     21  N   UNL     1       4.643   5.564  -0.049  0.00  0.00    -0.315 N 
ATOM     22  C   UNL     1       4.151   6.080   1.235  0.00  0.00    +0.106 C 
ATOM     23  C   UNL     1       4.218   7.609   1.230  0.00  0.00    +0.019 C 
ATOM     24  C   UNL     1       3.363   8.149   0.080  0.00  0.00    +0.003 C 
ATOM     25  C   UNL     1       3.865   7.558  -1.240  0.00  0.00    +0.019 C 
ATOM     26  C   UNL     1       3.809   6.030  -1.164  0.00  0.00    +0.106 C 
ENDBRANCH   9  21
BRANCH   1  27
ATOM     27  C   UNL     1      10.460   5.662   2.327  0.00  0.00    +0.226 C 
BRANCH  27  28
ATOM     28  C   UNL     1      10.181   7.068   2.791  0.00  0.00    +0.324 C 
ATOM     29  O   UNL     1       9.151   7.615   2.476  0.00  0.00    -0.249 OA
BRANCH  28  30
ATOM     30  O   UNL     1      11.078   7.713   3.554  0.00  0.00    -0.464 OA
BRANCH  30  32
ATOM     31  C   UNL     1      11.875   9.633   4.822  0.00  0.00    +0.048 C 
ATOM     32  C   UNL     1      10.742   9.065   3.965  0.00  0.00    +0.229 C 
ENDBRANCH  30  32
ENDBRANCH  28  30
ENDBRANCH  27  28
ENDBRANCH   1  27
TORSDOF 6
