REMARK  Name = ZINC14230794
REMARK  9 active torsions:
REMARK  status: ('A' for Active; 'I' for Inactive)
REMARK    1  A    between atoms: C_1  and  C_2
REMARK    2  A    between atoms: N_5  and  S_22
REMARK    3  A    between atoms: N_8  and  S_9
REMARK    4  A    between atoms: S_9  and  N_12
REMARK    5  A    between atoms: C_14  and  C_21
REMARK    6  A    between atoms: C_17  and  C_20
REMARK    7  A    between atoms: S_22  and  N_25
REMARK    8  A    between atoms: C_27  and  C_34
REMARK    9  A    between atoms: C_30  and  C_33
REMARK                            x       y       z     vdW  Elec       q    Type
REMARK                         _______ _______ _______ _____ _____    ______ ____
ROOT
ATOM      1  C   UNL     1       1.428   0.287   3.429  0.00  0.00    +0.027 C 
ATOM      2  C   UNL     1       1.299  -0.716   2.281  0.00  0.00    +0.094 C 
ATOM      3  C   UNL     1       1.323  -2.139   2.841  0.00  0.00    +0.131 C 
ATOM      4  N   UNL     1       0.068  -2.381   3.566  0.00  0.00    -0.164 NA
ATOM      5  C   UNL     1      -1.207  -2.172   2.865  0.00  0.00    +0.127 C 
ATOM      6  C   UNL     1      -1.231  -0.744   2.307  0.00  0.00    +0.128 C 
ATOM      7  N   UNL     1       0.024  -0.502   1.581  0.00  0.00    -0.161 NA
ENDROOT
BRANCH   7   8
ATOM      8  S   UNL     1       0.002  -0.004   0.002  0.00  0.00    +0.100 S 
ATOM      9  O   UNL     1      -1.243  -0.424  -0.539  0.00  0.00    -0.141 OA
ATOM     10  O   UNL     1       1.248  -0.390  -0.563  0.00  0.00    -0.141 OA
BRANCH   8  11
ATOM     11  N   UNL     1      -0.020   1.652   0.011  0.00  0.00    -0.161 NA
ATOM     12  C   UNL     1       1.231   2.426   0.003  0.00  0.00    +0.142 C 
ATOM     13  C   UNL     1       1.145   3.473  -1.114  0.00  0.00    +0.131 C 
ATOM     14  O   UNL     1      -0.064   4.221  -0.966  0.00  0.00    -0.371 OA
ATOM     15  C   UNL     1      -1.255   3.440  -1.091  0.00  0.00    +0.131 C 
ATOM     16  C   UNL     1      -1.292   2.392   0.021  0.00  0.00    +0.142 C 
ATOM     17  C   UNL     1      -2.479   4.352  -0.978  0.00  0.00    +0.039 C 
ATOM     18  C   UNL     1       2.345   4.417  -1.023  0.00  0.00    +0.039 C 
ENDBRANCH   8  11
ENDBRANCH   7   8
BRANCH   4  19
ATOM     19  S   UNL     1       0.090  -2.880   5.145  0.00  0.00    +0.100 S 
ATOM     20  O   UNL     1       1.335  -2.460   5.686  0.00  0.00    -0.141 OA
ATOM     21  O   UNL     1      -1.156  -2.494   5.710  0.00  0.00    -0.141 OA
BRANCH  19  22
ATOM     22  N   UNL     1       0.112  -4.536   5.135  0.00  0.00    -0.161 NA
ATOM     23  C   UNL     1      -1.139  -5.310   5.148  0.00  0.00    +0.142 C 
ATOM     24  C   UNL     1      -1.074  -6.345   4.013  0.00  0.00    +0.131 C 
ATOM     25  O   UNL     1       0.137  -7.094   4.130  0.00  0.00    -0.371 OA
ATOM     26  C   UNL     1       1.325  -6.312   3.990  0.00  0.00    +0.131 C 
ATOM     27  C   UNL     1       1.384  -5.276   5.118  0.00  0.00    +0.142 C 
ATOM     28  C   UNL     1       2.551  -7.225   4.070  0.00  0.00    +0.039 C 
ATOM     29  C   UNL     1      -1.104  -5.629   2.661  0.00  0.00    +0.039 C 
ENDBRANCH  19  22
ENDBRANCH   4  19
TORSDOF 4
