REMARK  Name = ZINC34900777
REMARK  7 active torsions:
REMARK  status: ('A' for Active; 'I' for Inactive)
REMARK    1  A    between atoms: C_1  and  C_2
REMARK    2  A    between atoms: C_7  and  C_8
REMARK    3  A    between atoms: N_10  and  C_11
REMARK    4  A    between atoms: C_17  and  N_19
REMARK    5  A    between atoms: C_20  and  C_22
REMARK    6  A    between atoms: N_27  and  S_29
REMARK    7  A    between atoms: S_29  and  C_32
REMARK                            x       y       z     vdW  Elec       q    Type
REMARK                         _______ _______ _______ _____ _____    ______ ____
ROOT
ATOM      1  N   UNL     1      -1.169  -1.336   5.873  0.00  0.00    -0.310 N 
ATOM      2  C   UNL     1      -1.559  -2.503   6.424  0.00  0.00    +0.218 C 
ATOM      3  O   UNL     1      -0.770  -3.165   7.063  0.00  0.00    -0.275 OA
ATOM      4  H   UNL     1      -1.801  -0.806   5.362  0.00  0.00    +0.149 HD
ENDROOT
BRANCH   1  10
ATOM      5  C   UNL     1       0.578   0.067   4.894  0.00  0.00    +0.093 C 
ATOM      6  C   UNL     1       2.016   0.556   5.076  0.00  0.00    +0.024 C 
ATOM      7  C   UNL     1       2.134   1.311   6.401  0.00  0.00    +0.002 C 
ATOM      8  C   UNL     1       1.764   0.377   7.555  0.00  0.00    +0.002 C 
ATOM      9  C   UNL     1       0.326  -0.113   7.373  0.00  0.00    +0.024 C 
ATOM     10  C   UNL     1       0.207  -0.868   6.048  0.00  0.00    +0.093 C 
BRANCH   5  13
ATOM     11  C   UNL     1       0.242   0.021   2.481  0.00  0.00    +0.245 C 
ATOM     12  O   UNL     1       0.135   1.232   2.503  0.00  0.00    -0.270 OA
ATOM     13  N   UNL     1       0.465  -0.656   3.625  0.00  0.00    -0.307 N 
ATOM     14  H   UNL     1       0.551  -1.622   3.607  0.00  0.00    +0.149 HD
BRANCH  11  21
ATOM     15  C   UNL     1      -0.511   1.452   0.082  0.00  0.00    +0.044 C 
ATOM     16  C   UNL     1      -0.234  -0.028   0.036  0.00  0.00    -0.038 A 
ATOM     17  C   UNL     1      -0.334  -0.714  -1.157  0.00  0.00    +0.004 A 
ATOM     18  C   UNL     1      -0.080  -2.073  -1.200  0.00  0.00    +0.000 A 
ATOM     19  C   UNL     1       0.275  -2.754  -0.049  0.00  0.00    +0.001 A 
ATOM     20  C   UNL     1       0.378  -2.080   1.150  0.00  0.00    +0.013 A 
ATOM     21  C   UNL     1       0.128  -0.708   1.200  0.00  0.00    +0.040 A 
ENDBRANCH  11  21
ENDBRANCH   5  13
ENDBRANCH   1  10
BRANCH   2  22
ATOM     22  C   UNL     1      -2.976  -2.985   6.245  0.00  0.00    +0.091 C 
ATOM     23  C   UNL     1      -3.269  -3.165   4.753  0.00  0.00    +0.015 C 
ATOM     24  C   UNL     1      -4.718  -3.623   4.569  0.00  0.00    +0.018 C 
ATOM     25  C   UNL     1      -4.915  -4.972   5.267  0.00  0.00    +0.109 C 
ATOM     26  N   UNL     1      -4.497  -4.844   6.670  0.00  0.00    -0.176 NA
ATOM     27  C   UNL     1      -3.154  -4.326   6.963  0.00  0.00    +0.122 C 
BRANCH  26  28
ATOM     28  S   UNL     1      -5.521  -5.276   7.898  0.00  0.00    +0.061 S 
ATOM     29  O   UNL     1      -5.105  -4.551   9.047  0.00  0.00    -0.153 OA
ATOM     30  O   UNL     1      -6.840  -5.186   7.377  0.00  0.00    -0.153 OA
BRANCH  28  31
ATOM     31  C   UNL     1      -5.231  -6.979   8.245  0.00  0.00    +0.106 A 
ATOM     32  C   UNL     1      -5.958  -7.952   7.562  0.00  0.00    +0.029 A 
ATOM     33  C   UNL     1      -5.759  -9.276   7.807  0.00  0.00    +0.010 A 
ATOM     34  C   UNL     1      -4.805  -9.671   8.760  0.00  0.00    -0.018 A 
ATOM     35  C   UNL     1      -4.571 -11.028   9.039  0.00  0.00    +0.008 A 
ATOM     36  C   UNL     1      -3.638 -11.373   9.969  0.00  0.00    +0.001 A 
ATOM     37  C   UNL     1      -2.910 -10.400  10.650  0.00  0.00    +0.001 A 
ATOM     38  C   UNL     1      -3.110  -9.076  10.406  0.00  0.00    +0.008 A 
ATOM     39  C   UNL     1      -4.064  -8.681   9.453  0.00  0.00    -0.016 A 
ATOM     40  C   UNL     1      -4.295  -7.324   9.171  0.00  0.00    +0.037 A 
ENDBRANCH  28  31
ENDBRANCH  26  28
ENDBRANCH   2  22
TORSDOF 6
