REMARK  Name = ZINC15005836
REMARK  9 active torsions:
REMARK  status: ('A' for Active; 'I' for Inactive)
REMARK    1  A    between atoms: C_1  and  O_2
REMARK    2  A    between atoms: O_2  and  C_3
REMARK    3  A    between atoms: C_8  and  C_9
REMARK    4  A    between atoms: C_9  and  N_73
REMARK    5  A    between atoms: C_15  and  C_18
REMARK    6  A    between atoms: C_18  and  N_19
REMARK    7  A    between atoms: C_20  and  C_22
REMARK    8  A    between atoms: C_22  and  N_23
REMARK    9  A    between atoms: C_25  and  C_30
REMARK                            x       y       z     vdW  Elec       q    Type
REMARK                         _______ _______ _______ _____ _____    ______ ____
ROOT
ATOM      1  C   UNL     1      -3.113  -7.025  -6.947  0.00  0.00    -0.076 C 
ATOM      2  C   UNL     1      -2.262  -8.109  -6.279  0.00  0.00    +0.016 C 
ATOM      3  C   UNL     1      -0.839  -7.585  -6.086  0.00  0.00    +0.067 C 
ATOM      4  C   UNL     1       0.039  -8.686  -5.467  0.00  0.00    +0.037 C 
ATOM      5  C   UNL     1       0.478  -8.097  -4.104  0.00  0.00    +0.036 C 
ATOM      6  C   UNL     1      -0.599  -7.009  -3.859  0.00  0.00    +0.136 C 
ATOM      7  O   UNL     1      -0.846  -6.475  -5.178  0.00  0.00    -0.369 OA
ATOM      8  C   UNL     1      -0.256  -7.154  -7.431  0.00  0.00    +0.016 C 
ATOM      9  C   UNL     1      -1.169  -6.101  -8.064  0.00  0.00    -0.076 C 
ATOM     10  N   UNL     1      -2.514  -6.686  -8.256  0.00  0.00    +0.383 N 
ATOM     11  H   UNL     1      -2.427  -7.543  -8.815  0.00  0.00    -0.081 HD
ENDROOT
BRANCH  10  12
ATOM     12  C   UNL     1      -3.381  -5.730  -8.975  0.00  0.00    -0.039 C 
BRANCH  12  18
ATOM     13  C   UNL     1      -2.532  -5.950 -11.324  0.00  0.00    +0.121 A 
ATOM     14  C   UNL     1      -1.846  -5.450 -12.421  0.00  0.00    +0.046 A 
ATOM     15  C   UNL     1      -1.271  -4.195 -12.361  0.00  0.00    +0.004 A 
ATOM     16  C   UNL     1      -1.377  -3.439 -11.208  0.00  0.00    +0.000 A 
ATOM     17  C   UNL     1      -2.064  -3.933 -10.116  0.00  0.00    +0.005 A 
ATOM     18  C   UNL     1      -2.637  -5.190 -10.169  0.00  0.00    -0.022 A 
BRANCH  13  20
ATOM     19  C   UNL     1      -2.950  -7.911 -12.601  0.00  0.00    +0.277 C 
ATOM     20  O   UNL     1      -3.098  -7.184 -11.380  0.00  0.00    -0.495 OA
ENDBRANCH  13  20
ENDBRANCH  12  18
ENDBRANCH  10  12
BRANCH   6  21
ATOM     21  C   UNL     1      -0.062  -5.920  -2.928  0.00  0.00    +0.135 C 
BRANCH  21  22
ATOM     22  N   UNL     1      -1.103  -4.913  -2.703  0.00  0.00    -0.312 N 
ATOM     23  C   UNL     1      -0.854  -3.852  -1.910  0.00  0.00    +0.230 C 
ATOM     24  O   UNL     1       0.232  -3.731  -1.383  0.00  0.00    -0.274 OA
ATOM     25  H   UNL     1      -1.971  -5.011  -3.124  0.00  0.00    +0.149 HD
BRANCH  23  26
ATOM     26  C   UNL     1      -1.924  -2.817  -1.678  0.00  0.00    +0.203 C 
BRANCH  26  27
ATOM     27  N   UNL     1      -1.410  -1.774  -0.787  0.00  0.00    -0.292 N 
ATOM     28  C   UNL     1      -0.724  -0.560  -1.243  0.00  0.00    +0.117 C 
ATOM     29  C   UNL     1       0.002  -0.004   0.002  0.00  0.00    +0.045 C 
ATOM     30  C   UNL     1      -0.861  -0.576   1.151  0.00  0.00    +0.105 C 
ATOM     31  C   UNL     1      -1.506  -1.806   0.553  0.00  0.00    +0.217 C 
ATOM     32  O   UNL     1      -2.034  -2.693   1.191  0.00  0.00    -0.276 OA
BRANCH  29  33
ATOM     33  C   UNL     1      -0.018   1.503   0.010  0.00  0.00    -0.042 A 
ATOM     34  C   UNL     1      -1.225   2.178   0.020  0.00  0.00    +0.004 A 
ATOM     35  C   UNL     1      -1.244   3.560   0.032  0.00  0.00    +0.000 A 
ATOM     36  C   UNL     1      -0.056   4.267   0.025  0.00  0.00    +0.000 A 
ATOM     37  C   UNL     1       1.151   3.592   0.010  0.00  0.00    +0.000 A 
ATOM     38  C   UNL     1       1.169   2.210   0.003  0.00  0.00    +0.004 A 
ENDBRANCH  29  33
ENDBRANCH  26  27
ENDBRANCH  23  26
ENDBRANCH  21  22
ENDBRANCH   6  21
TORSDOF 8
