REMARK  Name = ZINC13570618
REMARK  11 active torsions:
REMARK  status: ('A' for Active; 'I' for Inactive)
REMARK    1  A    between atoms: C_1  and  C_2
REMARK    2  A    between atoms: C_2  and  O_3
REMARK    3  A    between atoms: O_3  and  C_4
REMARK    4  A    between atoms: C_7  and  C_10
REMARK    5  A    between atoms: C_10  and  C_11
REMARK    6  A    between atoms: N_13  and  C_14
REMARK    7  A    between atoms: C_14  and  C_16
REMARK    8  A    between atoms: C_14  and  C_20
REMARK    9  A    between atoms: C_16  and  C_17
REMARK   10  A    between atoms: C_17  and  S_18
REMARK   11  A    between atoms: S_18  and  C_19
REMARK                            x       y       z     vdW  Elec       q    Type
REMARK                         _______ _______ _______ _____ _____    ______ ____
ROOT
ATOM      1  C   UNL     1       3.963  -8.308   0.472  0.00  0.00    +0.160 C 
ENDROOT
BRANCH   1   2
ATOM      2  C   UNL     1       3.751  -9.771   0.176  0.00  0.00    +0.236 C 
ATOM      3  O   UNL     1       2.823 -10.364   0.684  0.00  0.00    -0.274 OA
ATOM      4  N   UNL     1       4.593 -10.420  -0.652  0.00  0.00    -0.300 N 
ATOM      5  C   UNL     1       5.788  -9.748  -1.181  0.00  0.00    +0.110 C 
ATOM      6  C   UNL     1       5.782  -9.863  -2.709  0.00  0.00    +0.047 C 
ATOM      7  C   UNL     1       5.657 -11.334  -3.106  0.00  0.00    +0.064 C 
ATOM      8  C   UNL     1       4.343 -11.905  -2.572  0.00  0.00    +0.047 C 
ATOM      9  C   UNL     1       4.337 -11.814  -1.038  0.00  0.00    +0.110 C 
ATOM     10  C   UNL     1       5.692 -11.458  -4.608  0.00  0.00    +0.057 A 
ATOM     11  C   UNL     1       6.782 -11.877  -5.291  0.00  0.00    +0.039 A 
ATOM     12  N   UNL     1       6.457 -11.868  -6.610  0.00  0.00    -0.349 N 
ATOM     13  H   UNL     1       7.033 -12.120  -7.348  0.00  0.00    +0.166 HD
ATOM     14  C   UNL     1       5.175 -11.443  -6.697  0.00  0.00    +0.171 A 
ATOM     15  N   UNL     1       4.728 -11.200  -5.492  0.00  0.00    -0.348 N 
ATOM     16  C   UNL     1       8.081 -12.260  -4.629  0.00  0.00    +0.070 C 
ATOM     17  C   UNL     1       8.056 -11.720  -3.192  0.00  0.00    +0.088 C 
ATOM     18  N   UNL     1       6.788 -12.092  -2.548  0.00  0.00    -0.305 NA
ATOM     19  H   UNL     1       6.842 -11.975  -1.547  0.00  0.00    +0.123 HD
ATOM     20  H   UNL     1       3.837 -10.883  -5.276  0.00  0.00    +0.166 HD
ENDBRANCH   1   2
BRANCH   1  23
ATOM     21  C   UNL     1       2.489  -6.386   0.737  0.00  0.00    +0.218 C 
ATOM     22  O   UNL     1       3.351  -5.694   0.238  0.00  0.00    -0.275 OA
ATOM     23  N   UNL     1       2.697  -7.708   0.899  0.00  0.00    -0.304 N 
ATOM     24  H   UNL     1       2.007  -8.262   1.298  0.00  0.00    +0.149 HD
BRANCH  21  25
ATOM     25  C   UNL     1       1.187  -5.768   1.176  0.00  0.00    +0.130 C 
BRANCH  25  29
ATOM     26  C   UNL     1       1.250  -1.575   0.355  0.00  0.00    +0.121 A 
ATOM     27  C   UNL     1       0.775  -2.463  -0.599  0.00  0.00    +0.046 A 
ATOM     28  C   UNL     1       0.756  -3.818  -0.332  0.00  0.00    +0.007 A 
ATOM     29  C   UNL     1       1.209  -4.290   0.886  0.00  0.00    -0.038 A 
ATOM     30  C   UNL     1       1.682  -3.407   1.840  0.00  0.00    +0.007 A 
ATOM     31  C   UNL     1       1.709  -2.051   1.575  0.00  0.00    +0.046 A 
BRANCH  26  32
ATOM     32  O   UNL     1       1.270  -0.241   0.094  0.00  0.00    -0.492 OA
BRANCH  32  34
ATOM     33  C   UNL     1       0.883   1.700  -1.292  0.00  0.00    +0.048 C 
ATOM     34  C   UNL     1       0.782   0.177  -1.182  0.00  0.00    +0.225 C 
ENDBRANCH  32  34
ENDBRANCH  26  32
ENDBRANCH  25  29
ENDBRANCH  21  25
ENDBRANCH   1  23
BRANCH   1  35
ATOM     35  C   UNL     1       5.000  -8.158   1.587  0.00  0.00    +0.042 C 
BRANCH  35  36
ATOM     36  C   UNL     1       5.320  -6.676   1.790  0.00  0.00    +0.071 C 
BRANCH  36  37
ATOM     37  S   UNL     1       6.549  -6.498   3.112  0.00  0.00    -0.164 S 
ATOM     38  C   UNL     1       6.815  -4.707   3.226  0.00  0.00    +0.084 C 
ENDBRANCH  36  37
ENDBRANCH  35  36
ENDBRANCH   1  35
TORSDOF 9
