REMARK  Name = ZINC12197185
REMARK  5 active torsions:
REMARK  status: ('A' for Active; 'I' for Inactive)
REMARK    1  A    between atoms: C_5  and  C_7
REMARK    2  A    between atoms: N_9  and  C_10
REMARK    3  A    between atoms: C_10  and  C_11
REMARK    4  A    between atoms: C_11  and  C_13
REMARK    5  A    between atoms: C_11  and  N_47
REMARK                            x       y       z     vdW  Elec       q    Type
REMARK                         _______ _______ _______ _____ _____    ______ ____
ROOT
ATOM      1  C   UNL     1      -2.530  -2.787  -0.053  0.00  0.00    -0.020 C 
ENDROOT
BRANCH   1   2
ATOM      2  C   UNL     1      -2.458  -4.292  -0.091  0.00  0.00    -0.056 A 
ATOM      3  C   UNL     1      -2.219  -4.941  -1.288  0.00  0.00    +0.006 A 
ATOM      4  C   UNL     1      -2.148  -6.322  -1.327  0.00  0.00    +0.050 A 
ATOM      5  C   UNL     1      -2.327  -7.058  -0.167  0.00  0.00    +0.166 A 
ATOM      6  C   UNL     1      -2.573  -6.404   1.038  0.00  0.00    +0.166 A 
ATOM      7  C   UNL     1      -2.638  -5.021   1.070  0.00  0.00    +0.051 A 
ATOM      8  O   UNL     1      -2.712  -7.340   2.021  0.00  0.00    -0.453 OA
ATOM      9  C   UNL     1      -2.144  -8.550   1.484  0.00  0.00    +0.466 C 
ATOM     10  O   UNL     1      -2.312  -8.404   0.062  0.00  0.00    -0.453 OA
ENDBRANCH   1   2
BRANCH   1  15
ATOM     11  C   UNL     1      -4.622  -2.842  -1.297  0.00  0.00    -0.078 C 
ATOM     12  C   UNL     1      -5.352  -1.859  -2.246  0.00  0.00    -0.020 C 
ATOM     13  C   UNL     1      -4.735  -0.493  -1.870  0.00  0.00    -0.020 C 
ATOM     14  C   UNL     1      -3.385  -0.829  -1.210  0.00  0.00    -0.078 C 
ATOM     15  N   UNL     1      -3.260  -2.287  -1.256  0.00  0.00    +0.385 N 
ATOM     16  H   UNL     1      -2.747  -2.564  -2.101  0.00  0.00    -0.081 HD
ENDBRANCH   1  15
BRANCH   1  17
ATOM     17  C   UNL     1      -1.113  -2.210  -0.033  0.00  0.00    +0.094 C 
BRANCH  17  20
ATOM     18  C   UNL     1       0.848  -2.279   1.411  0.00  0.00    +0.245 C 
ATOM     19  O   UNL     1       1.468  -1.687   0.548  0.00  0.00    -0.270 OA
ATOM     20  N   UNL     1      -0.449  -2.588   1.217  0.00  0.00    -0.313 N 
ATOM     21  H   UNL     1      -0.944  -3.060   1.905  0.00  0.00    +0.149 HD
BRANCH  18  26
ATOM     22  C   UNL     1       1.440  -3.692   4.840  0.00  0.00    +0.001 A 
ATOM     23  C   UNL     1       2.773  -3.374   5.036  0.00  0.00    +0.001 A 
ATOM     24  C   UNL     1       3.481  -2.701   4.058  0.00  0.00    +0.016 A 
ATOM     25  C   UNL     1       2.862  -2.342   2.876  0.00  0.00    +0.030 A 
ATOM     26  C   UNL     1       1.518  -2.660   2.672  0.00  0.00    +0.051 A 
ATOM     27  C   UNL     1       0.808  -3.335   3.667  0.00  0.00    +0.014 A 
ATOM     28 BR   UNL     1       3.833  -1.421   1.539  0.00  0.00    -0.050 Br
ENDBRANCH  18  26
ENDBRANCH  17  20
ENDBRANCH   1  17
TORSDOF 5
