REMARK  Name = ZINC00885908
REMARK  9 active torsions:
REMARK  status: ('A' for Active; 'I' for Inactive)
REMARK    1  A    between atoms: C_4  and  C_7
REMARK    2  A    between atoms: C_10  and  C_13
REMARK    3  A    between atoms: N_15  and  C_16
REMARK    4  A    between atoms: N_15  and  C_22
REMARK    5  A    between atoms: C_16  and  C_17
REMARK    6  A    between atoms: C_22  and  C_24
REMARK    7  A    between atoms: C_22  and  C_29
REMARK    8  A    between atoms: N_31  and  C_32
REMARK    9  A    between atoms: C_32  and  C_33
REMARK                            x       y       z     vdW  Elec       q    Type
REMARK                         _______ _______ _______ _____ _____    ______ ____
ROOT
ATOM      1  C   UNL     1       6.059  -3.588  -0.400  0.00  0.00    +0.264 C 
ATOM      2  O   UNL     1       7.160  -3.859  -0.842  0.00  0.00    -0.268 OA
ATOM      3  N   UNL     1       5.249  -4.571   0.041  0.00  0.00    -0.275 N 
ENDROOT
BRANCH   1   7
ATOM      4  C   UNL     1       4.313  -0.398  -0.146  0.00  0.00    +0.047 A 
ATOM      5  C   UNL     1       5.595   0.043  -0.392  0.00  0.00    +0.028 A 
ATOM      6  C   UNL     1       6.412  -1.079  -0.518  0.00  0.00    +0.033 A 
ATOM      7  C   UNL     1       5.614  -2.192  -0.347  0.00  0.00    +0.102 A 
ATOM      8  N   UNL     1       4.327  -1.761  -0.114  0.00  0.00    -0.351 N 
ATOM      9  H   UNL     1       3.559  -2.332   0.045  0.00  0.00    +0.166 HD
BRANCH   4  13
ATOM     10  C   UNL     1       0.903   2.068   0.427  0.00  0.00    +0.000 A 
ATOM     11  C   UNL     1       2.136   2.645   0.183  0.00  0.00    +0.001 A 
ATOM     12  C   UNL     1       3.248   1.850  -0.004  0.00  0.00    +0.010 A 
ATOM     13  C   UNL     1       3.126   0.460   0.054  0.00  0.00    -0.002 A 
ATOM     14  C   UNL     1       1.879  -0.115   0.302  0.00  0.00    +0.010 A 
ATOM     15  C   UNL     1       0.775   0.691   0.487  0.00  0.00    +0.001 A 
ENDBRANCH   4  13
ENDBRANCH   1   7
BRANCH   3  16
ATOM     16  C   UNL     1       3.887  -4.256   0.480  0.00  0.00    +0.151 C 
BRANCH  16  17
ATOM     17  C   UNL     1       2.973  -4.202  -0.716  0.00  0.00    +0.007 A 
ATOM     18  C   UNL     1       2.104  -5.139  -1.170  0.00  0.00    +0.013 A 
ATOM     19  C   UNL     1       1.358  -4.869  -2.301  0.00  0.00    +0.008 A 
ATOM     20  C   UNL     1       1.517  -3.675  -2.925  0.00  0.00    +0.045 A 
ATOM     21  S   UNL     1       2.747  -2.885  -1.900  0.00  0.00    -0.100 S 
ENDBRANCH  16  17
ENDBRANCH   3  16
BRANCH   3  22
ATOM     22  C   UNL     1       5.730  -5.954   0.081  0.00  0.00    +0.199 C 
BRANCH  22  23
ATOM     23  C   UNL     1       5.535  -6.514   1.466  0.00  0.00    +0.019 A 
ATOM     24  C   UNL     1       6.455  -7.041   2.311  0.00  0.00    +0.013 A 
ATOM     25  C   UNL     1       6.043  -7.498   3.549  0.00  0.00    +0.008 A 
ATOM     26  C   UNL     1       4.733  -7.406   3.882  0.00  0.00    +0.045 A 
ATOM     27  S   UNL     1       4.034  -6.648   2.424  0.00  0.00    -0.099 S 
ENDBRANCH  22  23
BRANCH  22  28
ATOM     28  C   UNL     1       4.955  -6.784  -0.910  0.00  0.00    +0.239 C 
ATOM     29  O   UNL     1       4.244  -6.243  -1.730  0.00  0.00    -0.273 OA
ATOM     30  N   UNL     1       5.053  -8.128  -0.885  0.00  0.00    -0.311 N 
ATOM     31  H   UNL     1       5.621  -8.561  -0.229  0.00  0.00    +0.149 HD
BRANCH  30  32
ATOM     32  C   UNL     1       4.300  -8.935  -1.848  0.00  0.00    +0.135 C 
BRANCH  32  33
ATOM     33  C   UNL     1       4.586 -10.418  -1.605  0.00  0.00    +0.135 C 
ATOM     34  C   UNL     1       3.825 -11.289  -2.637  0.00  0.00    +0.035 C 
ATOM     35  C   UNL     1       4.707 -12.568  -2.650  0.00  0.00    +0.031 C 
ATOM     36  C   UNL     1       6.122 -11.992  -2.432  0.00  0.00    +0.160 C 
ATOM     37  O   UNL     1       5.977 -10.700  -1.826  0.00  0.00    -0.375 OA
ENDBRANCH  32  33
ENDBRANCH  30  32
ENDBRANCH  22  28
ENDBRANCH   3  22
TORSDOF 9
