REMARK  Name = ZINC33960308
REMARK  2 active torsions:
REMARK  status: ('A' for Active; 'I' for Inactive)
REMARK    1  A    between atoms: C_3  and  C_8
REMARK    2  A    between atoms: N_9  and  N_10
REMARK                            x       y       z     vdW  Elec       q    Type
REMARK                         _______ _______ _______ _____ _____    ______ ____
ROOT
ATOM      1  N   UNL     1       5.991   2.237  -0.044  0.00  0.00    -0.220 N 
ATOM      2  C   UNL     1       7.203   1.556  -0.059  0.00  0.00    +0.159 A 
ATOM      3  C   UNL     1       8.410   2.283  -0.062  0.00  0.00    +0.050 A 
ATOM      4  C   UNL     1       9.600   1.628  -0.076  0.00  0.00    +0.053 A 
ATOM      5  C   UNL     1       9.608   0.220  -0.089  0.00  0.00    +0.178 A 
ATOM      6  N   UNL     1      10.568  -0.691  -0.104  0.00  0.00    -0.128 NA
ATOM      7  N   UNL     1      10.040  -1.865  -0.111  0.00  0.00    -0.136 NA
ATOM      8  C   UNL     1       8.732  -1.772  -0.100  0.00  0.00    +0.249 A 
ATOM      9  N   UNL     1       8.415  -0.460  -0.086  0.00  0.00    -0.198 N 
ATOM     10  N   UNL     1       7.208   0.243  -0.066  0.00  0.00    -0.147 NA
ATOM     11  H   UNL     1       5.980   3.207  -0.039  0.00  0.00    +0.176 HD
ENDROOT
BRANCH   1  13
ATOM     12  C   UNL     1       3.654   2.159  -0.022  0.00  0.00    +0.138 C 
ATOM     13  N   UNL     1       4.786   1.523  -0.036  0.00  0.00    -0.189 NA
BRANCH  12  16
ATOM     14  C   UNL     1      -0.017   1.379   0.010  0.00  0.00    +0.002 A 
ATOM     15  C   UNL     1       1.166   2.089   0.002  0.00  0.00    +0.009 A 
ATOM     16  C   UNL     1       2.386   1.407  -0.013  0.00  0.00    -0.004 A 
ATOM     17  C   UNL     1       2.398   0.010  -0.021  0.00  0.00    +0.024 A 
ATOM     18  C   UNL     1       1.207  -0.687  -0.013  0.00  0.00    +0.018 A 
ATOM     19  C   UNL     1       0.002  -0.004   0.002  0.00  0.00    +0.015 A 
ATOM     20 BR   UNL     1       1.220  -2.578  -0.024  0.00  0.00    -0.050 Br
ENDBRANCH  12  16
ENDBRANCH   1  13
TORSDOF 2
