REMARK  Name = ZINC15912780
REMARK  11 active torsions:
REMARK  status: ('A' for Active; 'I' for Inactive)
REMARK    1  A    between atoms: C_1  and  C_2
REMARK    2  A    between atoms: N_9  and  N_10
REMARK    3  A    between atoms: C_11  and  C_13
REMARK    4  A    between atoms: C_13  and  C_14
REMARK    5  A    between atoms: C_14  and  N_15
REMARK    6  A    between atoms: C_16  and  C_18
REMARK    7  A    between atoms: N_27  and  C_28
REMARK    8  A    between atoms: C_28  and  C_29
REMARK    9  A    between atoms: C_29  and  C_30
REMARK   10  A    between atoms: C_30  and  C_31
REMARK   11  A    between atoms: C_30  and  C_32
REMARK                            x       y       z     vdW  Elec       q    Type
REMARK                         _______ _______ _______ _____ _____    ______ ____
ROOT
ATOM      1  C   UNL     1       1.040   1.409   0.030  0.00  0.00    +0.044 C 
ATOM      2  C   UNL     1       0.754  -0.070   0.016  0.00  0.00    -0.050 A 
ATOM      3  C   UNL     1       0.673  -0.748  -1.189  0.00  0.00    +0.005 A 
ATOM      4  C   UNL     1       0.412  -2.103  -1.218  0.00  0.00    +0.024 A 
ATOM      5  C   UNL     1       0.227  -2.803  -0.031  0.00  0.00    +0.046 A 
ATOM      6  C   UNL     1       0.310  -2.114   1.186  0.00  0.00    +0.029 A 
ATOM      7  C   UNL     1       0.580  -0.750   1.205  0.00  0.00    +0.015 A 
ATOM      8  C   UNL     1       0.072  -3.116   2.251  0.00  0.00    +0.153 C 
ATOM      9  N   UNL     1       0.058  -2.916   3.547  0.00  0.00    -0.175 NA
ATOM     10  C   UNL     1      -0.145  -4.390   1.535  0.00  0.00    +0.271 C 
ATOM     11  O   UNL     1      -0.375  -5.469   2.047  0.00  0.00    -0.268 OA
ATOM     12  N   UNL     1      -0.043  -4.145   0.218  0.00  0.00    -0.266 N 
ENDROOT
BRANCH   9  13
ATOM     13  N   UNL     1       0.148  -1.614   4.055  0.00  0.00    -0.206 N 
ATOM     14  C   UNL     1       0.253  -1.415   5.384  0.00  0.00    +0.234 C 
ATOM     15  O   UNL     1       0.270  -2.363   6.139  0.00  0.00    -0.274 OA
ATOM     16  H   UNL     1       0.135  -0.855   3.451  0.00  0.00    +0.177 HD
BRANCH  14  17
ATOM     17  C   UNL     1       0.351  -0.014   5.931  0.00  0.00    +0.116 C 
BRANCH  17  18
ATOM     18  C   UNL     1       0.460  -0.069   7.456  0.00  0.00    +0.114 C 
BRANCH  18  19
ATOM     19  N   UNL     1       0.554   1.293   7.988  0.00  0.00    -0.311 N 
ATOM     20  C   UNL     1       0.659   1.492   9.317  0.00  0.00    +0.245 C 
ATOM     21  O   UNL     1       0.676   0.541  10.074  0.00  0.00    -0.270 OA
ATOM     22  H   UNL     1       0.541   2.052   7.384  0.00  0.00    +0.149 HD
BRANCH  20  23
ATOM     23  C   UNL     1       0.755   2.865   9.854  0.00  0.00    +0.051 A 
ATOM     24  C   UNL     1       0.731   3.960   8.987  0.00  0.00    +0.014 A 
ATOM     25  C   UNL     1       0.820   5.239   9.494  0.00  0.00    +0.001 A 
ATOM     26  C   UNL     1       0.933   5.440  10.859  0.00  0.00    +0.001 A 
ATOM     27  C   UNL     1       0.959   4.361  11.724  0.00  0.00    +0.016 A 
ATOM     28  C   UNL     1       0.864   3.075  11.230  0.00  0.00    +0.030 A 
ATOM     29 BR   UNL     1       0.890   1.601  12.414  0.00  0.00    -0.050 Br
ENDBRANCH  20  23
ENDBRANCH  18  19
ENDBRANCH  17  18
ENDBRANCH  14  17
ENDBRANCH   9  13
BRANCH  12  30
ATOM     30  C   UNL     1      -0.197  -5.162  -0.825  0.00  0.00    +0.114 C 
BRANCH  30  31
ATOM     31  C   UNL     1       1.164  -5.790  -1.130  0.00  0.00    +0.022 C 
BRANCH  31  32
ATOM     32  C   UNL     1       1.003  -6.853  -2.219  0.00  0.00    -0.016 C 
ATOM     33  C   UNL     1       2.380  -7.393  -2.612  0.00  0.00    +0.007 C 
ATOM     34  C   UNL     1       0.138  -7.998  -1.690  0.00  0.00    +0.007 C 
ENDBRANCH  31  32
ENDBRANCH  30  31
ENDBRANCH  12  30
TORSDOF 8
