REMARK  Name = ZINC05437408
REMARK  8 active torsions:
REMARK  status: ('A' for Active; 'I' for Inactive)
REMARK    1  A    between atoms: C_1  and  C_2
REMARK    2  A    between atoms: C_14  and  C_36
REMARK    3  A    between atoms: C_20  and  N_25
REMARK    4  A    between atoms: C_26  and  O_28
REMARK    5  A    between atoms: O_28  and  C_29
REMARK    6  A    between atoms: C_29  and  C_30
REMARK    7  A    between atoms: C_36  and  C_37
REMARK    8  A    between atoms: C_36  and  C_38
REMARK                            x       y       z     vdW  Elec       q    Type
REMARK                         _______ _______ _______ _____ _____    ______ ____
ROOT
ATOM      1  C   UNL     1       2.587   0.493  -1.265  0.00  0.00    +0.038 C 
ATOM      2  C   UNL     1       2.383   1.172   0.091  0.00  0.00    +0.156 C 
ATOM      3  C   UNL     1       2.253   0.127   1.170  0.00  0.00    +0.233 C 
ATOM      4  O   UNL     1       1.263   0.079   1.869  0.00  0.00    -0.274 OA
ATOM      5  N   UNL     1       3.276  -0.766   1.345  0.00  0.00    -0.314 N 
ATOM      6  C   UNL     1       3.049  -1.754   2.430  0.00  0.00    +0.104 C 
ATOM      7  C   UNL     1       1.550  -2.051   2.503  0.00  0.00    +0.019 C 
ATOM      8  C   UNL     1       1.266  -2.949   3.709  0.00  0.00    +0.011 C 
ATOM      9  C   UNL     1      -0.135  -3.551   3.577  0.00  0.00    +0.096 C 
ATOM     10  C   UNL     1      -1.155  -2.442   3.529  0.00  0.00    +0.214 C 
ATOM     11  O   UNL     1      -0.948  -1.384   4.085  0.00  0.00    -0.276 OA
ATOM     12  N   UNL     1      -2.321  -2.655   2.842  0.00  0.00    -0.302 N 
ATOM     13  C   UNL     1      -3.259  -1.506   2.853  0.00  0.00    +0.184 C 
ATOM     14  C   UNL     1      -3.160  -0.794   1.528  0.00  0.00    +0.328 C 
ATOM     15  O   UNL     1      -3.632  -1.296   0.536  0.00  0.00    -0.249 OA
ATOM     16  O   UNL     1      -2.546   0.397   1.453  0.00  0.00    -0.461 OA
ATOM     17  C   UNL     1      -2.492   1.028   0.146  0.00  0.00    +0.264 C 
ATOM     18  C   UNL     1      -1.331   2.024   0.101  0.00  0.00    +0.199 C 
ATOM     19  C   UNL     1      -0.026   1.272   0.060  0.00  0.00    +0.237 C 
ATOM     20  O   UNL     1      -0.014   0.060   0.020  0.00  0.00    -0.274 OA
ATOM     21  N   UNL     1       1.142   1.976   0.062  0.00  0.00    -0.303 N 
ATOM     22  H   UNL     1       4.081  -0.755   0.804  0.00  0.00    +0.149 HD
ATOM     23  H   UNL     1      -2.517  -3.489   2.386  0.00  0.00    +0.150 HD
ATOM     24  H   UNL     1       1.158   2.946   0.046  0.00  0.00    +0.149 HD
ENDROOT
BRANCH  18  25
ATOM     25  N   UNL     1      -1.446   2.868  -1.091  0.00  0.00    -0.267 N 
ATOM     26  C   UNL     1      -0.889   4.095  -1.104  0.00  0.00    +0.401 C 
ATOM     27  O   UNL     1      -0.291   4.501  -0.127  0.00  0.00    -0.226 OA
ATOM     28  H   UNL     1      -1.923   2.544  -1.871  0.00  0.00    +0.153 HD
BRANCH  26  29
ATOM     29  O   UNL     1      -0.994   4.871  -2.199  0.00  0.00    -0.446 OA
BRANCH  29  30
ATOM     30  C   UNL     1      -0.369   6.181  -2.141  0.00  0.00    +0.269 C 
BRANCH  30  31
ATOM     31  C   UNL     1      -0.590   6.900  -3.447  0.00  0.00    -0.010 A 
ATOM     32  C   UNL     1       0.328   6.769  -4.472  0.00  0.00    +0.007 A 
ATOM     33  C   UNL     1       0.124   7.425  -5.672  0.00  0.00    +0.000 A 
ATOM     34  C   UNL     1      -0.994   8.220  -5.843  0.00  0.00    +0.000 A 
ATOM     35  C   UNL     1      -1.909   8.356  -4.816  0.00  0.00    +0.000 A 
ATOM     36  C   UNL     1      -1.707   7.696  -3.618  0.00  0.00    +0.007 A 
ENDBRANCH  30  31
ENDBRANCH  29  30
ENDBRANCH  26  29
ENDBRANCH  18  25
BRANCH  13  37
ATOM     37  C   UNL     1      -4.689  -2.011   3.059  0.00  0.00    +0.014 C 
ATOM     38  C   UNL     1      -4.760  -2.826   4.352  0.00  0.00    +0.009 C 
ATOM     39  C   UNL     1      -5.642  -0.819   3.155  0.00  0.00    +0.009 C 
ENDBRANCH  13  37
TORSDOF 5
