REMARK  Name = ZINC38684297
REMARK  16 active torsions:
REMARK  status: ('A' for Active; 'I' for Inactive)
REMARK    1  A    between atoms: C_1  and  C_2
REMARK    2  A    between atoms: C_2  and  C_3
REMARK    3  A    between atoms: C_3  and  C_4
REMARK    4  A    between atoms: C_4  and  C_5
REMARK    5  A    between atoms: C_5  and  O_6
REMARK    6  A    between atoms: O_6  and  C_7
REMARK    7  A    between atoms: C_10  and  C_16
REMARK    8  A    between atoms: C_12  and  O_13
REMARK    9  A    between atoms: O_13  and  C_14
REMARK   10  A    between atoms: C_14  and  C_15
REMARK   11  A    between atoms: C_21  and  O_30
REMARK   12  A    between atoms: C_25  and  N_29
REMARK   13  A    between atoms: C_26  and  C_27
REMARK   14  A    between atoms: O_30  and  C_31
REMARK   15  A    between atoms: C_31  and  C_33
REMARK   16  A    between atoms: C_38  and  C_39
REMARK                            x       y       z     vdW  Elec       q    Type
REMARK                         _______ _______ _______ _____ _____    ______ ____
ROOT
ATOM      1  C   UNL     1       4.109  -6.554   6.659  0.00  0.00    +0.098 C 
ATOM      2  C   UNL     1       5.558  -6.146   6.707  0.00  0.00    +0.008 A 
ATOM      3  C   UNL     1       6.469  -6.774   5.875  0.00  0.00    +0.012 A 
ATOM      4  C   UNL     1       7.802  -6.413   5.906  0.00  0.00    +0.047 A 
ATOM      5  C   UNL     1       8.231  -5.417   6.772  0.00  0.00    +0.135 A 
ATOM      6  C   UNL     1       7.321  -4.788   7.606  0.00  0.00    +0.093 A 
ATOM      7  C   UNL     1       5.981  -5.152   7.574  0.00  0.00    +0.138 A 
ATOM      8  O   UNL     1       5.103  -4.526   8.396  0.00  0.00    -0.441 OA
ATOM      9  C   UNL     1       3.918  -5.096   8.670  0.00  0.00    +0.199 C 
ATOM     10  C   UNL     1       3.393  -6.062   7.885  0.00  0.00    +0.098 C 
ENDROOT
BRANCH   1  14
ATOM     11  C   UNL     1       2.280  -4.868   3.180  0.00  0.00    +0.162 A 
ATOM     12  C   UNL     1       2.838  -4.042   4.143  0.00  0.00    +0.050 A 
ATOM     13  C   UNL     1       3.428  -4.590   5.266  0.00  0.00    +0.008 A 
ATOM     14  C   UNL     1       3.464  -5.962   5.432  0.00  0.00    -0.031 A 
ATOM     15  C   UNL     1       2.910  -6.792   4.475  0.00  0.00    +0.054 A 
ATOM     16  C   UNL     1       2.312  -6.248   3.350  0.00  0.00    +0.162 A 
BRANCH  11  17
ATOM     17  O   UNL     1       1.699  -4.330   2.075  0.00  0.00    -0.488 OA
BRANCH  17  18
ATOM     18  C   UNL     1       1.704  -2.905   1.967  0.00  0.00    +0.229 C 
BRANCH  18  19
ATOM     19  C   UNL     1       1.011  -2.489   0.668  0.00  0.00    +0.041 C 
BRANCH  19  20
ATOM     20  C   UNL     1       1.016  -0.964   0.553  0.00  0.00    +0.003 C 
BRANCH  20  22
ATOM     21  C   UNL     1       0.329   0.978  -0.861  0.00  0.00    +0.004 C 
ATOM     22  C   UNL     1       0.323  -0.548  -0.746  0.00  0.00    -0.003 C 
ENDBRANCH  20  22
ENDBRANCH  19  20
ENDBRANCH  18  19
ENDBRANCH  17  18
ENDBRANCH  11  17
BRANCH  16  23
ATOM     23  O   UNL     1       1.761  -7.063   2.410  0.00  0.00    -0.489 OA
BRANCH  23  24
ATOM     24  C   UNL     1       1.830  -8.470   2.651  0.00  0.00    +0.226 C 
ATOM     25  C   UNL     1       1.164  -9.218   1.495  0.00  0.00    +0.048 C 
ENDBRANCH  23  24
ENDBRANCH  16  23
ENDBRANCH   1  14
BRANCH   9  26
ATOM     26  N   UNL     1       3.221  -4.685   9.779  0.00  0.00    -0.328 N 
ATOM     27  H   UNL     1       3.586  -3.993  10.351  0.00  0.00    +0.145 HD
ATOM     28  H   UNL     1       2.364  -5.087   9.989  0.00  0.00    +0.145 HD
ENDBRANCH   9  26
BRANCH  10  29
ATOM     29  C   UNL     1       2.124  -6.628   8.231  0.00  0.00    +0.101 C 
ATOM     30  N   UNL     1       1.118  -7.078   8.506  0.00  0.00    -0.191 NA
ENDBRANCH  10  29
BRANCH   5  31
ATOM     31  O   UNL     1       9.542  -5.061   6.804  0.00  0.00    -0.422 OA
BRANCH  31  32
ATOM     32  C   UNL     1       9.997  -4.237   5.840  0.00  0.00    +0.345 C 
ATOM     33  O   UNL     1       9.221  -3.745   5.046  0.00  0.00    -0.245 OA
BRANCH  32  34
ATOM     34  C   UNL     1      11.440  -3.933   5.748  0.00  0.00    +0.062 A 
ATOM     35  C   UNL     1      12.318  -4.395   6.731  0.00  0.00    +0.015 A 
ATOM     36  C   UNL     1      13.664  -4.107   6.640  0.00  0.00    +0.001 A 
ATOM     37  C   UNL     1      14.144  -3.362   5.577  0.00  0.00    +0.000 A 
ATOM     38  C   UNL     1      13.280  -2.901   4.600  0.00  0.00    +0.004 A 
ATOM     39  C   UNL     1      11.933  -3.187   4.676  0.00  0.00    -0.036 A 
ATOM     40  C   UNL     1      10.994  -2.689   3.608  0.00  0.00    +0.044 C 
ENDBRANCH  32  34
ENDBRANCH  31  32
ENDBRANCH   5  31
TORSDOF 13
