REMARK  Name = ZINC63671422
REMARK  9 active torsions:
REMARK  status: ('A' for Active; 'I' for Inactive)
REMARK    1  A    between atoms: C_1  and  C_2
REMARK    2  A    between atoms: C_2  and  N_3
REMARK    3  A    between atoms: C_10  and  S_12
REMARK    4  A    between atoms: S_12  and  N_15
REMARK    5  A    between atoms: C_19  and  C_22
REMARK    6  A    between atoms: N_24  and  C_25
REMARK    7  A    between atoms: C_25  and  C_26
REMARK    8  A    between atoms: C_26  and  C_27
REMARK    9  A    between atoms: C_30  and  C_36
REMARK                            x       y       z     vdW  Elec       q    Type
REMARK                         _______ _______ _______ _____ _____    ______ ____
ROOT
ATOM      1  N   UNL     1       6.637  -3.022  -2.340  0.00  0.00    -0.176 NA
ATOM      2  C   UNL     1       7.214  -3.377  -1.036  0.00  0.00    +0.109 C 
ATOM      3  C   UNL     1       6.340  -4.454  -0.387  0.00  0.00    +0.018 C 
ATOM      4  C   UNL     1       6.191  -5.634  -1.350  0.00  0.00    +0.015 C 
ATOM      5  C   UNL     1       5.504  -5.163  -2.634  0.00  0.00    +0.091 C 
ATOM      6  C   UNL     1       6.362  -4.095  -3.306  0.00  0.00    +0.122 C 
ENDROOT
BRANCH   5   7
ATOM      7  C   UNL     1       5.328  -6.333  -3.568  0.00  0.00    +0.217 C 
ATOM      8  O   UNL     1       5.840  -6.313  -4.667  0.00  0.00    -0.275 OA
ATOM      9  N   UNL     1       4.601  -7.400  -3.182  0.00  0.00    -0.315 N 
ATOM     10  H   UNL     1       4.191  -7.416  -2.303  0.00  0.00    +0.149 HD
BRANCH   9  11
ATOM     11  C   UNL     1       4.430  -8.537  -4.090  0.00  0.00    +0.108 C 
BRANCH  11  12
ATOM     12  C   UNL     1       3.569  -9.605  -3.413  0.00  0.00    +0.052 C 
BRANCH  12  13
ATOM     13  C   UNL     1       3.394 -10.775  -4.347  0.00  0.00    -0.040 C 
ATOM     14  C   UNL     1       4.130 -11.909  -4.378  0.00  0.00    -0.001 A 
ATOM     15  C   UNL     1       5.271 -12.376  -3.581  0.00  0.00    +0.013 A 
ATOM     16  C   UNL     1       5.809 -13.586  -3.853  0.00  0.00    -0.050 A 
ATOM     17  C   UNL     1       5.306 -14.404  -4.874  0.00  0.00    +0.005 A 
ATOM     18  C   UNL     1       4.261 -14.045  -5.648  0.00  0.00    +0.026 A 
ATOM     19  C   UNL     1       3.617 -12.792  -5.449  0.00  0.00    +0.043 A 
ATOM     20  N   UNL     1       2.603 -12.226  -6.058  0.00  0.00    -0.380 N 
ATOM     21  C   UNL     1       2.354 -10.920  -5.436  0.00  0.00    +0.144 C 
ATOM     22  C   UNL     1       6.981 -14.068  -3.037  0.00  0.00    +0.044 C 
ATOM     23  H   UNL     1       2.099 -12.607  -6.794  0.00  0.00    +0.160 HD
ENDBRANCH  12  13
ENDBRANCH  11  12
ENDBRANCH   9  11
ENDBRANCH   5   7
BRANCH   1  24
ATOM     24  S   UNL     1       6.296  -1.445  -2.711  0.00  0.00    +0.061 S 
ATOM     25  O   UNL     1       6.296  -1.352  -4.129  0.00  0.00    -0.153 OA
ATOM     26  O   UNL     1       7.140  -0.644  -1.896  0.00  0.00    -0.153 OA
BRANCH  24  34
ATOM     27  N   UNL     1       0.688  -0.476  -1.203  0.00  0.00    -0.347 N 
ATOM     28  C   UNL     1       0.070  -0.827  -2.373  0.00  0.00    +0.087 A 
ATOM     29  C   UNL     1       0.985  -1.215  -3.276  0.00  0.00    +0.027 A 
ATOM     30  C   UNL     1       2.296  -1.103  -2.631  0.00  0.00    +0.002 A 
ATOM     31  C   UNL     1       2.050  -0.628  -1.330  0.00  0.00    +0.049 A 
ATOM     32  C   UNL     1       3.122  -0.415  -0.469  0.00  0.00    +0.028 A 
ATOM     33  C   UNL     1       4.406  -0.667  -0.900  0.00  0.00    +0.030 A 
ATOM     34  C   UNL     1       4.643  -1.132  -2.186  0.00  0.00    +0.106 A 
ATOM     35  C   UNL     1       3.605  -1.356  -3.045  0.00  0.00    +0.038 A 
BRANCH  27  37
ATOM     36  C   UNL     1      -0.019   1.526   0.010  0.00  0.00    +0.027 C 
ATOM     37  C   UNL     1       0.002  -0.004   0.002  0.00  0.00    +0.118 C 
ENDBRANCH  27  37
ENDBRANCH  24  34
ENDBRANCH   1  24
TORSDOF 7
