REMARK  Name = ZINC21976266
REMARK  10 active torsions:
REMARK  status: ('A' for Active; 'I' for Inactive)
REMARK    1  A    between atoms: C_1  and  C_2
REMARK    2  A    between atoms: C_5  and  N_9
REMARK    3  A    between atoms: C_7  and  C_8
REMARK    4  A    between atoms: C_10  and  C_28
REMARK    5  A    between atoms: C_13  and  S_14
REMARK    6  A    between atoms: S_14  and  C_15
REMARK    7  A    between atoms: C_15  and  C_17
REMARK    8  A    between atoms: C_15  and  C_18
REMARK    9  A    between atoms: N_24  and  C_25
REMARK   10  A    between atoms: N_24  and  C_26
REMARK                            x       y       z     vdW  Elec       q    Type
REMARK                         _______ _______ _______ _____ _____    ______ ____
ROOT
ATOM      1  N   UNL     1       2.425   1.141  -0.040  0.00  0.00    -0.270 N 
ATOM      2  C   UNL     1       2.856   0.225  -0.976  0.00  0.00    +0.169 A 
ATOM      3  N   UNL     1       4.027  -0.213  -0.575  0.00  0.00    -0.128 NA
ATOM      4  N   UNL     1       4.355   0.356   0.529  0.00  0.00    -0.122 NA
ATOM      5  C   UNL     1       3.415   1.198   0.902  0.00  0.00    +0.197 A 
ENDROOT
BRANCH   1  10
ATOM      6  C   UNL     1      -2.430   4.079  -0.095  0.00  0.00    +0.044 C 
ATOM      7  C   UNL     1      -1.141   3.299  -0.081  0.00  0.00    -0.047 A 
ATOM      8  C   UNL     1      -1.166   1.928   0.102  0.00  0.00    +0.005 A 
ATOM      9  C   UNL     1       0.014   1.211   0.122  0.00  0.00    +0.026 A 
ATOM     10  C   UNL     1       1.226   1.867  -0.053  0.00  0.00    +0.051 A 
ATOM     11  C   UNL     1       1.247   3.241  -0.243  0.00  0.00    +0.030 A 
ATOM     12  C   UNL     1       0.064   3.954  -0.256  0.00  0.00    -0.046 A 
ATOM     13  C   UNL     1       0.086   5.447  -0.462  0.00  0.00    +0.044 C 
ENDBRANCH   1  10
BRANCH   2  14
ATOM     14  C   UNL     1       2.135  -0.186  -2.198  0.00  0.00    +0.022 A 
ATOM     15  C   UNL     1       2.484  -1.359  -2.879  0.00  0.00    +0.031 A 
ATOM     16  C   UNL     1       1.782  -1.707  -4.013  0.00  0.00    +0.111 A 
ATOM     17  N   UNL     1       0.801  -0.947  -4.463  0.00  0.00    -0.263 NA
ATOM     18  C   UNL     1       0.444   0.169  -3.856  0.00  0.00    +0.111 A 
ATOM     19  C   UNL     1       1.089   0.590  -2.712  0.00  0.00    +0.031 A 
ENDBRANCH   2  14
BRANCH   5  20
ATOM     20  S   UNL     1       3.427   2.207   2.346  0.00  0.00    -0.075 S 
BRANCH  20  21
ATOM     21  C   UNL     1       5.023   1.726   3.051  0.00  0.00    +0.119 C 
ATOM     22  C   UNL     1       6.149   2.163   2.112  0.00  0.00    +0.028 C 
BRANCH  21  23
ATOM     23  C   UNL     1       5.201   2.392   4.392  0.00  0.00    +0.149 A 
ATOM     24  N   UNL     1       4.906   3.672   4.536  0.00  0.00    -0.198 NA
ATOM     25  C   UNL     1       5.061   4.264   5.718  0.00  0.00    +0.217 A 
ATOM     26  N   UNL     1       5.513   3.565   6.754  0.00  0.00    -0.181 NA
ATOM     27  C   UNL     1       5.809   2.279   6.605  0.00  0.00    +0.222 A 
ATOM     28  N   UNL     1       5.646   1.693   5.421  0.00  0.00    -0.198 NA
ATOM     29  N   UNL     1       6.279   1.549   7.678  0.00  0.00    -0.306 N 
ATOM     30  C   UNL     1       6.452   2.194   8.982  0.00  0.00    +0.132 C 
ATOM     31  C   UNL     1       6.604   0.131   7.513  0.00  0.00    +0.132 C 
ATOM     32  N   UNL     1       4.753   5.601   5.867  0.00  0.00    -0.327 N 
ATOM     33  H   UNL     1       4.881   6.089   6.845  0.00  0.00    +0.145 HD
ATOM     34  H   UNL     1       4.379   6.178   5.009  0.00  0.00    +0.145 HD
ENDBRANCH  21  23
ENDBRANCH  20  21
ENDBRANCH   5  20
TORSDOF 5
