REMARK  Name = ZINC02298065
REMARK  7 active torsions:
REMARK  status: ('A' for Active; 'I' for Inactive)
REMARK    1  A    between atoms: C_1  and  C_2
REMARK    2  A    between atoms: C_5  and  N_8
REMARK    3  A    between atoms: C_12  and  C_13
REMARK    4  A    between atoms: C_16  and  C_18
REMARK    5  A    between atoms: C_21  and  N_26
REMARK    6  A    between atoms: C_23  and  O_24
REMARK    7  A    between atoms: O_24  and  C_25
REMARK                            x       y       z     vdW  Elec       q    Type
REMARK                         _______ _______ _______ _____ _____    ______ ____
ROOT
ATOM      1  N   UNL     1       4.885  -2.296  -4.240  0.00  0.00    -0.216 N 
ATOM      2  C   UNL     1       4.302  -3.385  -3.697  0.00  0.00    +0.262 C 
ATOM      3  O   UNL     1       4.771  -4.495  -3.868  0.00  0.00    -0.269 OA
ATOM      4  C   UNL     1       3.081  -3.195  -2.898  0.00  0.00    +0.105 C 
ATOM      5  C   UNL     1       2.421  -4.273  -2.312  0.00  0.00    +0.064 C 
ATOM      6  C   UNL     1       2.590  -1.816  -2.740  0.00  0.00    +0.274 C 
ATOM      7  O   UNL     1       1.589  -1.580  -2.088  0.00  0.00    -0.268 OA
ATOM      8  N   UNL     1       3.280  -0.821  -3.335  0.00  0.00    -0.153 NA
ATOM      9  C   UNL     1       4.383  -1.067  -4.055  0.00  0.00    +0.171 C 
ATOM     10  S   UNL     1       5.194   0.257  -4.775  0.00  0.00    -0.016 S 
ENDROOT
BRANCH   1  15
ATOM     11  C   UNL     1       9.585  -2.932  -7.356  0.00  0.00    +0.044 C 
ATOM     12  C   UNL     1       8.337  -2.763  -6.528  0.00  0.00    -0.050 A 
ATOM     13  C   UNL     1       8.437  -2.540  -5.168  0.00  0.00    +0.005 A 
ATOM     14  C   UNL     1       7.295  -2.384  -4.407  0.00  0.00    +0.024 A 
ATOM     15  C   UNL     1       6.046  -2.453  -5.009  0.00  0.00    +0.043 A 
ATOM     16  C   UNL     1       5.949  -2.684  -6.375  0.00  0.00    +0.024 A 
ATOM     17  C   UNL     1       7.095  -2.833  -7.132  0.00  0.00    +0.005 A 
ENDBRANCH   1  15
BRANCH   5  18
ATOM     18  C   UNL     1       1.378  -4.047  -1.406  0.00  0.00    +0.129 A 
ATOM     19  C   UNL     1       0.215  -4.801  -1.296  0.00  0.00    +0.050 A 
ATOM     20  C   UNL     1      -0.537  -4.232  -0.272  0.00  0.00    +0.050 A 
ATOM     21  C   UNL     1       0.179  -3.151   0.205  0.00  0.00    +0.139 A 
ATOM     22  O   UNL     1       1.327  -3.058  -0.487  0.00  0.00    -0.455 OA
BRANCH  21  23
ATOM     23  C   UNL     1      -0.243  -2.253   1.294  0.00  0.00    +0.059 A 
ATOM     24  C   UNL     1      -1.518  -1.679   1.278  0.00  0.00    +0.017 A 
ATOM     25  C   UNL     1      -1.906  -0.839   2.299  0.00  0.00    +0.033 A 
ATOM     26  C   UNL     1      -1.039  -0.562   3.344  0.00  0.00    +0.130 A 
ATOM     27  C   UNL     1       0.221  -1.127   3.375  0.00  0.00    +0.079 A 
ATOM     28  C   UNL     1       0.631  -1.969   2.353  0.00  0.00    +0.133 A 
BRANCH  26  29
ATOM     29  N   UNL     1      -1.468   0.341   4.435  0.00  0.00    +0.057 N 
ATOM     30  O   UNL     1      -2.580   0.838   4.414  0.00  0.00    -0.126 OA
ATOM     31  O   UNL     1      -0.708   0.588   5.355  0.00  0.00    -0.126 OA
ENDBRANCH  26  29
BRANCH  28  32
ATOM     32  O   UNL     1       1.871  -2.521   2.381  0.00  0.00    -0.494 OA
ATOM     33  C   UNL     1       2.706  -2.186   3.491  0.00  0.00    +0.277 C 
ENDBRANCH  28  32
ENDBRANCH  21  23
ENDBRANCH   5  18
TORSDOF 5
