REMARK  Name = ZINC36066077
REMARK  5 active torsions:
REMARK  status: ('A' for Active; 'I' for Inactive)
REMARK    1  A    between atoms: C_1  and  C_2
REMARK    2  A    between atoms: C_8  and  C_10
REMARK    3  A    between atoms: C_10  and  C_12
REMARK    4  A    between atoms: C_10  and  N_20
REMARK    5  A    between atoms: C_24  and  C_27
REMARK                            x       y       z     vdW  Elec       q    Type
REMARK                         _______ _______ _______ _____ _____    ______ ____
ROOT
ATOM      1  C   UNL     1       0.085  -5.916   0.773  0.00  0.00    +0.006 C 
ENDROOT
BRANCH   1   9
ATOM      2  C   UNL     1      -0.018   1.503   0.010  0.00  0.00    +0.090 C 
ATOM      3  C   UNL     1       0.002  -0.004   0.002  0.00  0.00    +0.150 A 
ATOM      4  N   UNL     1       0.008  -0.769  -1.088  0.00  0.00    -0.205 NA
ATOM      5  C   UNL     1       0.026  -2.025  -0.733  0.00  0.00    +0.199 A 
ATOM      6  N   UNL     1       0.033  -2.116   0.625  0.00  0.00    -0.170 N 
ATOM      7  N   UNL     1       0.022  -0.766   1.063  0.00  0.00    -0.147 NA
ATOM      8  C   UNL     1       0.052  -3.377   1.171  0.00  0.00    +0.282 A 
ATOM      9  C   UNL     1       0.063  -4.460   0.386  0.00  0.00    +0.050 A 
ATOM     10  S   UNL     1       0.047  -3.727  -1.243  0.00  0.00    -0.050 S 
ATOM     11  O   UNL     1       0.060  -3.525   2.523  0.00  0.00    -0.265 OA
ENDBRANCH   1   9
BRANCH   1  12
ATOM     12  C   UNL     1      -1.196  -6.574   0.328  0.00  0.00    -0.053 A 
ATOM     13  C   UNL     1      -1.349  -6.967  -0.988  0.00  0.00    +0.005 A 
ATOM     14  C   UNL     1      -2.522  -7.571  -1.399  0.00  0.00    +0.041 A 
ATOM     15  C   UNL     1      -3.546  -7.782  -0.491  0.00  0.00    +0.158 A 
ATOM     16  C   UNL     1      -3.392  -7.388   0.829  0.00  0.00    +0.159 A 
ATOM     17  C   UNL     1      -2.214  -6.788   1.238  0.00  0.00    +0.043 A 
ATOM     18  F   UNL     1      -4.390  -7.592   1.716  0.00  0.00    -0.202 F 
ATOM     19  F   UNL     1      -4.694  -8.371  -0.892  0.00  0.00    -0.202 F 
ENDBRANCH   1  12
BRANCH   1  20
ATOM     20  N   UNL     1       1.226  -6.578   0.126  0.00  0.00    +0.388 N 
ATOM     21  C   UNL     1       1.241  -7.998   0.497  0.00  0.00    -0.077 C 
ATOM     22  C   UNL     1       2.379  -8.709  -0.238  0.00  0.00    -0.018 C 
ATOM     23  C   UNL     1       3.712  -8.064   0.151  0.00  0.00    -0.001 C 
ATOM     24  C   UNL     1       3.658  -6.568  -0.172  0.00  0.00    -0.031 C 
ATOM     25  C   UNL     1       2.473  -5.936   0.560  0.00  0.00    -0.074 C 
ATOM     26  C   UNL     1       4.957  -5.900   0.283  0.00  0.00    +0.005 C 
ATOM     27  H   UNL     1       1.138  -6.495  -0.876  0.00  0.00    -0.080 HD
ENDBRANCH   1  20
TORSDOF 3
