REMARK  Name = ZINC40388229
REMARK  15 active torsions:
REMARK  status: ('A' for Active; 'I' for Inactive)
REMARK    1  A    between atoms: C_1  and  C_2
REMARK    2  A    between atoms: C_2  and  C_3
REMARK    3  A    between atoms: C_3  and  C_5
REMARK    4  A    between atoms: C_3  and  N_6
REMARK    5  A    between atoms: C_7  and  C_9
REMARK    6  A    between atoms: C_9  and  N_10
REMARK    7  A    between atoms: C_13  and  C_24
REMARK    8  A    between atoms: N_15  and  C_16
REMARK    9  A    between atoms: C_19  and  C_23
REMARK   10  A    between atoms: C_21  and  C_22
REMARK   11  A    between atoms: C_24  and  C_25
REMARK   12  A    between atoms: C_24  and  C_26
REMARK   13  A    between atoms: C_24  and  C_27
REMARK   14  A    between atoms: C_28  and  C_34
REMARK   15  A    between atoms: C_38  and  C_40
REMARK                            x       y       z     vdW  Elec       q    Type
REMARK                         _______ _______ _______ _____ _____    ______ ____
ROOT
ATOM      1  N   UNL     1       3.865  -3.020  -2.373  0.00  0.00    -0.246 N 
ATOM      2  C   UNL     1       4.851  -3.065  -3.369  0.00  0.00    +0.136 A 
ATOM      3  C   UNL     1       4.601  -2.888  -4.687  0.00  0.00    +0.034 A 
ATOM      4  C   UNL     1       5.812  -2.993  -5.372  0.00  0.00    +0.075 A 
ATOM      5  N   UNL     1       6.760  -3.228  -4.497  0.00  0.00    -0.169 NA
ATOM      6  N   UNL     1       6.180  -3.281  -3.219  0.00  0.00    -0.217 N 
ATOM      7  C   UNL     1       3.237  -2.631  -5.277  0.00  0.00    +0.112 C 
ATOM      8  S   UNL     1       2.744  -0.916  -4.878  0.00  0.00    -0.138 S 
ATOM      9  C   UNL     1       3.313  -0.752  -3.152  0.00  0.00    +0.166 C 
ATOM     10  C   UNL     1       3.003  -1.997  -2.376  0.00  0.00    +0.231 C 
ATOM     11  O   UNL     1       1.970  -2.077  -1.745  0.00  0.00    -0.274 OA
ENDROOT
BRANCH   6  12
ATOM     12  C   UNL     1       6.852  -3.515  -2.011  0.00  0.00    +0.070 A 
ATOM     13  C   UNL     1       6.504  -2.801  -0.872  0.00  0.00    +0.028 A 
ATOM     14  C   UNL     1       7.168  -3.033   0.316  0.00  0.00    +0.005 A 
ATOM     15  C   UNL     1       8.178  -3.976   0.372  0.00  0.00    -0.050 A 
ATOM     16  C   UNL     1       8.527  -4.689  -0.760  0.00  0.00    +0.008 A 
ATOM     17  C   UNL     1       7.862  -4.465  -1.950  0.00  0.00    -0.025 A 
ATOM     18  C   UNL     1       8.238  -5.247  -3.183  0.00  0.00    +0.046 C 
ATOM     19  C   UNL     1       8.902  -4.226   1.671  0.00  0.00    +0.044 C 
ENDBRANCH   6  12
BRANCH   7  20
ATOM     20  C   UNL     1       3.290  -2.812  -6.772  0.00  0.00    -0.030 A 
ATOM     21  C   UNL     1       3.701  -1.768  -7.580  0.00  0.00    +0.005 A 
ATOM     22  C   UNL     1       3.750  -1.934  -8.951  0.00  0.00    +0.001 A 
ATOM     23  C   UNL     1       3.388  -3.143  -9.515  0.00  0.00    +0.003 A 
ATOM     24  C   UNL     1       2.979  -4.187  -8.707  0.00  0.00    -0.050 A 
ATOM     25  C   UNL     1       2.934  -4.023  -7.335  0.00  0.00    +0.008 A 
ATOM     26  C   UNL     1       2.584  -5.506  -9.321  0.00  0.00    +0.044 C 
ENDBRANCH   7  20
BRANCH   4  27
ATOM     27  C   UNL     1       5.999  -2.860  -6.862  0.00  0.00    +0.007 C 
ATOM     28  C   UNL     1       5.686  -1.424  -7.288  0.00  0.00    +0.017 C 
ATOM     29  C   UNL     1       7.446  -3.197  -7.226  0.00  0.00    +0.017 C 
ATOM     30  C   UNL     1       5.053  -3.823  -7.582  0.00  0.00    +0.017 C 
ENDBRANCH   4  27
BRANCH   1  31
ATOM     31  C   UNL     1       3.777  -4.071  -1.357  0.00  0.00    +0.210 C 
BRANCH  31  33
ATOM     32  N   UNL     1       2.531  -6.180  -1.012  0.00  0.00    -0.311 N 
ATOM     33  C   UNL     1       2.778  -5.111  -1.795  0.00  0.00    +0.231 C 
ATOM     34  O   UNL     1       2.197  -4.986  -2.852  0.00  0.00    -0.274 OA
ATOM     35  H   UNL     1       2.996  -6.280  -0.166  0.00  0.00    +0.149 HD
BRANCH  32  36
ATOM     36  C   UNL     1       1.560  -7.191  -1.438  0.00  0.00    +0.070 C 
ATOM     37  C   UNL     1       2.248  -8.205  -2.353  0.00  0.00    +0.028 C 
BRANCH  36  39
ATOM     38  C   UNL     1       0.206  -6.920   0.644  0.00  0.00    +0.005 C 
ATOM     39  C   UNL     1       1.001  -7.911  -0.209  0.00  0.00    +0.018 C 
ENDBRANCH  36  39
ENDBRANCH  32  36
ENDBRANCH  31  33
ENDBRANCH   1  31
TORSDOF 7
