REMARK  Name = ZINC36575668
REMARK  15 active torsions:
REMARK  status: ('A' for Active; 'I' for Inactive)
REMARK    1  A    between atoms: C_1  and  C_2
REMARK    2  A    between atoms: C_2  and  C_3
REMARK    3  A    between atoms: C_3  and  N_4
REMARK    4  A    between atoms: N_4  and  C_5
REMARK    5  A    between atoms: C_5  and  C_7
REMARK    6  A    between atoms: C_5  and  C_21
REMARK    7  A    between atoms: N_23  and  C_24
REMARK    8  A    between atoms: C_24  and  C_25
REMARK    9  A    between atoms: C_24  and  C_26
REMARK   10  A    between atoms: C_24  and  C_27
REMARK   11  A    between atoms: C_27  and  C_28
REMARK   12  A    between atoms: C_28  and  C_29
REMARK   13  A    between atoms: C_28  and  C_30
REMARK   14  A    between atoms: C_28  and  C_31
REMARK   15  A    between atoms: C_32  and  C_34
REMARK                            x       y       z     vdW  Elec       q    Type
REMARK                         _______ _______ _______ _____ _____    ______ ____
ROOT
ATOM      1  C   UNL     1      -1.483  -1.880  -2.627  0.00  0.00    +0.193 C 
ENDROOT
BRANCH   1   2
ATOM      2  C   UNL     1      -1.393  -0.786  -3.659  0.00  0.00    -0.010 A 
ATOM      3  C   UNL     1      -0.797   0.379  -3.335  0.00  0.00    +0.015 A 
ATOM      4  C   UNL     1      -0.688   1.436  -4.268  0.00  0.00    -0.017 A 
ATOM      5  C   UNL     1      -0.066   2.644  -3.922  0.00  0.00    +0.008 A 
ATOM      6  C   UNL     1       0.026   3.647  -4.842  0.00  0.00    +0.001 A 
ATOM      7  C   UNL     1      -0.490   3.489  -6.123  0.00  0.00    +0.001 A 
ATOM      8  C   UNL     1      -1.101   2.325  -6.492  0.00  0.00    +0.009 A 
ATOM      9  C   UNL     1      -1.210   1.280  -5.572  0.00  0.00    -0.010 A 
ATOM     10  C   UNL     1      -1.858   0.013  -5.924  0.00  0.00    -0.010 A 
ATOM     11  C   UNL     1      -1.930  -1.006  -4.949  0.00  0.00    -0.012 A 
ATOM     12  C   UNL     1      -2.543  -2.224  -5.277  0.00  0.00    +0.009 A 
ATOM     13  C   UNL     1      -3.053  -2.409  -6.529  0.00  0.00    +0.001 A 
ATOM     14  C   UNL     1      -2.974  -1.406  -7.487  0.00  0.00    +0.001 A 
ATOM     15  C   UNL     1      -2.394  -0.204  -7.195  0.00  0.00    +0.009 A 
ENDBRANCH   1   2
BRANCH   1  16
ATOM     16  C   UNL     1      -2.590  -1.563  -1.654  0.00  0.00    +0.239 C 
ATOM     17  O   UNL     1      -2.483  -0.620  -0.899  0.00  0.00    -0.273 OA
ATOM     18  N   UNL     1      -3.699  -2.328  -1.623  0.00  0.00    -0.308 N 
ATOM     19  H   UNL     1      -3.735  -3.152  -2.135  0.00  0.00    +0.149 HD
BRANCH  18  20
ATOM     20  C   UNL     1      -4.851  -1.916  -0.817  0.00  0.00    +0.030 C 
ATOM     21  C   UNL     1      -4.515  -2.069   0.668  0.00  0.00    +0.031 C 
ATOM     22  C   UNL     1      -5.186  -0.454  -1.117  0.00  0.00    +0.031 C 
BRANCH  20  23
ATOM     23  C   UNL     1      -6.055  -2.796  -1.160  0.00  0.00    +0.031 C 
BRANCH  23  24
ATOM     24  C   UNL     1      -6.144  -2.969  -2.678  0.00  0.00    -0.036 C 
ATOM     25  C   UNL     1      -5.228  -4.113  -3.116  0.00  0.00    +0.010 C 
ATOM     26  C   UNL     1      -7.588  -3.291  -3.070  0.00  0.00    +0.010 C 
ATOM     27  C   UNL     1      -5.707  -1.673  -3.365  0.00  0.00    +0.010 C 
ENDBRANCH  23  24
ENDBRANCH  20  23
ENDBRANCH  18  20
ENDBRANCH   1  16
BRANCH   1  28
ATOM     28  N   UNL     1      -0.212  -1.976  -1.905  0.00  0.00    -0.284 N 
ATOM     29  C   UNL     1       0.884  -2.449  -2.530  0.00  0.00    +0.237 C 
ATOM     30  O   UNL     1       1.937  -2.529  -1.933  0.00  0.00    -0.274 OA
BRANCH  29  31
ATOM     31  C   UNL     1       0.802  -2.880  -3.972  0.00  0.00    +0.159 C 
ATOM     32  C   UNL     1       0.222  -4.308  -4.072  0.00  0.00    +0.041 C 
ATOM     33  C   UNL     1       1.506  -5.169  -4.095  0.00  0.00    +0.098 C 
ATOM     34  C   UNL     1       2.569  -4.235  -4.631  0.00  0.00    +0.214 C 
ATOM     35  O   UNL     1       3.646  -4.585  -5.066  0.00  0.00    -0.276 OA
ATOM     36  N   UNL     1       2.146  -2.959  -4.556  0.00  0.00    -0.304 N 
ATOM     37  H   UNL     1       2.662  -2.192  -4.849  0.00  0.00    +0.149 HD
ENDBRANCH  29  31
BRANCH  28  38
ATOM     38  C   UNL     1      -0.132  -1.558  -0.503  0.00  0.00    +0.108 C 
BRANCH  38  40
ATOM     39  C   UNL     1      -0.490  -2.284   1.861  0.00  0.00    +0.005 C 
ATOM     40  C   UNL     1      -0.687  -2.667   0.393  0.00  0.00    +0.016 C 
ENDBRANCH  38  40
ENDBRANCH  28  38
ENDBRANCH   1  28
TORSDOF 9
