REMARK  Name = ZINC01382371
REMARK  10 active torsions:
REMARK  status: ('A' for Active; 'I' for Inactive)
REMARK    1  A    between atoms: C_1  and  C_2
REMARK    2  A    between atoms: C_2  and  C_3
REMARK    3  A    between atoms: C_10  and  C_15
REMARK    4  A    between atoms: C_15  and  C_17
REMARK    5  A    between atoms: C_15  and  N_28
REMARK    6  A    between atoms: N_21  and  C_22
REMARK    7  A    between atoms: C_22  and  C_23
REMARK    8  A    between atoms: N_31  and  C_34
REMARK    9  A    between atoms: C_37  and  O_40
REMARK   10  A    between atoms: O_40  and  C_41
REMARK                            x       y       z     vdW  Elec       q    Type
REMARK                         _______ _______ _______ _____ _____    ______ ____
ROOT
ATOM      1  C   UNL     1       6.159  -0.614  -0.059  0.00  0.00    +0.162 C 
ENDROOT
BRANCH   1   9
ATOM      2  C   UNL     1       0.002  -0.004   0.002  0.00  0.00    -0.047 A 
ATOM      3  C   UNL     1      -0.017   1.384   0.010  0.00  0.00    +0.005 A 
ATOM      4  C   UNL     1       1.159   2.104   0.002  0.00  0.00    +0.026 A 
ATOM      5  C   UNL     1       2.378   1.434  -0.013  0.00  0.00    +0.049 A 
ATOM      6  C   UNL     1       2.393   0.026  -0.021  0.00  0.00    -0.001 A 
ATOM      7  C   UNL     1       1.187  -0.683  -0.013  0.00  0.00    +0.013 A 
ATOM      8  C   UNL     1       3.681  -0.669  -0.036  0.00  0.00    +0.021 A 
ATOM      9  C   UNL     1       4.817   0.071  -0.043  0.00  0.00    +0.042 A 
ATOM     10  C   UNL     1       4.747   1.480  -0.034  0.00  0.00    +0.254 A 
ATOM     11  O   UNL     1       5.780   2.127  -0.040  0.00  0.00    -0.268 OA
ATOM     12  N   UNL     1       3.569   2.128  -0.020  0.00  0.00    -0.322 N 
ATOM     13  H   UNL     1       3.564   3.228  -0.013  0.00  0.00    +0.169 HD
BRANCH   2  15
ATOM     14  C   UNL     1      -1.750  -1.020  -1.429  0.00  0.00    +0.009 C 
ATOM     15  C   UNL     1      -1.297  -0.769   0.011  0.00  0.00    +0.032 C 
ENDBRANCH   2  15
ENDBRANCH   1   9
BRANCH   1  16
ATOM     16  N   UNL     1       6.946  -0.123  -1.198  0.00  0.00    -0.286 NA
ATOM     17  C   UNL     1       6.221  -0.317  -2.462  0.00  0.00    +0.104 C 
ATOM     18  C   UNL     1       7.037   0.278  -3.611  0.00  0.00    +0.120 C 
ATOM     19  N   UNL     1       8.356  -0.369  -3.659  0.00  0.00    -0.327 N 
ATOM     20  C   UNL     1       9.081  -0.175  -2.396  0.00  0.00    +0.120 C 
ATOM     21  C   UNL     1       8.264  -0.770  -1.246  0.00  0.00    +0.104 C 
BRANCH  19  22
ATOM     22  C   UNL     1       9.105   0.099  -4.744  0.00  0.00    +0.030 A 
ATOM     23  C   UNL     1      10.357   0.661  -4.533  0.00  0.00    +0.027 A 
ATOM     24  C   UNL     1      11.099   1.117  -5.605  0.00  0.00    +0.047 A 
ATOM     25  C   UNL     1      10.588   1.025  -6.891  0.00  0.00    +0.120 A 
ATOM     26  C   UNL     1       9.335   0.469  -7.103  0.00  0.00    +0.047 A 
ATOM     27  C   UNL     1       8.595   0.006  -6.032  0.00  0.00    +0.027 A 
BRANCH  25  28
ATOM     28  O   UNL     1      11.316   1.480  -7.946  0.00  0.00    -0.495 OA
ATOM     29  C   UNL     1      12.598   2.041  -7.656  0.00  0.00    +0.277 C 
ENDBRANCH  25  28
ENDBRANCH  19  22
ENDBRANCH   1  16
BRANCH   1  30
ATOM     30  C   UNL     1       6.891  -0.314   1.224  0.00  0.00    +0.173 A 
ATOM     31  N   UNL     1       7.475   0.814   1.546  0.00  0.00    -0.111 NA
ATOM     32  N   UNL     1       7.988   0.675   2.720  0.00  0.00    -0.023 NA
ATOM     33  N   UNL     1       7.746  -0.512   3.155  0.00  0.00    -0.043 NA
ATOM     34  N   UNL     1       7.068  -1.151   2.263  0.00  0.00    -0.220 N 
BRANCH  34  35
ATOM     35  C   UNL     1       6.583  -2.530   2.361  0.00  0.00    +0.221 C 
BRANCH  35  36
ATOM     36  C   UNL     1       7.627  -3.470   1.814  0.00  0.00    +0.126 A 
ATOM     37  C   UNL     1       8.619  -4.041   2.520  0.00  0.00    +0.046 A 
ATOM     38  C   UNL     1       9.355  -4.843   1.618  0.00  0.00    +0.041 A 
ATOM     39  C   UNL     1       8.774  -4.707   0.412  0.00  0.00    +0.195 A 
ATOM     40  O   UNL     1       7.728  -3.874   0.537  0.00  0.00    -0.466 OA
ENDBRANCH  35  36
ENDBRANCH  34  35
ENDBRANCH   1  30
TORSDOF 8
