REMARK  Name = ZINC11972120
REMARK  6 active torsions:
REMARK  status: ('A' for Active; 'I' for Inactive)
REMARK    1  A    between atoms: C_1  and  O_2
REMARK    2  A    between atoms: O_2  and  C_3
REMARK    3  A    between atoms: C_8  and  C_9
REMARK    4  A    between atoms: C_20  and  C_21
REMARK    5  A    between atoms: C_20  and  N_50
REMARK    6  A    between atoms: C_26  and  O_27
REMARK                            x       y       z     vdW  Elec       q    Type
REMARK                         _______ _______ _______ _____ _____    ______ ____
ROOT
ATOM      1  C   UNL     1      -3.151   3.643   1.331  0.00  0.00    +0.191 C 
ATOM      2  C   UNL     1      -3.995   2.387   1.314  0.00  0.00    -0.028 C 
ATOM      3  C   UNL     1      -2.521   0.985  -0.024  0.00  0.00    -0.039 C 
ATOM      4  C   UNL     1      -1.215   1.753   0.017  0.00  0.00    -0.022 A 
ATOM      5  C   UNL     1      -0.013   1.076   0.008  0.00  0.00    +0.005 A 
ATOM      6  C   UNL     1       1.174   1.787   0.000  0.00  0.00    +0.000 A 
ATOM      7  C   UNL     1       1.155   3.170   0.008  0.00  0.00    +0.004 A 
ATOM      8  C   UNL     1      -0.049   3.848   0.031  0.00  0.00    +0.046 A 
ATOM      9  C   UNL     1      -1.239   3.134   0.047  0.00  0.00    +0.123 A 
ATOM     10  O   UNL     1      -2.431   3.789   0.112  0.00  0.00    -0.486 OA
ATOM     11  N   UNL     1      -3.187   1.150   1.291  0.00  0.00    +0.388 N 
ATOM     12  H   UNL     1      -2.466   1.213   2.020  0.00  0.00    -0.081 HD
ENDROOT
BRANCH   1  18
ATOM     13  C   UNL     1      -4.416   5.227   2.807  0.00  0.00    +0.127 A 
ATOM     14  C   UNL     1      -5.240   6.329   2.984  0.00  0.00    +0.046 A 
ATOM     15  C   UNL     1      -5.690   7.038   1.887  0.00  0.00    +0.004 A 
ATOM     16  C   UNL     1      -5.319   6.649   0.612  0.00  0.00    +0.001 A 
ATOM     17  C   UNL     1      -4.494   5.554   0.433  0.00  0.00    +0.011 A 
ATOM     18  C   UNL     1      -4.046   4.839   1.527  0.00  0.00    +0.032 A 
BRANCH  13  20
ATOM     19  C   UNL     1      -4.393   4.985   5.171  0.00  0.00    +0.277 C 
ATOM     20  O   UNL     1      -3.972   4.529   3.884  0.00  0.00    -0.495 OA
ENDBRANCH  13  20
ENDBRANCH   1  18
BRANCH  11  21
ATOM     21  C   UNL     1      -4.045  -0.013   1.570  0.00  0.00    -0.039 C 
BRANCH  21  22
ATOM     22  C   UNL     1      -5.168  -0.109   0.570  0.00  0.00    -0.022 A 
ATOM     23  C   UNL     1      -6.430   0.344   0.902  0.00  0.00    +0.005 A 
ATOM     24  C   UNL     1      -7.460   0.257  -0.016  0.00  0.00    +0.000 A 
ATOM     25  C   UNL     1      -7.231  -0.283  -1.268  0.00  0.00    +0.004 A 
ATOM     26  C   UNL     1      -5.971  -0.738  -1.605  0.00  0.00    +0.045 A 
ATOM     27  C   UNL     1      -4.933  -0.646  -0.688  0.00  0.00    +0.118 A 
BRANCH  27  28
ATOM     28  O   UNL     1      -3.691  -1.087  -1.019  0.00  0.00    -0.507 OA
ATOM     29  H   UNL     1      -3.535  -2.018  -0.809  0.00  0.00    +0.292 HD
ENDBRANCH  27  28
ENDBRANCH  21  22
ENDBRANCH  11  21
TORSDOF 5
