REMARK  Name = ZINC04788096
REMARK  5 active torsions:
REMARK  status: ('A' for Active; 'I' for Inactive)
REMARK    1  A    between atoms: C_1  and  C_2
REMARK    2  A    between atoms: C_6  and  C_8
REMARK    3  A    between atoms: C_8  and  N_9
REMARK    4  A    between atoms: C_12  and  C_16
REMARK    5  A    between atoms: C_12  and  C_17
REMARK                            x       y       z     vdW  Elec       q    Type
REMARK                         _______ _______ _______ _____ _____    ______ ____
ROOT
ATOM      1  N   UNL     1      -2.119   3.276  -1.782  0.00  0.00    -0.220 N 
ATOM      2  C   UNL     1      -1.232   3.399  -0.775  0.00  0.00    +0.251 C 
ATOM      3  O   UNL     1      -0.505   4.343  -0.551  0.00  0.00    -0.272 OA
ATOM      4  C   UNL     1      -1.333   2.112   0.020  0.00  0.00    +0.135 C 
ATOM      5  N   UNL     1      -2.362   1.341  -0.699  0.00  0.00    -0.281 N 
ATOM      6  C   UNL     1      -2.760   2.103  -1.734  0.00  0.00    +0.310 C 
ATOM      7  O   UNL     1      -3.607   1.763  -2.537  0.00  0.00    -0.252 OA
ATOM      8  C   UNL     1      -1.778   2.396   1.456  0.00  0.00    +0.047 C 
ATOM      9  H   UNL     1      -2.689   0.457  -0.470  0.00  0.00    +0.152 HD
ENDROOT
BRANCH   4  10
ATOM     10  C   UNL     1      -0.017   1.378   0.010  0.00  0.00    -0.012 A 
ATOM     11  C   UNL     1       1.169   2.089   0.002  0.00  0.00    +0.010 A 
ATOM     12  C   UNL     1       2.379   1.420  -0.013  0.00  0.00    +0.050 A 
ATOM     13  C   UNL     1       2.405   0.035  -0.021  0.00  0.00    +0.166 A 
ATOM     14  C   UNL     1       1.211  -0.681  -0.013  0.00  0.00    +0.167 A 
ATOM     15  C   UNL     1       0.002  -0.004   0.002  0.00  0.00    +0.055 A 
ATOM     16  O   UNL     1       1.501  -2.015  -0.024  0.00  0.00    -0.453 OA
ATOM     17  C   UNL     1       2.881  -2.111   0.375  0.00  0.00    +0.466 C 
ATOM     18  O   UNL     1       3.444  -0.851  -0.036  0.00  0.00    -0.453 OA
ENDBRANCH   4  10
BRANCH   1  19
ATOM     19  C   UNL     1      -2.353   4.301  -2.803  0.00  0.00    +0.153 C 
BRANCH  19  25
ATOM     20  C   UNL     1      -7.198   5.524  -2.541  0.00  0.00    +0.044 C 
ATOM     21  C   UNL     1      -5.758   5.821  -2.212  0.00  0.00    -0.050 A 
ATOM     22  C   UNL     1      -5.433   6.950  -1.484  0.00  0.00    +0.003 A 
ATOM     23  C   UNL     1      -4.112   7.222  -1.182  0.00  0.00    +0.001 A 
ATOM     24  C   UNL     1      -3.115   6.364  -1.609  0.00  0.00    +0.005 A 
ATOM     25  C   UNL     1      -3.439   5.235  -2.337  0.00  0.00    -0.029 A 
ATOM     26  C   UNL     1      -4.760   4.966  -2.643  0.00  0.00    +0.008 A 
ENDBRANCH  19  25
ENDBRANCH   1  19
TORSDOF 3
