REMARK  Name = ZINC14023323
REMARK  10 active torsions:
REMARK  status: ('A' for Active; 'I' for Inactive)
REMARK    1  A    between atoms: C_1  and  C_2
REMARK    2  A    between atoms: C_2  and  O_3
REMARK    3  A    between atoms: O_3  and  C_4
REMARK    4  A    between atoms: C_4  and  C_6
REMARK    5  A    between atoms: C_10  and  N_11
REMARK    6  A    between atoms: C_12  and  C_14
REMARK    7  A    between atoms: N_19  and  S_21
REMARK    8  A    between atoms: S_21  and  C_24
REMARK    9  A    between atoms: C_27  and  C_30
REMARK   10  A    between atoms: C_34  and  N_65
REMARK                            x       y       z     vdW  Elec       q    Type
REMARK                         _______ _______ _______ _____ _____    ______ ____
ROOT
ATOM      1  N   UNL     1       1.022  -5.968   1.902  0.00  0.00    -0.279 N 
ATOM      2  C   UNL     1       2.045  -6.247   2.733  0.00  0.00    +0.222 C 
ATOM      3  O   UNL     1       2.731  -5.349   3.174  0.00  0.00    -0.275 OA
ATOM      4  H   UNL     1       0.473  -6.686   1.549  0.00  0.00    +0.155 HD
ENDROOT
BRANCH   1   9
ATOM      5  C   UNL     1      -0.248  -4.171   0.716  0.00  0.00    +0.091 A 
ATOM      6  C   UNL     1      -0.312  -2.736   0.513  0.00  0.00    -0.025 A 
ATOM      7  C   UNL     1       0.626  -2.016   1.168  0.00  0.00    -0.021 A 
ATOM      8  S   UNL     1       1.583  -3.216   2.047  0.00  0.00    -0.079 S 
ATOM      9  C   UNL     1       0.753  -4.654   1.551  0.00  0.00    +0.086 A 
ATOM     10  C   UNL     1       0.789  -0.528   1.134  0.00  0.00    -0.036 C 
ATOM     11  C   UNL     1      -1.363  -0.549   0.021  0.00  0.00    -0.074 C 
ATOM     12  C   UNL     1      -1.342  -2.032  -0.364  0.00  0.00    +0.018 C 
ATOM     13  C   UNL     1      -0.018   1.465   0.010  0.00  0.00    -0.096 C 
ATOM     14  N   UNL     1       0.014  -0.013  -0.021  0.00  0.00    +0.381 N 
ATOM     15  H   UNL     1       0.466  -0.320  -0.890  0.00  0.00    -0.082 HD
BRANCH   5  16
ATOM     16  C   UNL     1      -1.199  -5.075   0.067  0.00  0.00    +0.342 C 
ATOM     17  O   UNL     1      -0.947  -5.538  -1.029  0.00  0.00    -0.245 OA
BRANCH  16  18
ATOM     18  O   UNL     1      -2.355  -5.394   0.685  0.00  0.00    -0.461 OA
BRANCH  18  20
ATOM     19  C   UNL     1      -4.500  -6.538   0.832  0.00  0.00    +0.048 C 
ATOM     20  C   UNL     1      -3.251  -6.295  -0.018  0.00  0.00    +0.229 C 
ENDBRANCH  18  20
ENDBRANCH  16  18
ENDBRANCH   5  16
ENDBRANCH   1   9
BRANCH   2  21
ATOM     21  C   UNL     1       2.338  -7.676   3.114  0.00  0.00    +0.091 C 
ATOM     22  C   UNL     1       2.656  -8.485   1.855  0.00  0.00    +0.015 C 
ATOM     23  C   UNL     1       2.921  -9.943   2.238  0.00  0.00    +0.018 C 
ATOM     24  C   UNL     1       4.132 -10.009   3.175  0.00  0.00    +0.109 C 
ATOM     25  N   UNL     1       3.893  -9.119   4.319  0.00  0.00    -0.176 NA
ATOM     26  C   UNL     1       3.542  -7.716   4.061  0.00  0.00    +0.122 C 
BRANCH  25  27
ATOM     27  S   UNL     1       4.019  -9.686   5.870  0.00  0.00    +0.061 S 
ATOM     28  O   UNL     1       4.874 -10.819   5.820  0.00  0.00    -0.153 OA
ATOM     29  O   UNL     1       4.292  -8.560   6.693  0.00  0.00    -0.153 OA
BRANCH  27  30
ATOM     30  C   UNL     1       2.426 -10.277   6.338  0.00  0.00    +0.105 A 
ATOM     31  C   UNL     1       1.524  -9.425   6.947  0.00  0.00    +0.029 A 
ATOM     32  C   UNL     1       0.273  -9.887   7.310  0.00  0.00    +0.005 A 
ATOM     33  C   UNL     1      -0.072 -11.205   7.074  0.00  0.00    -0.050 A 
ATOM     34  C   UNL     1       0.832 -12.059   6.470  0.00  0.00    +0.005 A 
ATOM     35  C   UNL     1       2.081 -11.595   6.102  0.00  0.00    +0.029 A 
ATOM     36  C   UNL     1      -1.433 -11.711   7.476  0.00  0.00    +0.044 C 
ENDBRANCH  27  30
ENDBRANCH  25  27
ENDBRANCH   2  21
TORSDOF 7
