REMARK  Name = ZINC35558201
REMARK  8 active torsions:
REMARK  status: ('A' for Active; 'I' for Inactive)
REMARK    1  A    between atoms: C_1  and  C_2
REMARK    2  A    between atoms: C_6  and  N_9
REMARK    3  A    between atoms: C_7  and  C_8
REMARK    4  A    between atoms: C_10  and  C_12
REMARK    5  A    between atoms: N_15  and  S_18
REMARK    6  A    between atoms: S_18  and  C_21
REMARK    7  A    between atoms: C_23  and  C_26
REMARK    8  A    between atoms: C_28  and  C_31
REMARK                            x       y       z     vdW  Elec       q    Type
REMARK                         _______ _______ _______ _____ _____    ______ ____
ROOT
ATOM      1  C   UNL     1      -0.129  -4.898   3.686  0.00  0.00    +0.078 C 
ATOM      2  C   UNL     1       1.109  -4.608   4.538  0.00  0.00    +0.030 C 
ATOM      3  C   UNL     1       0.990  -5.350   5.873  0.00  0.00    +0.110 C 
ATOM      4  N   UNL     1       0.765  -6.777   5.602  0.00  0.00    -0.176 NA
ATOM      5  C   UNL     1      -0.344  -7.162   4.720  0.00  0.00    +0.110 C 
ATOM      6  C   UNL     1      -0.211  -6.399   3.398  0.00  0.00    +0.030 C 
ENDROOT
BRANCH   1   8
ATOM      7  N   UNL     1       0.052  -2.797   2.393  0.00  0.00    -0.285 N 
ATOM      8  C   UNL     1      -0.031  -4.143   2.385  0.00  0.00    +0.220 C 
ATOM      9  O   UNL     1      -0.028  -4.745   1.333  0.00  0.00    -0.275 OA
ATOM     10  H   UNL     1       0.130  -2.321   3.234  0.00  0.00    +0.155 HD
BRANCH   7  16
ATOM     11  C   UNL     1       1.206   1.236  -0.172  0.00  0.00    +0.044 C 
ATOM     12  C   UNL     1       0.578  -0.131  -0.084  0.00  0.00    -0.046 A 
ATOM     13  C   UNL     1      -0.027  -0.686  -1.198  0.00  0.00    +0.004 A 
ATOM     14  C   UNL     1      -0.604  -1.940  -1.122  0.00  0.00    +0.002 A 
ATOM     15  C   UNL     1      -0.580  -2.642   0.067  0.00  0.00    +0.023 A 
ATOM     16  C   UNL     1       0.026  -2.088   1.187  0.00  0.00    +0.037 A 
ATOM     17  C   UNL     1       0.610  -0.831   1.106  0.00  0.00    -0.026 A 
ATOM     18  C   UNL     1       1.274  -0.228   2.317  0.00  0.00    +0.046 C 
ENDBRANCH   7  16
ENDBRANCH   1   8
BRANCH   4  19
ATOM     19  S   UNL     1       1.744  -7.928   6.278  0.00  0.00    +0.067 S 
ATOM     20  O   UNL     1       1.663  -9.073   5.441  0.00  0.00    -0.152 OA
ATOM     21  O   UNL     1       2.978  -7.289   6.576  0.00  0.00    -0.152 OA
BRANCH  19  22
ATOM     22  C   UNL     1       1.026  -8.382   7.822  0.00  0.00    +0.143 A 
ATOM     23  C   UNL     1       0.129  -9.358   8.086  0.00  0.00    +0.048 A 
ATOM     24  C   UNL     1      -0.268  -9.491   9.417  0.00  0.00    +0.031 A 
ATOM     25  C   UNL     1       0.268  -8.642  10.336  0.00  0.00    +0.058 A 
ATOM     26  S   UNL     1       1.304  -7.675   9.434  0.00  0.00    -0.076 S 
BRANCH  24  27
ATOM     27  C   UNL     1      -1.248 -10.528   9.819  0.00  0.00    +0.203 A 
ATOM     28  N   UNL     1      -1.701 -10.737  11.068  0.00  0.00    -0.191 NA
ATOM     29  C   UNL     1      -2.552 -11.723  11.075  0.00  0.00    +0.231 A 
ATOM     30  O   UNL     1      -2.677 -12.185   9.824  0.00  0.00    -0.337 OA
ATOM     31  N   UNL     1      -1.823 -11.390   9.015  0.00  0.00    -0.056 NA
BRANCH  29  32
ATOM     32  C   UNL     1      -3.274 -12.256  12.286  0.00  0.00    +0.078 C 
ATOM     33  C   UNL     1      -3.442 -13.784  12.281  0.00  0.00    +0.013 C 
ATOM     34  C   UNL     1      -4.854 -13.552  12.843  0.00  0.00    +0.001 C 
ATOM     35  C   UNL     1      -4.805 -12.166  12.179  0.00  0.00    +0.013 C 
ENDBRANCH  29  32
ENDBRANCH  24  27
ENDBRANCH  19  22
ENDBRANCH   4  19
TORSDOF 6
