REMARK  Name = ZINC18353675
REMARK  8 active torsions:
REMARK  status: ('A' for Active; 'I' for Inactive)
REMARK    1  A    between atoms: C_1  and  O_2
REMARK    2  A    between atoms: O_2  and  C_3
REMARK    3  A    between atoms: C_6  and  C_9
REMARK    4  A    between atoms: C_9  and  C_11
REMARK    5  A    between atoms: C_9  and  C_29
REMARK    6  A    between atoms: C_11  and  N_12
REMARK    7  A    between atoms: C_13  and  C_15
REMARK    8  A    between atoms: C_15  and  N_16
REMARK                            x       y       z     vdW  Elec       q    Type
REMARK                         _______ _______ _______ _____ _____    ______ ____
ROOT
ATOM      1  C   UNL     1      -2.527  -0.809   0.022  0.00  0.00    +0.068 C 
ENDROOT
BRANCH   1   2
ATOM      2  C   UNL     1      -1.037  -1.037   0.006  0.00  0.00    -0.013 A 
ATOM      3  C   UNL     1      -0.411  -2.224  -0.006  0.00  0.00    +0.088 A 
ATOM      4  N   UNL     1       0.945  -2.036  -0.018  0.00  0.00    -0.360 N 
ATOM      5  H   UNL     1       1.605  -2.746  -0.028  0.00  0.00    +0.165 HD
ATOM      6  C   UNL     1       1.231  -0.689  -0.013  0.00  0.00    +0.047 A 
ATOM      7  C   UNL     1       0.002  -0.004   0.002  0.00  0.00    +0.003 A 
ATOM      8  C   UNL     1      -0.017   1.392   0.010  0.00  0.00    +0.010 A 
ATOM      9  C   UNL     1       1.160   2.086   0.002  0.00  0.00    +0.001 A 
ATOM     10  C   UNL     1       2.375   1.415  -0.013  0.00  0.00    +0.002 A 
ATOM     11  C   UNL     1       2.417   0.038  -0.021  0.00  0.00    +0.026 A 
ENDBRANCH   1   2
BRANCH   1  15
ATOM     12  C   UNL     1      -4.206  -2.604   3.517  0.00  0.00    +0.120 A 
ATOM     13  C   UNL     1      -4.338  -1.240   3.305  0.00  0.00    +0.046 A 
ATOM     14  C   UNL     1      -3.794  -0.662   2.175  0.00  0.00    +0.008 A 
ATOM     15  C   UNL     1      -3.119  -1.442   1.255  0.00  0.00    -0.038 A 
ATOM     16  C   UNL     1      -2.991  -2.803   1.461  0.00  0.00    +0.008 A 
ATOM     17  C   UNL     1      -3.528  -3.385   2.593  0.00  0.00    +0.046 A 
BRANCH  12  19
ATOM     18  C   UNL     1      -4.566  -4.585   4.782  0.00  0.00    +0.277 C 
ATOM     19  O   UNL     1      -4.741  -3.175   4.629  0.00  0.00    -0.495 OA
ENDBRANCH  12  19
ENDBRANCH   1  15
BRANCH   1  20
ATOM     20  C   UNL     1      -3.152  -1.438  -1.225  0.00  0.00    +0.117 C 
BRANCH  20  21
ATOM     21  N   UNL     1      -2.666  -0.743  -2.419  0.00  0.00    -0.313 N 
ATOM     22  C   UNL     1      -3.085  -1.128  -3.641  0.00  0.00    +0.233 C 
ATOM     23  O   UNL     1      -3.864  -2.050  -3.752  0.00  0.00    -0.274 OA
ATOM     24  H   UNL     1      -2.042  -0.005  -2.330  0.00  0.00    +0.149 HD
BRANCH  22  25
ATOM     25  C   UNL     1      -2.585  -0.412  -4.869  0.00  0.00    +0.221 C 
BRANCH  25  26
ATOM     26  N   UNL     1      -3.183  -1.014  -6.063  0.00  0.00    -0.290 N 
ATOM     27  C   UNL     1      -2.546  -2.042  -6.681  0.00  0.00    +0.203 A 
ATOM     28  N   UNL     1      -3.047  -2.609  -7.745  0.00  0.00    -0.230 NA
ATOM     29  C   UNL     1      -4.199  -2.189  -8.263  0.00  0.00    +0.116 A 
ATOM     30  C   UNL     1      -4.926  -1.133  -7.698  0.00  0.00    +0.076 A 
ATOM     31  C   UNL     1      -4.352  -0.535  -6.529  0.00  0.00    +0.263 A 
ATOM     32  O   UNL     1      -4.912   0.391  -5.966  0.00  0.00    -0.267 OA
ATOM     33  C   UNL     1      -6.181  -0.776  -8.375  0.00  0.00    -0.023 A 
ATOM     34  C   UNL     1      -6.507  -1.490  -9.466  0.00  0.00    -0.004 A 
ATOM     35  S   UNL     1      -5.187  -2.667  -9.655  0.00  0.00    -0.073 S 
ATOM     36  C   UNL     1      -7.805  -1.035 -10.076  0.00  0.00    +0.043 C 
ATOM     37  C   UNL     1      -8.051   0.362  -9.466  0.00  0.00    +0.010 C 
ATOM     38  C   UNL     1      -7.279   0.264  -8.136  0.00  0.00    +0.037 C 
ENDBRANCH  25  26
ENDBRANCH  22  25
ENDBRANCH  20  21
ENDBRANCH   1  20
TORSDOF 7
