REMARK  Name = ZINC59843789
REMARK  3 active torsions:
REMARK  status: ('A' for Active; 'I' for Inactive)
REMARK    1  A    between atoms: C_6  and  N_7
REMARK    2  A    between atoms: C_8  and  C_9
REMARK    3  A    between atoms: C_14  and  O_15
REMARK                            x       y       z     vdW  Elec       q    Type
REMARK                         _______ _______ _______ _____ _____    ______ ____
ROOT
ATOM      1  N   UNL     1      -1.175  -0.699   0.009  0.00  0.00    -0.255 NA
ATOM      2  C   UNL     1      -2.135  -0.347   0.819  0.00  0.00    +0.123 C 
ENDROOT
BRANCH   1   8
ATOM      3  C   UNL     1      -0.017   1.403   0.010  0.00  0.00    +0.030 A 
ATOM      4  C   UNL     1       1.139   2.114   0.003  0.00  0.00    +0.032 A 
ATOM      5  C   UNL     1       2.378   1.446  -0.013  0.00  0.00    +0.089 A 
ATOM      6  C   UNL     1       2.410   0.028  -0.021  0.00  0.00    +0.091 A 
ATOM      7  C   UNL     1       1.206  -0.691  -0.013  0.00  0.00    +0.057 A 
ATOM      8  C   UNL     1       0.002  -0.004   0.002  0.00  0.00    +0.066 A 
ATOM      9  N   UNL     1       3.590  -0.606  -0.034  0.00  0.00    -0.252 NA
ATOM     10  C   UNL     1       4.703   0.091  -0.040  0.00  0.00    +0.131 A 
ATOM     11  C   UNL     1       4.670   1.487  -0.032  0.00  0.00    +0.131 A 
ATOM     12  N   UNL     1       3.526   2.132  -0.020  0.00  0.00    -0.252 NA
ENDBRANCH   1   8
BRANCH   2  13
ATOM     13  C   UNL     1      -3.401  -1.094   0.827  0.00  0.00    +0.036 A 
ATOM     14  C   UNL     1      -4.436  -0.716   1.690  0.00  0.00    +0.028 A 
ATOM     15  C   UNL     1      -5.620  -1.421   1.692  0.00  0.00    +0.019 A 
ATOM     16  C   UNL     1      -5.791  -2.504   0.842  0.00  0.00    +0.019 A 
ATOM     17  C   UNL     1      -4.777  -2.887  -0.014  0.00  0.00    +0.047 A 
ATOM     18  C   UNL     1      -3.582  -2.187  -0.035  0.00  0.00    +0.125 A 
ATOM     19 BR   UNL     1      -7.018  -0.911   2.858  0.00  0.00    -0.050 Br
BRANCH  18  20
ATOM     20  O   UNL     1      -2.587  -2.559  -0.880  0.00  0.00    -0.506 OA
ATOM     21  H   UNL     1      -1.976  -3.209  -0.506  0.00  0.00    +0.292 HD
ENDBRANCH  18  20
ENDBRANCH   2  13
TORSDOF 3
