REMARK  Name = ZINC38688538
REMARK  6 active torsions:
REMARK  status: ('A' for Active; 'I' for Inactive)
REMARK    1  A    between atoms: C_10  and  C_11
REMARK    2  A    between atoms: C_16  and  O_25
REMARK    3  A    between atoms: C_20  and  N_24
REMARK    4  A    between atoms: C_21  and  C_22
REMARK    5  A    between atoms: O_25  and  C_26
REMARK    6  A    between atoms: C_26  and  C_28
REMARK                            x       y       z     vdW  Elec       q    Type
REMARK                         _______ _______ _______ _____ _____    ______ ____
ROOT
ATOM      1  C   UNL     1       4.973   0.139  -0.057  0.00  0.00    +0.098 C 
ATOM      2  C   UNL     1       5.715  -0.114   1.228  0.00  0.00    +0.008 A 
ATOM      3  C   UNL     1       5.308   0.525   2.386  0.00  0.00    +0.012 A 
ATOM      4  C   UNL     1       5.977   0.305   3.574  0.00  0.00    +0.047 A 
ATOM      5  C   UNL     1       7.062  -0.559   3.609  0.00  0.00    +0.135 A 
ATOM      6  C   UNL     1       7.472  -1.200   2.452  0.00  0.00    +0.093 A 
ATOM      7  C   UNL     1       6.798  -0.978   1.258  0.00  0.00    +0.138 A 
ATOM      8  O   UNL     1       7.212  -1.613   0.134  0.00  0.00    -0.441 OA
ATOM      9  C   UNL     1       6.852  -1.142  -1.072  0.00  0.00    +0.199 C 
ATOM     10  C   UNL     1       5.800  -0.310  -1.228  0.00  0.00    +0.098 C 
ENDROOT
BRANCH   1  20
ATOM     11  C   UNL     1       0.007   1.382   0.005  0.00  0.00    +0.001 A 
ATOM     12  C   UNL     1       1.199   2.105  -0.008  0.00  0.00    +0.001 A 
ATOM     13  C   UNL     1       2.403   1.471  -0.024  0.00  0.00    +0.009 A 
ATOM     14  C   UNL     1       2.449   0.066  -0.026  0.00  0.00    -0.014 A 
ATOM     15  C   UNL     1       1.237  -0.669  -0.012  0.00  0.00    -0.018 A 
ATOM     16  C   UNL     1       0.013   0.021   0.003  0.00  0.00    +0.008 A 
ATOM     17  C   UNL     1       1.284  -2.073  -0.014  0.00  0.00    +0.008 A 
ATOM     18  C   UNL     1       2.488  -2.708  -0.029  0.00  0.00    +0.001 A 
ATOM     19  C   UNL     1       3.679  -1.985  -0.042  0.00  0.00    +0.005 A 
ATOM     20  C   UNL     1       3.673  -0.624  -0.041  0.00  0.00    -0.027 A 
ENDBRANCH   1  20
BRANCH   9  21
ATOM     21  N   UNL     1       7.574  -1.520  -2.177  0.00  0.00    -0.328 N 
ATOM     22  H   UNL     1       8.332  -2.117  -2.080  0.00  0.00    +0.145 HD
ATOM     23  H   UNL     1       7.327  -1.189  -3.055  0.00  0.00    +0.145 HD
ENDBRANCH   9  21
BRANCH  10  24
ATOM     24  C   UNL     1       5.467   0.154  -2.542  0.00  0.00    +0.101 C 
ATOM     25  N   UNL     1       5.203   0.522  -3.583  0.00  0.00    -0.191 NA
ENDBRANCH  10  24
BRANCH   5  26
ATOM     26  O   UNL     1       7.722  -0.776   4.778  0.00  0.00    -0.423 OA
BRANCH  26  27
ATOM     27  C   UNL     1       8.916  -0.187   4.946  0.00  0.00    +0.357 C 
ATOM     28  O   UNL     1       9.330   0.588   4.116  0.00  0.00    -0.246 OA
BRANCH  27  29
ATOM     29  C   UNL     1       9.741  -0.490   6.171  0.00  0.00    +0.319 C 
ATOM     30  C   UNL     1       9.018   0.027   7.422  0.00  0.00    +0.285 C 
ATOM     31  O   UNL     1       9.833  -0.265   8.562  0.00  0.00    -0.484 OA
ATOM     32  C   UNL     1      11.158   0.032   8.460  0.00  0.00    +0.162 A 
ATOM     33  C   UNL     1      11.927   0.121   9.611  0.00  0.00    +0.049 A 
ATOM     34  C   UNL     1      13.273   0.418   9.522  0.00  0.00    +0.004 A 
ATOM     35  C   UNL     1      13.858   0.628   8.287  0.00  0.00    +0.004 A 
ATOM     36  C   UNL     1      13.097   0.542   7.136  0.00  0.00    +0.049 A 
ATOM     37  C   UNL     1      11.745   0.245   7.218  0.00  0.00    +0.163 A 
ATOM     38  O   UNL     1      11.007   0.172   6.077  0.00  0.00    -0.470 OA
ENDBRANCH  27  29
ENDBRANCH  26  27
ENDBRANCH   5  26
TORSDOF 6
