REMARK  Name = ZINC34863487
REMARK  14 active torsions:
REMARK  status: ('A' for Active; 'I' for Inactive)
REMARK    1  A    between atoms: C_1  and  C_2
REMARK    2  A    between atoms: C_2  and  C_3
REMARK    3  A    between atoms: C_3  and  C_5
REMARK    4  A    between atoms: C_3  and  C_6
REMARK    5  A    between atoms: N_8  and  C_9
REMARK    6  A    between atoms: C_9  and  C_11
REMARK    7  A    between atoms: C_9  and  C_18
REMARK    8  A    between atoms: C_11  and  C_12
REMARK    9  A    between atoms: C_21  and  S_32
REMARK   10  A    between atoms: N_22  and  C_23
REMARK   11  A    between atoms: C_26  and  N_29
REMARK   12  A    between atoms: S_32  and  C_33
REMARK   13  A    between atoms: C_33  and  C_34
REMARK   14  A    between atoms: C_38  and  C_40
REMARK                            x       y       z     vdW  Elec       q    Type
REMARK                         _______ _______ _______ _____ _____    ______ ____
ROOT
ATOM      1  C   UNL     1      -0.288  -4.566   2.437  0.00  0.00    +0.159 A 
ATOM      2  N   UNL     1      -1.265  -4.098   1.712  0.00  0.00    -0.131 NA
ATOM      3  N   UNL     1      -2.368  -4.674   2.031  0.00  0.00    -0.122 NA
ATOM      4  C   UNL     1      -2.156  -5.549   2.986  0.00  0.00    +0.196 A 
ATOM      5  N   UNL     1      -0.819  -5.513   3.272  0.00  0.00    -0.273 N 
ENDROOT
BRANCH   5   6
ATOM      6  C   UNL     1      -0.134  -6.282   4.225  0.00  0.00    +0.050 A 
ATOM      7  C   UNL     1       0.829  -7.196   3.819  0.00  0.00    +0.028 A 
ATOM      8  C   UNL     1       1.501  -7.952   4.759  0.00  0.00    +0.035 A 
ATOM      9  C   UNL     1       1.216  -7.799   6.103  0.00  0.00    +0.126 A 
ATOM     10  C   UNL     1       0.258  -6.889   6.511  0.00  0.00    +0.035 A 
ATOM     11  C   UNL     1      -0.414  -6.126   5.575  0.00  0.00    +0.028 A 
BRANCH   9  12
ATOM     12  N   UNL     1       1.938  -8.611   7.109  0.00  0.00    +0.056 N 
ATOM     13  O   UNL     1       2.776  -9.407   6.754  0.00  0.00    -0.126 OA
ATOM     14  O   UNL     1       1.690  -8.479   8.284  0.00  0.00    -0.126 OA
ENDBRANCH   9  12
ENDBRANCH   5   6
BRANCH   1  15
ATOM     15  C   UNL     1       1.158  -4.147   2.365  0.00  0.00    +0.146 C 
BRANCH  15  18
ATOM     16  C   UNL     1       0.657  -2.014   1.298  0.00  0.00    +0.216 C 
ATOM     17  O   UNL     1       0.062  -2.621   0.432  0.00  0.00    -0.276 OA
ATOM     18  N   UNL     1       1.241  -2.685   2.311  0.00  0.00    -0.305 N 
ATOM     19  H   UNL     1       1.716  -2.200   3.003  0.00  0.00    +0.149 HD
BRANCH  16  20
ATOM     20  C   UNL     1       0.742  -0.511   1.242  0.00  0.00    +0.072 C 
ATOM     21  C   UNL     1       2.210  -0.086   1.169  0.00  0.00    +0.017 C 
BRANCH  20  23
ATOM     22  C   UNL     1      -0.019   1.526   0.010  0.00  0.00    +0.004 C 
ATOM     23  C   UNL     1       0.002  -0.004   0.002  0.00  0.00    +0.009 C 
ENDBRANCH  20  23
ENDBRANCH  16  20
ENDBRANCH  15  18
BRANCH  15  24
ATOM     24  C   UNL     1       1.799  -4.741   1.110  0.00  0.00    +0.065 C 
BRANCH  24  25
ATOM     25  C   UNL     1       3.273  -4.426   1.101  0.00  0.00    -0.045 A 
ATOM     26  C   UNL     1       3.727  -3.263   0.508  0.00  0.00    +0.004 A 
ATOM     27  C   UNL     1       5.078  -2.973   0.499  0.00  0.00    +0.000 A 
ATOM     28  C   UNL     1       5.976  -3.846   1.085  0.00  0.00    +0.000 A 
ATOM     29  C   UNL     1       5.522  -5.009   1.679  0.00  0.00    +0.000 A 
ATOM     30  C   UNL     1       4.170  -5.297   1.690  0.00  0.00    +0.004 A 
ENDBRANCH  24  25
ENDBRANCH  15  24
ENDBRANCH   1  15
BRANCH   4  31
ATOM     31  S   UNL     1      -3.363  -6.581   3.750  0.00  0.00    -0.081 S 
BRANCH  31  32
ATOM     32  C   UNL     1      -4.910  -6.142   2.911  0.00  0.00    +0.112 C 
BRANCH  32  33
ATOM     33  C   UNL     1      -6.040  -6.963   3.477  0.00  0.00    -0.037 A 
ATOM     34  C   UNL     1      -6.349  -8.190   2.918  0.00  0.00    +0.004 A 
ATOM     35  C   UNL     1      -7.385  -8.943   3.437  0.00  0.00    +0.001 A 
ATOM     36  C   UNL     1      -8.111  -8.471   4.515  0.00  0.00    +0.003 A 
ATOM     37  C   UNL     1      -7.801  -7.245   5.073  0.00  0.00    -0.050 A 
ATOM     38  C   UNL     1      -6.762  -6.493   4.557  0.00  0.00    +0.007 A 
ATOM     39  C   UNL     1      -8.593  -6.730   6.248  0.00  0.00    +0.044 C 
ENDBRANCH  32  33
ENDBRANCH  31  32
ENDBRANCH   4  31
TORSDOF 11
