REMARK  Name = ZINC14471608
REMARK  3 active torsions:
REMARK  status: ('A' for Active; 'I' for Inactive)
REMARK    1  A    between atoms: C_3  and  C_10
REMARK    2  A    between atoms: C_5  and  N_7
REMARK    3  A    between atoms: C_23  and  C_26
REMARK                            x       y       z     vdW  Elec       q    Type
REMARK                         _______ _______ _______ _____ _____    ______ ____
ROOT
ATOM      1  C   UNL     1      -1.259   3.499   0.116  0.00  0.00    +0.105 C 
ATOM      2  C   UNL     1      -0.227   4.192  -0.749  0.00  0.00    +0.029 C 
ATOM      3  C   UNL     1      -0.166   5.723  -0.709  0.00  0.00    +0.033 C 
ATOM      4  C   UNL     1       1.313   5.977  -1.012  0.00  0.00    -0.030 C 
ATOM      5  C   UNL     1       2.038   4.928  -0.639  0.00  0.00    -0.023 C 
ATOM      6  C   UNL     1       1.133   3.921  -0.034  0.00  0.00    +0.049 C 
ATOM      7  C   UNL     1       1.379   2.466  -0.128  0.00  0.00    -0.018 A 
ATOM      8  C   UNL     1       2.654   1.952  -0.234  0.00  0.00    +0.006 A 
ATOM      9  C   UNL     1       2.866   0.585  -0.286  0.00  0.00    +0.002 A 
ATOM     10  C   UNL     1       1.793  -0.279  -0.228  0.00  0.00    +0.021 A 
ATOM     11  C   UNL     1       0.498   0.223  -0.124  0.00  0.00    +0.073 A 
ATOM     12  C   UNL     1       0.272   1.615  -0.085  0.00  0.00    +0.049 A 
ATOM     13  N   UNL     1      -1.043   2.050  -0.029  0.00  0.00    -0.335 N 
ATOM     14  H   UNL     1      -1.580   1.680  -0.798  0.00  0.00    +0.147 HD
ENDROOT
BRANCH   1  17
ATOM     15  C   UNL     1      -0.140   3.499   3.722  0.00  0.00    +0.003 A 
ATOM     16  C   UNL     1      -0.310   3.125   2.402  0.00  0.00    +0.005 A 
ATOM     17  C   UNL     1      -1.077   3.904   1.556  0.00  0.00    -0.025 A 
ATOM     18  C   UNL     1      -1.683   5.052   2.033  0.00  0.00    +0.038 A 
ATOM     19  C   UNL     1      -1.516   5.423   3.354  0.00  0.00    +0.127 A 
ATOM     20  C   UNL     1      -0.745   4.646   4.199  0.00  0.00    +0.033 A 
BRANCH  19  21
ATOM     21  N   UNL     1      -2.165   6.652   3.865  0.00  0.00    +0.056 N 
ATOM     22  O   UNL     1      -2.845   7.336   3.121  0.00  0.00    -0.126 OA
ATOM     23  O   UNL     1      -2.018   6.979   5.029  0.00  0.00    -0.126 OA
ENDBRANCH  19  21
ENDBRANCH   1  17
BRANCH  11  24
ATOM     24  C   UNL     1      -0.612  -0.680  -0.058  0.00  0.00    +0.101 C 
ATOM     25  N   UNL     1      -1.492  -1.396  -0.005  0.00  0.00    -0.191 NA
ENDBRANCH  11  24
TORSDOF 3
