REMARK  Name = ZINC12410973
REMARK  11 active torsions:
REMARK  status: ('A' for Active; 'I' for Inactive)
REMARK    1  A    between atoms: C_1  and  C_2
REMARK    2  A    between atoms: C_2  and  C_3
REMARK    3  A    between atoms: C_3  and  C_4
REMARK    4  A    between atoms: C_4  and  C_5
REMARK    5  A    between atoms: C_9  and  C_30
REMARK    6  A    between atoms: C_11  and  C_29
REMARK    7  A    between atoms: N_18  and  N_19
REMARK    8  A    between atoms: C_20  and  C_21
REMARK    9  A    between atoms: C_26  and  O_27
REMARK   10  A    between atoms: C_30  and  O_31
REMARK   11  A    between atoms: O_31  and  C_32
REMARK                            x       y       z     vdW  Elec       q    Type
REMARK                         _______ _______ _______ _____ _____    ______ ____
ROOT
ATOM      1  C   UNL     1      -2.837  -2.592  -0.109  0.00  0.00    +0.135 A 
ATOM      2  N   UNL     1      -3.814  -1.740  -0.105  0.00  0.00    -0.231 NA
ATOM      3  C   UNL     1      -5.114  -2.131   0.027  0.00  0.00    +0.095 A 
ATOM      4  C   UNL     1      -6.311  -1.272   0.046  0.00  0.00    +0.039 A 
ATOM      5  C   UNL     1      -6.367   0.137  -0.067  0.00  0.00    -0.008 A 
ATOM      6  C   UNL     1      -7.592   0.761  -0.026  0.00  0.00    +0.029 A 
ATOM      7  C   UNL     1      -8.752   0.017   0.125  0.00  0.00    +0.040 A 
ATOM      8  N   UNL     1      -8.694  -1.297   0.231  0.00  0.00    -0.245 NA
ATOM      9  C   UNL     1      -7.543  -1.936   0.196  0.00  0.00    +0.112 A 
ATOM     10  S   UNL     1      -7.101  -3.653   0.305  0.00  0.00    -0.062 S 
ATOM     11  C   UNL     1      -5.341  -3.499   0.158  0.00  0.00    +0.106 A 
ATOM     12  C   UNL     1      -4.282  -4.414   0.153  0.00  0.00    +0.289 A 
ATOM     13  O   UNL     1      -4.486  -5.612   0.269  0.00  0.00    -0.265 OA
ATOM     14  N   UNL     1      -3.024  -3.933   0.011  0.00  0.00    -0.181 N 
ATOM     15  C   UNL     1     -10.088   0.713   0.169  0.00  0.00    +0.065 C 
ENDROOT
BRANCH  14  16
ATOM     16  N   UNL     1      -1.928  -4.806  -0.005  0.00  0.00    -0.170 NA
ATOM     17  C   UNL     1      -1.782  -5.645  -0.986  0.00  0.00    +0.145 C 
BRANCH  17  18
ATOM     18  C   UNL     1      -0.696  -6.639  -0.948  0.00  0.00    +0.037 A 
ATOM     19  C   UNL     1      -0.531  -7.541  -2.003  0.00  0.00    +0.028 A 
ATOM     20  C   UNL     1       0.488  -8.469  -1.961  0.00  0.00    +0.019 A 
ATOM     21  C   UNL     1       1.350  -8.511  -0.877  0.00  0.00    +0.019 A 
ATOM     22  C   UNL     1       1.198  -7.625   0.172  0.00  0.00    +0.047 A 
ATOM     23  C   UNL     1       0.182  -6.683   0.144  0.00  0.00    +0.126 A 
ATOM     24 BR   UNL     1       0.711  -9.688  -3.389  0.00  0.00    -0.050 Br
BRANCH  23  25
ATOM     25  O   UNL     1       0.035  -5.808   1.172  0.00  0.00    -0.506 OA
ATOM     26  H   UNL     1      -0.543  -6.125   1.879  0.00  0.00    +0.292 HD
ENDBRANCH  23  25
ENDBRANCH  17  18
ENDBRANCH  14  16
BRANCH   1  27
ATOM     27  C   UNL     1      -1.430  -2.072  -0.261  0.00  0.00    +0.076 C 
BRANCH  27  28
ATOM     28  C   UNL     1      -1.460  -0.547  -0.379  0.00  0.00    +0.007 C 
BRANCH  28  30
ATOM     29  C   UNL     1      -0.062   1.506  -0.651  0.00  0.00    +0.004 C 
ATOM     30  C   UNL     1      -0.032  -0.019  -0.533  0.00  0.00    -0.003 C 
ENDBRANCH  28  30
ENDBRANCH  27  28
ENDBRANCH   1  27
BRANCH   5  31
ATOM     31  C   UNL     1      -5.103   0.942  -0.231  0.00  0.00    +0.195 C 
BRANCH  31  32
ATOM     32  O   UNL     1      -5.431   2.329  -0.322  0.00  0.00    -0.378 OA
ATOM     33  C   UNL     1      -4.297   3.185  -0.479  0.00  0.00    +0.194 C 
ENDBRANCH  31  32
ENDBRANCH   5  31
TORSDOF 8
