REMARK  Name = ZINC39324921
REMARK  12 active torsions:
REMARK  status: ('A' for Active; 'I' for Inactive)
REMARK    1  A    between atoms: C_1  and  C_2
REMARK    2  A    between atoms: C_2  and  O_3
REMARK    3  A    between atoms: O_3  and  C_4
REMARK    4  A    between atoms: C_11  and  C_16
REMARK    5  A    between atoms: C_16  and  N_17
REMARK    6  A    between atoms: N_17  and  C_18
REMARK    7  A    between atoms: N_17  and  S_24
REMARK    8  A    between atoms: C_18  and  C_19
REMARK    9  A    between atoms: S_24  and  C_27
REMARK   10  A    between atoms: C_28  and  C_35
REMARK   11  A    between atoms: C_30  and  C_34
REMARK   12  A    between atoms: C_32  and  C_33
REMARK                            x       y       z     vdW  Elec       q    Type
REMARK                         _______ _______ _______ _____ _____    ______ ____
ROOT
ATOM      1  N   UNL     1      -5.420  -7.119   0.978  0.00  0.00    -0.171 NA
ENDROOT
BRANCH   1   2
ATOM      2  S   UNL     1      -6.838  -7.532   0.228  0.00  0.00    +0.062 S 
ATOM      3  O   UNL     1      -7.189  -8.823   0.706  0.00  0.00    -0.153 OA
ATOM      4  O   UNL     1      -7.704  -6.412   0.351  0.00  0.00    -0.153 OA
BRANCH   2   5
ATOM      5  C   UNL     1      -6.486  -7.710  -1.490  0.00  0.00    +0.111 A 
ATOM      6  C   UNL     1      -5.983  -8.903  -1.972  0.00  0.00    -0.024 A 
ATOM      7  C   UNL     1      -5.706  -9.043  -3.319  0.00  0.00    +0.008 A 
ATOM      8  C   UNL     1      -5.934  -7.988  -4.184  0.00  0.00    -0.050 A 
ATOM      9  C   UNL     1      -6.437  -6.795  -3.702  0.00  0.00    +0.008 A 
ATOM     10  C   UNL     1      -6.718  -6.657  -2.355  0.00  0.00    -0.024 A 
ATOM     11  C   UNL     1      -7.272  -5.358  -1.830  0.00  0.00    +0.046 C 
ATOM     12  C   UNL     1      -5.631  -8.140  -5.653  0.00  0.00    +0.044 C 
ATOM     13  C   UNL     1      -5.735 -10.053  -1.029  0.00  0.00    +0.046 C 
ENDBRANCH   2   5
ENDBRANCH   1   2
BRANCH   1  14
ATOM     14  C   UNL     1      -4.891  -5.760   0.847  0.00  0.00    +0.126 C 
BRANCH  14  22
ATOM     15  C   UNL     1      -0.506  -2.362  -0.973  0.00  0.00    +0.121 A 
ATOM     16  C   UNL     1       0.401  -3.427  -0.922  0.00  0.00    +0.047 A 
ATOM     17  C   UNL     1       0.007  -4.718  -0.775  0.00  0.00    +0.027 A 
ATOM     18  C   UNL     1      -1.358  -5.041  -0.666  0.00  0.00    +0.041 A 
ATOM     19  N   UNL     1      -1.731  -6.313  -0.522  0.00  0.00    -0.284 N 
ATOM     20  C   UNL     1      -2.995  -6.687  -0.414  0.00  0.00    +0.225 C 
ATOM     21  O   UNL     1      -3.274  -7.864  -0.284  0.00  0.00    -0.275 OA
ATOM     22  C   UNL     1      -4.091  -5.647  -0.453  0.00  0.00    +0.114 C 
ATOM     23  C   UNL     1      -3.673  -4.199  -0.616  0.00  0.00    -0.003 C 
ATOM     24  C   UNL     1      -2.338  -3.942  -0.717  0.00  0.00    -0.004 A 
ATOM     25  C   UNL     1      -1.848  -2.572  -0.871  0.00  0.00    +0.055 A 
ATOM     26  H   UNL     1      -1.043  -6.996  -0.496  0.00  0.00    +0.155 HD
BRANCH  15  27
ATOM     27  O   UNL     1      -0.039  -1.094  -1.122  0.00  0.00    -0.492 OA
BRANCH  27  29
ATOM     28  C   UNL     1       1.711   0.552  -1.386  0.00  0.00    +0.048 C 
ATOM     29  C   UNL     1       1.377  -0.933  -1.225  0.00  0.00    +0.225 C 
ENDBRANCH  27  29
ENDBRANCH  15  27
ENDBRANCH  14  22
ENDBRANCH   1  14
BRANCH   1  30
ATOM     30  C   UNL     1      -4.696  -8.114   1.773  0.00  0.00    +0.151 C 
BRANCH  30  31
ATOM     31  C   UNL     1      -5.096  -7.988   3.221  0.00  0.00    +0.005 A 
ATOM     32  C   UNL     1      -6.098  -8.611   3.887  0.00  0.00    +0.012 A 
ATOM     33  C   UNL     1      -6.281  -8.339   5.230  0.00  0.00    +0.008 A 
ATOM     34  C   UNL     1      -5.453  -7.456   5.841  0.00  0.00    +0.045 A 
ATOM     35  S   UNL     1      -4.367  -6.984   4.505  0.00  0.00    -0.100 S 
ENDBRANCH  30  31
ENDBRANCH   1  30
TORSDOF 8
