REMARK  Name = ZINC34978619
REMARK  9 active torsions:
REMARK  status: ('A' for Active; 'I' for Inactive)
REMARK    1  A    between atoms: C_1  and  C_2
REMARK    2  A    between atoms: N_11  and  C_12
REMARK    3  A    between atoms: C_12  and  C_13
REMARK    4  A    between atoms: C_12  and  C_14
REMARK    5  A    between atoms: C_15  and  C_17
REMARK    6  A    between atoms: C_17  and  C_19
REMARK    7  A    between atoms: C_17  and  N_26
REMARK    8  A    between atoms: C_19  and  C_20
REMARK    9  A    between atoms: C_27  and  C_29
REMARK                            x       y       z     vdW  Elec       q    Type
REMARK                         _______ _______ _______ _____ _____    ______ ____
ROOT
ATOM      1  C   UNL     1      -3.772   0.806   2.592  0.00  0.00    +0.164 C 
ENDROOT
BRANCH   1  12
ATOM      2  C   UNL     1      -3.133  -2.852   1.629  0.00  0.00    +0.030 C 
ATOM      3  C   UNL     1      -1.694  -2.364   1.452  0.00  0.00    +0.092 C 
ATOM      4  C   UNL     1      -1.601  -0.882   1.837  0.00  0.00    +0.130 C 
ATOM      5  N   UNL     1      -2.299  -0.087   0.817  0.00  0.00    -0.297 N 
ATOM      6  C   UNL     1      -1.899  -0.232  -0.590  0.00  0.00    +0.127 C 
ATOM      7  C   UNL     1      -1.992  -1.713  -0.975  0.00  0.00    +0.128 C 
ATOM      8  N   UNL     1      -1.293  -2.513   0.045  0.00  0.00    -0.280 N 
ATOM      9  C   UNL     1      -0.303  -3.360  -0.300  0.00  0.00    +0.303 C 
ATOM     10  O   UNL     1       0.203  -4.079   0.541  0.00  0.00    -0.253 OA
ATOM     11  N   UNL     1       0.126  -3.411  -1.576  0.00  0.00    -0.297 N 
ATOM     12  C   UNL     1      -3.288   0.760   1.166  0.00  0.00    +0.236 C 
ATOM     13  O   UNL     1      -3.788   1.484   0.332  0.00  0.00    -0.274 OA
ATOM     14  H   UNL     1      -0.225  -2.787  -2.231  0.00  0.00    +0.150 HD
BRANCH  11  15
ATOM     15  C   UNL     1       1.121  -4.409  -1.976  0.00  0.00    +0.068 C 
ATOM     16  C   UNL     1       0.418  -5.724  -2.314  0.00  0.00    +0.027 C 
ATOM     17  C   UNL     1       1.882  -3.907  -3.204  0.00  0.00    +0.027 C 
ENDBRANCH  11  15
ENDBRANCH   1  12
BRANCH   1  18
ATOM     18  N   UNL     1      -4.971   1.643   2.674  0.00  0.00    -0.300 N 
ATOM     19  C   UNL     1      -5.860   1.453   3.669  0.00  0.00    +0.245 C 
ATOM     20  O   UNL     1      -5.666   0.587   4.500  0.00  0.00    -0.270 OA
ATOM     21  H   UNL     1      -5.126   2.335   2.011  0.00  0.00    +0.150 HD
BRANCH  19  22
ATOM     22  C   UNL     1      -7.070   2.298   3.751  0.00  0.00    +0.037 A 
ATOM     23  C   UNL     1      -7.298   3.290   2.796  0.00  0.00    +0.014 A 
ATOM     24  C   UNL     1      -8.429   4.075   2.878  0.00  0.00    +0.016 A 
ATOM     25  C   UNL     1      -9.337   3.881   3.905  0.00  0.00    +0.018 A 
ATOM     26  C   UNL     1      -9.116   2.898   4.856  0.00  0.00    +0.016 A 
ATOM     27  C   UNL     1      -7.992   2.103   4.781  0.00  0.00    +0.014 A 
ATOM     28 BR   UNL     1     -10.885   4.962   4.010  0.00  0.00    -0.050 Br
ENDBRANCH  19  22
ENDBRANCH   1  18
BRANCH   1  29
ATOM     29  C   UNL     1      -2.677   1.395   3.484  0.00  0.00    +0.067 C 
BRANCH  29  30
ATOM     30  C   UNL     1      -3.138   1.384   4.919  0.00  0.00    -0.045 A 
ATOM     31  C   UNL     1      -3.825   2.468   5.432  0.00  0.00    +0.004 A 
ATOM     32  C   UNL     1      -4.248   2.458   6.748  0.00  0.00    +0.000 A 
ATOM     33  C   UNL     1      -3.983   1.364   7.551  0.00  0.00    +0.000 A 
ATOM     34  C   UNL     1      -3.297   0.280   7.037  0.00  0.00    +0.000 A 
ATOM     35  C   UNL     1      -2.878   0.288   5.720  0.00  0.00    +0.004 A 
ENDBRANCH  29  30
ENDBRANCH   1  29
TORSDOF 6
