REMARK  Name = ZINC35646856
REMARK  14 active torsions:
REMARK  status: ('A' for Active; 'I' for Inactive)
REMARK    1  A    between atoms: C_1  and  C_2
REMARK    2  A    between atoms: C_2  and  N_3
REMARK    3  A    between atoms: C_4  and  C_24
REMARK    4  A    between atoms: C_5  and  C_19
REMARK    5  A    between atoms: C_6  and  C_11
REMARK    6  A    between atoms: C_14  and  C_18
REMARK    7  A    between atoms: C_16  and  C_17
REMARK    8  A    between atoms: C_19  and  O_21
REMARK    9  A    between atoms: O_21  and  C_22
REMARK   10  A    between atoms: C_22  and  C_23
REMARK   11  A    between atoms: C_24  and  N_25
REMARK   12  A    between atoms: N_34  and  C_35
REMARK   13  A    between atoms: C_35  and  C_36
REMARK   14  A    between atoms: C_35  and  C_37
REMARK                            x       y       z     vdW  Elec       q    Type
REMARK                         _______ _______ _______ _____ _____    ______ ____
ROOT
ATOM      1  N   UNL     1       1.354  -0.386   1.337  0.00  0.00    -0.261 N 
ATOM      2  C   UNL     1       2.268  -1.398   1.258  0.00  0.00    +0.010 C 
ATOM      3  C   UNL     1       2.519  -2.195   2.319  0.00  0.00    +0.076 C 
ATOM      4  C   UNL     1       1.754  -1.927   3.599  0.00  0.00    +0.144 C 
ATOM      5  N   UNL     1       0.792  -0.812   3.581  0.00  0.00    -0.288 N 
ATOM      6  C   UNL     1       0.655  -0.102   2.443  0.00  0.00    +0.307 C 
ATOM      7  O   UNL     1      -0.134   0.823   2.419  0.00  0.00    -0.252 OA
ATOM      8  H   UNL     1       0.272  -0.591   4.369  0.00  0.00    +0.151 HD
ENDROOT
BRANCH   4   9
ATOM      9  C   UNL     1       2.756  -1.657   4.692  0.00  0.00    -0.020 A 
ATOM     10  C   UNL     1       4.045  -1.275   4.369  0.00  0.00    +0.006 A 
ATOM     11  C   UNL     1       4.964  -1.027   5.371  0.00  0.00    +0.004 A 
ATOM     12  C   UNL     1       4.595  -1.161   6.696  0.00  0.00    -0.050 A 
ATOM     13  C   UNL     1       3.306  -1.543   7.019  0.00  0.00    +0.007 A 
ATOM     14  C   UNL     1       2.385  -1.786   6.017  0.00  0.00    -0.045 A 
ATOM     15  C   UNL     1       0.979  -2.197   6.370  0.00  0.00    +0.044 C 
ATOM     16  C   UNL     1       5.597  -0.892   7.789  0.00  0.00    +0.044 C 
ENDBRANCH   4   9
BRANCH   1  18
ATOM     17  C   UNL     1       2.050   1.662   0.196  0.00  0.00    +0.025 C 
ATOM     18  C   UNL     1       1.132   0.439   0.147  0.00  0.00    +0.111 C 
ENDBRANCH   1  18
BRANCH   3  19
ATOM     19  C   UNL     1       3.464  -3.244   2.239  0.00  0.00    +0.339 C 
ATOM     20  O   UNL     1       4.128  -3.389   1.229  0.00  0.00    -0.245 OA
BRANCH  19  21
ATOM     21  O   UNL     1       3.629  -4.086   3.281  0.00  0.00    -0.462 OA
BRANCH  21  22
ATOM     22  C   UNL     1       4.676  -5.052   3.175  0.00  0.00    +0.229 C 
ATOM     23  C   UNL     1       4.631  -5.987   4.385  0.00  0.00    +0.048 C 
ENDBRANCH  21  22
ENDBRANCH  19  21
ENDBRANCH   3  19
BRANCH   2  24
ATOM     24  C   UNL     1       3.007  -1.631  -0.034  0.00  0.00    -0.026 C 
BRANCH  24  25
ATOM     25  N   UNL     1       2.388  -2.749  -0.758  0.00  0.00    +0.384 N 
ATOM     26  C   UNL     1       3.267  -3.125  -1.863  0.00  0.00    -0.077 C 
ATOM     27  C   UNL     1       3.096  -4.599  -2.157  0.00  0.00    +0.000 C 
ATOM     28  C   UNL     1       2.043  -4.782  -3.265  0.00  0.00    +0.107 C 
ATOM     29  N   UNL     1       0.916  -3.845  -3.087  0.00  0.00    -0.287 N 
ATOM     30  C   UNL     1       0.344  -3.559  -1.788  0.00  0.00    +0.091 C 
ATOM     31  C   UNL     1       1.083  -2.366  -1.139  0.00  0.00    -0.059 C 
ATOM     32  C   UNL     1       0.402  -3.233  -4.172  0.00  0.00    +0.302 C 
ATOM     33  O   UNL     1       0.805  -3.523  -5.282  0.00  0.00    -0.253 OA
ATOM     34  N   UNL     1      -0.558  -2.298  -4.027  0.00  0.00    -0.297 N 
ATOM     35  H   UNL     1      -0.829  -2.014  -3.140  0.00  0.00    +0.150 HD
ATOM     36  H   UNL     1       2.319  -3.534  -0.128  0.00  0.00    -0.081 HD
BRANCH  34  37
ATOM     37  C   UNL     1      -1.194  -1.712  -5.210  0.00  0.00    +0.068 C 
ATOM     38  C   UNL     1      -2.588  -1.201  -4.838  0.00  0.00    +0.027 C 
ATOM     39  C   UNL     1      -0.344  -0.547  -5.721  0.00  0.00    +0.027 C 
ENDBRANCH  34  37
ENDBRANCH  24  25
ENDBRANCH   2  24
TORSDOF 8
