REMARK  Name = ZINC22808871
REMARK  8 active torsions:
REMARK  status: ('A' for Active; 'I' for Inactive)
REMARK    1  A    between atoms: C_4  and  C_7
REMARK    2  A    between atoms: C_9  and  C_12
REMARK    3  A    between atoms: C_12  and  N_13
REMARK    4  A    between atoms: N_16  and  C_19
REMARK    5  A    between atoms: C_19  and  C_20
REMARK    6  A    between atoms: C_20  and  C_21
REMARK    7  A    between atoms: N_23  and  C_24
REMARK    8  A    between atoms: C_25  and  C_33
REMARK                            x       y       z     vdW  Elec       q    Type
REMARK                         _______ _______ _______ _____ _____    ______ ____
ROOT
ATOM      1  N   UNL     1      -4.966  12.028  -6.409  0.00  0.00    +0.385 N 
ATOM      2  C   UNL     1      -3.699  11.623  -7.033  0.00  0.00    -0.063 C 
ATOM      3  C   UNL     1      -3.396  10.168  -6.669  0.00  0.00    +0.066 C 
ATOM      4  N   UNL     1      -3.325  10.036  -5.207  0.00  0.00    -0.305 NA
ATOM      5  C   UNL     1      -4.592  10.441  -4.582  0.00  0.00    +0.066 C 
ATOM      6  C   UNL     1      -4.895  11.896  -4.947  0.00  0.00    -0.063 C 
ATOM      7  H   UNL     1      -5.755  11.353  -6.773  0.00  0.00    -0.081 HD
ENDROOT
BRANCH   1   8
ATOM      8  C   UNL     1      -5.331  13.397  -6.797  0.00  0.00    -0.022 C 
BRANCH   8  11
ATOM      9  C   UNL     1      -9.004  13.585  -6.723  0.00  0.00    +0.108 A 
ATOM     10  N   UNL     1      -7.755  13.345  -7.099  0.00  0.00    -0.246 NA
ATOM     11  C   UNL     1      -6.738  13.690  -6.345  0.00  0.00    +0.033 A 
ATOM     12  C   UNL     1      -6.956  14.316  -5.158  0.00  0.00    +0.068 A 
ATOM     13  S   UNL     1      -8.743  14.393  -5.149  0.00  0.00    -0.075 S 
BRANCH   9  17
ATOM     14  C   UNL     1     -12.642  12.692  -8.724  0.00  0.00    +0.000 A 
ATOM     15  C   UNL     1     -12.670  13.331  -7.498  0.00  0.00    +0.001 A 
ATOM     16  C   UNL     1     -11.492  13.624  -6.842  0.00  0.00    +0.010 A 
ATOM     17  C   UNL     1     -10.270  13.274  -7.420  0.00  0.00    +0.007 A 
ATOM     18  C   UNL     1     -10.249  12.635  -8.660  0.00  0.00    +0.010 A 
ATOM     19  C   UNL     1     -11.435  12.343  -9.302  0.00  0.00    +0.001 A 
ENDBRANCH   9  17
ENDBRANCH   8  11
ENDBRANCH   1   8
BRANCH   4  20
ATOM     20  C   UNL     1      -2.960   8.667  -4.819  0.00  0.00    +0.093 C 
BRANCH  20  21
ATOM     21  C   UNL     1      -2.653   8.627  -3.320  0.00  0.00    +0.111 C 
BRANCH  21  22
ATOM     22  C   UNL     1      -2.279   7.222  -2.922  0.00  0.00    +0.219 C 
ATOM     23  O   UNL     1      -2.260   6.341  -3.755  0.00  0.00    -0.275 OA
ATOM     24  N   UNL     1      -1.965   6.946  -1.641  0.00  0.00    -0.279 N 
ATOM     25  H   UNL     1      -1.982   7.746  -0.886  0.00  0.00    +0.155 HD
BRANCH  24  26
ATOM     26  C   UNL     1      -1.621   5.653  -1.274  0.00  0.00    +0.090 A 
ATOM     27  C   UNL     1      -1.271   5.177  -0.019  0.00  0.00    +0.084 A 
ATOM     28  C   UNL     1      -0.951   3.765   0.100  0.00  0.00    -0.018 A 
ATOM     29  C   UNL     1      -1.032   3.059  -1.049  0.00  0.00    -0.004 A 
ATOM     30  S   UNL     1      -1.524   4.240  -2.273  0.00  0.00    -0.077 S 
ATOM     31  C   UNL     1      -0.761   1.597  -1.232  0.00  0.00    +0.043 C 
ATOM     32  C   UNL     1      -0.013   1.086   0.008  0.00  0.00    +0.005 C 
ATOM     33  C   UNL     1      -0.735   1.583   1.264  0.00  0.00    +0.005 C 
ATOM     34  C   UNL     1      -0.551   3.094   1.407  0.00  0.00    +0.037 C 
BRANCH  27  35
ATOM     35  C   UNL     1      -1.226   6.046   1.118  0.00  0.00    +0.102 C 
ATOM     36  N   UNL     1      -1.191   6.736   2.020  0.00  0.00    -0.191 NA
ENDBRANCH  27  35
ENDBRANCH  24  26
ENDBRANCH  21  22
ENDBRANCH  20  21
ENDBRANCH   4  20
TORSDOF 8
