REMARK  Name = ZINC33929987
REMARK  6 active torsions:
REMARK  status: ('A' for Active; 'I' for Inactive)
REMARK    1  A    between atoms: C_1  and  C_2
REMARK    2  A    between atoms: C_2  and  C_4
REMARK    3  A    between atoms: C_2  and  N_10
REMARK    4  A    between atoms: C_14  and  C_15
REMARK    5  A    between atoms: C_16  and  N_26
REMARK    6  A    between atoms: C_29  and  C_32
REMARK                            x       y       z     vdW  Elec       q    Type
REMARK                         _______ _______ _______ _____ _____    ______ ____
ROOT
ATOM      1  C   UNL     1      -1.150  -2.527  -3.982  0.00  0.00    +0.081 A 
ATOM      2  C   UNL     1      -1.830  -3.322  -4.935  0.00  0.00    +0.136 A 
ATOM      3  N   UNL     1      -3.103  -3.631  -4.738  0.00  0.00    -0.214 NA
ATOM      4  C   UNL     1      -3.766  -3.212  -3.660  0.00  0.00    +0.142 A 
ATOM      5  C   UNL     1      -5.117  -3.573  -3.504  0.00  0.00    +0.047 A 
ATOM      6  C   UNL     1      -5.803  -3.149  -2.405  0.00  0.00    +0.005 A 
ATOM      7  C   UNL     1      -5.154  -2.360  -1.446  0.00  0.00    +0.018 A 
ATOM      8  C   UNL     1      -3.855  -2.023  -1.612  0.00  0.00    +0.096 A 
ATOM      9  N   UNL     1      -3.160  -2.442  -2.707  0.00  0.00    -0.268 N 
ATOM     10  C   UNL     1      -1.862  -2.093  -2.839  0.00  0.00    +0.267 A 
ATOM     11  O   UNL     1      -1.314  -1.410  -1.990  0.00  0.00    -0.267 OA
ENDROOT
BRANCH   1  16
ATOM     12  N   UNL     1       2.102  -3.891  -1.536  0.00  0.00    -0.248 N 
ATOM     13  C   UNL     1       1.020  -3.578  -2.229  0.00  0.00    +0.259 C 
ATOM     14  O   UNL     1      -0.063  -4.062  -1.951  0.00  0.00    -0.269 OA
ATOM     15  C   UNL     1       1.157  -2.660  -3.308  0.00  0.00    +0.077 C 
ATOM     16  C   UNL     1       0.209  -2.180  -4.165  0.00  0.00    +0.037 C 
ATOM     17  S   UNL     1       2.908  -2.305  -3.235  0.00  0.00    -0.061 S 
ATOM     18  C   UNL     1       3.303  -3.349  -1.841  0.00  0.00    +0.121 C 
ATOM     19  S   UNL     1       4.817  -3.601  -1.083  0.00  0.00    -0.027 S 
BRANCH  12  21
ATOM     20  C   UNL     1       2.325  -4.111   0.889  0.00  0.00    +0.033 C 
ATOM     21  C   UNL     1       1.997  -4.833  -0.419  0.00  0.00    +0.110 C 
BRANCH  21  22
ATOM     22  C   UNL     1       2.969  -5.966  -0.625  0.00  0.00    -0.027 A 
ATOM     23  C   UNL     1       3.658  -6.489   0.453  0.00  0.00    +0.005 A 
ATOM     24  C   UNL     1       4.550  -7.529   0.265  0.00  0.00    +0.000 A 
ATOM     25  C   UNL     1       4.751  -8.046  -1.002  0.00  0.00    +0.000 A 
ATOM     26  C   UNL     1       4.061  -7.523  -2.079  0.00  0.00    +0.000 A 
ATOM     27  C   UNL     1       3.166  -6.486  -1.890  0.00  0.00    +0.005 A 
ENDBRANCH  21  22
ENDBRANCH  12  21
ENDBRANCH   1  16
BRANCH   2  28
ATOM     28  N   UNL     1      -1.173  -3.771  -6.060  0.00  0.00    -0.314 N 
ATOM     29  C   UNL     1       0.206  -4.269  -5.973  0.00  0.00    +0.107 C 
ATOM     30  C   UNL     1       0.266  -5.668  -6.595  0.00  0.00    +0.031 C 
ATOM     31  C   UNL     1      -0.294  -5.612  -8.018  0.00  0.00    +0.078 C 
ATOM     32  C   UNL     1      -1.757  -5.164  -7.976  0.00  0.00    +0.031 C 
ATOM     33  C   UNL     1      -1.841  -3.766  -7.369  0.00  0.00    +0.107 C 
BRANCH  31  34
ATOM     34  C   UNL     1      -0.206  -6.980  -8.646  0.00  0.00    +0.214 C 
ATOM     35  O   UNL     1       0.259  -7.907  -8.016  0.00  0.00    -0.276 OA
ATOM     36  N   UNL     1      -0.643  -7.173  -9.906  0.00  0.00    -0.329 N 
ATOM     37  H   UNL     1      -1.015  -6.431 -10.409  0.00  0.00    +0.145 HD
ATOM     38  H   UNL     1      -0.586  -8.053 -10.309  0.00  0.00    +0.145 HD
ENDBRANCH  31  34
ENDBRANCH   2  28
TORSDOF 5
