REMARK  Name = ZINC16648048
REMARK  14 active torsions:
REMARK  status: ('A' for Active; 'I' for Inactive)
REMARK    1  A    between atoms: C_1  and  O_2
REMARK    2  A    between atoms: O_2  and  C_3
REMARK    3  A    between atoms: C_3  and  C_4
REMARK    4  A    between atoms: C_4  and  C_5
REMARK    5  A    between atoms: C_5  and  N_6
REMARK    6  A    between atoms: N_6  and  C_7
REMARK    7  A    between atoms: C_7  and  C_8
REMARK    8  A    between atoms: N_10  and  C_11
REMARK    9  A    between atoms: N_10  and  C_23
REMARK   10  A    between atoms: C_11  and  C_12
REMARK   11  A    between atoms: C_12  and  C_13
REMARK   12  A    between atoms: C_23  and  C_24
REMARK   13  A    between atoms: C_30  and  C_32
REMARK   14  A    between atoms: C_36  and  N_38
REMARK                            x       y       z     vdW  Elec       q    Type
REMARK                         _______ _______ _______ _____ _____    ______ ____
ROOT
ATOM      1  C   UNL     1      -1.909   0.602   1.197  0.00  0.00    +0.233 C 
ATOM      2  O   UNL     1      -2.400  -0.130   0.364  0.00  0.00    -0.274 OA
ATOM      3  N   UNL     1      -0.953   1.483   0.841  0.00  0.00    -0.296 N 
ENDROOT
BRANCH   1   4
ATOM      4  C   UNL     1      -2.368   0.528   2.631  0.00  0.00    +0.203 C 
BRANCH   4   5
ATOM      5  N   UNL     1      -3.395  -0.509   2.761  0.00  0.00    -0.289 N 
ATOM      6  C   UNL     1      -4.695  -0.195   2.597  0.00  0.00    +0.247 C 
ATOM      7  O   UNL     1      -5.014   0.945   2.318  0.00  0.00    -0.270 OA
BRANCH   6   8
ATOM      8  C   UNL     1      -5.733  -1.235   2.757  0.00  0.00    +0.039 A 
ATOM      9  C   UNL     1      -5.465  -2.384   3.504  0.00  0.00    +0.013 A 
ATOM     10  C   UNL     1      -6.440  -3.348   3.653  0.00  0.00    +0.003 A 
ATOM     11  C   UNL     1      -7.677  -3.184   3.055  0.00  0.00    +0.033 A 
ATOM     12  C   UNL     1      -7.947  -2.051   2.310  0.00  0.00    +0.127 A 
ATOM     13  C   UNL     1      -6.983  -1.076   2.157  0.00  0.00    +0.045 A 
BRANCH  12  14
ATOM     14  N   UNL     1      -9.273  -1.884   1.674  0.00  0.00    +0.056 N 
ATOM     15  O   UNL     1      -9.512  -0.887   1.017  0.00  0.00    -0.126 OA
ATOM     16  O   UNL     1     -10.125  -2.744   1.808  0.00  0.00    -0.126 OA
ENDBRANCH  12  14
ENDBRANCH   6   8
BRANCH   5  17
ATOM     17  C   UNL     1      -3.008  -1.888   3.070  0.00  0.00    +0.111 C 
BRANCH  17  18
ATOM     18  C   UNL     1      -2.745  -2.020   4.572  0.00  0.00    +0.047 C 
BRANCH  18  19
ATOM     19  C   UNL     1      -2.341  -3.460   4.894  0.00  0.00    +0.161 C 
BRANCH  19  21
ATOM     20  C   UNL     1      -1.710  -4.896   6.706  0.00  0.00    +0.193 C 
ATOM     21  O   UNL     1      -2.096  -3.583   6.297  0.00  0.00    -0.383 OA
ENDBRANCH  19  21
ENDBRANCH  18  19
ENDBRANCH  17  18
ENDBRANCH   5  17
ENDBRANCH   4   5
ENDBRANCH   1   4
BRANCH   3  22
ATOM     22  C   UNL     1      -0.427   1.480  -0.526  0.00  0.00    +0.113 C 
BRANCH  22  23
ATOM     23  C   UNL     1      -1.260   2.424  -1.395  0.00  0.00    +0.056 C 
BRANCH  23  24
ATOM     24  C   UNL     1      -0.720   2.421  -2.802  0.00  0.00    -0.021 A 
ATOM     25  C   UNL     1       0.154   3.296  -3.324  0.00  0.00    +0.087 A 
ATOM     26  N   UNL     1       0.414   2.975  -4.628  0.00  0.00    -0.360 N 
ATOM     27  H   UNL     1       1.017   3.461  -5.212  0.00  0.00    +0.165 HD
ATOM     28  C   UNL     1      -0.311   1.861  -4.989  0.00  0.00    +0.047 A 
ATOM     29  C   UNL     1      -1.053   1.465  -3.861  0.00  0.00    +0.003 A 
ATOM     30  C   UNL     1      -1.890   0.350  -3.934  0.00  0.00    +0.010 A 
ATOM     31  C   UNL     1      -1.984  -0.352  -5.103  0.00  0.00    +0.001 A 
ATOM     32  C   UNL     1      -1.254   0.035  -6.219  0.00  0.00    +0.002 A 
ATOM     33  C   UNL     1      -0.422   1.132  -6.168  0.00  0.00    +0.026 A 
ENDBRANCH  23  24
ENDBRANCH  22  23
ENDBRANCH   3  22
BRANCH   3  34
ATOM     34  C   UNL     1      -0.439   2.443   1.821  0.00  0.00    +0.143 C 
BRANCH  34  35
ATOM     35  C   UNL     1       0.819   1.897   2.448  0.00  0.00    -0.030 A 
ATOM     36  C   UNL     1       0.755   1.234   3.659  0.00  0.00    +0.005 A 
ATOM     37  C   UNL     1       1.908   0.729   4.231  0.00  0.00    +0.000 A 
ATOM     38  C   UNL     1       3.125   0.895   3.597  0.00  0.00    +0.000 A 
ATOM     39  C   UNL     1       3.189   1.563   2.389  0.00  0.00    +0.000 A 
ATOM     40  C   UNL     1       2.035   2.063   1.814  0.00  0.00    +0.005 A 
ENDBRANCH  34  35
ENDBRANCH   3  34
TORSDOF 13
