REMARK  Name = ZINC34757197
REMARK  6 active torsions:
REMARK  status: ('A' for Active; 'I' for Inactive)
REMARK    1  A    between atoms: C_2  and  C_3
REMARK    2  A    between atoms: C_3  and  S_4
REMARK    3  A    between atoms: S_4  and  C_5
REMARK    4  A    between atoms: N_20  and  C_23
REMARK    5  A    between atoms: C_23  and  C_24
REMARK    6  A    between atoms: N_26  and  C_27
REMARK                            x       y       z     vdW  Elec       q    Type
REMARK                         _______ _______ _______ _____ _____    ______ ____
ROOT
ATOM      1  C   UNL     1      -3.286  -3.673  -0.393  0.00  0.00    +0.191 A 
ATOM      2  N   UNL     1      -3.700  -4.419  -1.411  0.00  0.00    -0.206 NA
ATOM      3  C   UNL     1      -4.569  -3.971  -2.302  0.00  0.00    +0.134 A 
ATOM      4  C   UNL     1      -5.079  -2.650  -2.169  0.00  0.00    +0.051 A 
ATOM      5  C   UNL     1      -6.045  -1.952  -3.034  0.00  0.00    -0.025 A 
ATOM      6  C   UNL     1      -6.369  -0.695  -2.693  0.00  0.00    -0.004 A 
ATOM      7  S   UNL     1      -5.430  -0.360  -1.220  0.00  0.00    -0.073 S 
ATOM      8  C   UNL     1      -4.599  -1.918  -1.069  0.00  0.00    +0.115 A 
ATOM      9  N   UNL     1      -3.733  -2.436  -0.218  0.00  0.00    -0.215 NA
ATOM     10  C   UNL     1      -7.356  -0.082  -3.649  0.00  0.00    +0.043 C 
ATOM     11  C   UNL     1      -7.293  -0.982  -4.902  0.00  0.00    +0.010 C 
ATOM     12  C   UNL     1      -6.823  -2.321  -4.301  0.00  0.00    +0.037 C 
ATOM     13  N   UNL     1      -4.977  -4.777  -3.349  0.00  0.00    -0.318 N 
ATOM     14  C   UNL     1      -6.199  -5.589  -3.248  0.00  0.00    +0.088 C 
ATOM     15  C   UNL     1      -5.861  -7.029  -3.651  0.00  0.00    -0.059 C 
ATOM     16  N   UNL     1      -5.242  -7.030  -4.982  0.00  0.00    +0.387 N 
ATOM     17  C   UNL     1      -3.957  -6.321  -4.936  0.00  0.00    -0.059 C 
ATOM     18  C   UNL     1      -4.203  -4.842  -4.599  0.00  0.00    +0.088 C 
ATOM     19  H   UNL     1      -5.855  -6.571  -5.638  0.00  0.00    -0.081 HD
ENDROOT
BRANCH   1  20
ATOM     20  S   UNL     1      -2.126  -4.342   0.752  0.00  0.00    -0.082 S 
BRANCH  20  21
ATOM     21  C   UNL     1      -1.866  -3.002   1.946  0.00  0.00    +0.104 C 
BRANCH  21  23
ATOM     22  C   UNL     1       0.284  -2.856   3.095  0.00  0.00    +0.005 C 
ATOM     23  C   UNL     1      -0.880  -3.448   2.996  0.00  0.00    -0.023 C 
ENDBRANCH  21  23
ENDBRANCH  20  21
ENDBRANCH   1  20
BRANCH  16  24
ATOM     24  C   UNL     1      -5.018  -8.416  -5.414  0.00  0.00    +0.019 C 
BRANCH  24  25
ATOM     25  C   UNL     1      -4.497  -8.424  -6.828  0.00  0.00    +0.197 C 
ATOM     26  O   UNL     1      -4.327  -7.378  -7.417  0.00  0.00    -0.278 OA
ATOM     27  N   UNL     1      -4.218  -9.593  -7.437  0.00  0.00    -0.314 N 
ATOM     28  H   UNL     1      -4.353 -10.430  -6.966  0.00  0.00    +0.149 HD
BRANCH  27  29
ATOM     29  C   UNL     1      -3.711  -9.601  -8.812  0.00  0.00    +0.073 C 
ATOM     30  C   UNL     1      -4.886  -9.539  -9.789  0.00  0.00    +0.022 C 
ATOM     31  C   UNL     1      -4.356  -9.547 -11.225  0.00  0.00    +0.002 C 
ATOM     32  C   UNL     1      -3.557 -10.829 -11.467  0.00  0.00    +0.000 C 
ATOM     33  C   UNL     1      -2.382 -10.890 -10.489  0.00  0.00    +0.002 C 
ATOM     34  C   UNL     1      -2.912 -10.883  -9.054  0.00  0.00    +0.022 C 
ENDBRANCH  27  29
ENDBRANCH  24  25
ENDBRANCH  16  24
TORSDOF 6
