REMARK  Name = ZINC59267200
REMARK  3 active torsions:
REMARK  status: ('A' for Active; 'I' for Inactive)
REMARK    1  A    between atoms: C_1  and  C_2
REMARK    2  A    between atoms: C_4  and  N_25
REMARK    3  A    between atoms: C_9  and  C_18
REMARK                            x       y       z     vdW  Elec       q    Type
REMARK                         _______ _______ _______ _____ _____    ______ ____
ROOT
ATOM      1  C   UNL     1      -0.018   1.503   0.010  0.00  0.00    +0.046 C 
ATOM      2  C   UNL     1       0.002  -0.004   0.002  0.00  0.00    -0.027 A 
ATOM      3  C   UNL     1       0.006  -0.684  -1.199  0.00  0.00    +0.038 A 
ATOM      4  C   UNL     1       0.026  -2.067  -1.214  0.00  0.00    +0.127 A 
ATOM      5  C   UNL     1       0.052  -2.771  -0.024  0.00  0.00    +0.038 A 
ATOM      6  C   UNL     1       0.053  -2.101   1.180  0.00  0.00    -0.017 A 
ATOM      7  C   UNL     1       0.023  -0.702   1.203  0.00  0.00    +0.034 A 
ATOM      8  N   UNL     1      -0.014   0.008   2.409  0.00  0.00    -0.336 N 
ATOM      9  C   UNL     1       0.021  -0.690   3.712  0.00  0.00    +0.105 C 
ATOM     10  C   UNL     1      -0.736  -1.989   3.502  0.00  0.00    +0.029 C 
ATOM     11  C   UNL     1       0.102  -2.804   2.480  0.00  0.00    +0.049 C 
ATOM     12  C   UNL     1      -0.403  -4.191   2.645  0.00  0.00    -0.023 C 
ATOM     13  C   UNL     1      -0.861  -4.331   3.883  0.00  0.00    -0.030 C 
ATOM     14  C   UNL     1      -0.728  -2.999   4.658  0.00  0.00    +0.033 C 
ATOM     15  H   UNL     1      -0.064   0.977   2.390  0.00  0.00    +0.147 HD
ENDROOT
BRANCH   9  16
ATOM     16  C   UNL     1      -0.657   0.145   4.768  0.00  0.00    -0.027 A 
ATOM     17  C   UNL     1      -1.817   0.833   4.466  0.00  0.00    +0.008 A 
ATOM     18  C   UNL     1      -2.440   1.598   5.434  0.00  0.00    +0.038 A 
ATOM     19  C   UNL     1      -1.901   1.675   6.707  0.00  0.00    +0.123 A 
ATOM     20  C   UNL     1      -0.739   0.986   7.009  0.00  0.00    +0.038 A 
ATOM     21  C   UNL     1      -0.121   0.217   6.041  0.00  0.00    +0.008 A 
ATOM     22  F   UNL     1      -2.509   2.424   7.653  0.00  0.00    -0.205 F 
ENDBRANCH   9  16
BRANCH   4  23
ATOM     23  N   UNL     1       0.021  -2.793  -2.504  0.00  0.00    +0.056 N 
ATOM     24  O   UNL     1      -0.002  -2.177  -3.544  0.00  0.00    -0.126 OA
ATOM     25  O   UNL     1       0.038  -4.002  -2.517  0.00  0.00    -0.126 OA
ENDBRANCH   4  23
TORSDOF 2
