REMARK  Name = ZINC02471888
REMARK  3 active torsions:
REMARK  status: ('A' for Active; 'I' for Inactive)
REMARK    1  A    between atoms: C_1  and  C_2
REMARK    2  A    between atoms: C_7  and  C_8
REMARK    3  A    between atoms: C_11  and  C_19
REMARK                            x       y       z     vdW  Elec       q    Type
REMARK                         _______ _______ _______ _____ _____    ______ ____
ROOT
ATOM      1  C   UNL     1       1.683  -3.907   1.591  0.00  0.00    +0.143 C 
ATOM      2  C   UNL     1       1.739  -2.390   1.813  0.00  0.00    +0.059 C 
ATOM      3  C   UNL     1       1.732  -1.668   0.461  0.00  0.00    +0.107 C 
ATOM      4  N   UNL     1       0.468  -1.977  -0.235  0.00  0.00    -0.307 N 
ATOM      5  C   UNL     1       0.052  -3.302  -0.193  0.00  0.00    +0.215 A 
ATOM      6  N   UNL     1       0.608  -4.208   0.646  0.00  0.00    -0.226 N 
ATOM      7  N   UNL     1      -0.048  -5.418   0.413  0.00  0.00    -0.156 NA
ATOM      8  C   UNL     1      -0.937  -5.192  -0.521  0.00  0.00    +0.247 A 
ATOM      9  N   UNL     1      -0.874  -3.907  -0.887  0.00  0.00    -0.202 NA
ATOM     10  H   UNL     1      -0.043  -1.294  -0.696  0.00  0.00    +0.149 HD
ENDROOT
BRANCH   1  17
ATOM     11  C   UNL     1       3.438  -6.015   2.496  0.00  0.00    +0.044 C 
ATOM     12  C   UNL     1       2.253  -5.609   3.334  0.00  0.00    -0.045 A 
ATOM     13  C   UNL     1       2.009  -6.243   4.539  0.00  0.00    +0.004 A 
ATOM     14  C   UNL     1       0.919  -5.874   5.305  0.00  0.00    +0.000 A 
ATOM     15  C   UNL     1       0.076  -4.868   4.869  0.00  0.00    +0.000 A 
ATOM     16  C   UNL     1       0.323  -4.232   3.667  0.00  0.00    +0.006 A 
ATOM     17  C   UNL     1       1.413  -4.601   2.901  0.00  0.00    -0.020 A 
ENDBRANCH   1  17
BRANCH   3  18
ATOM     18  C   UNL     1       1.837  -0.181   0.682  0.00  0.00    -0.009 A 
ATOM     19  C   UNL     1       0.692   0.593   0.735  0.00  0.00    +0.007 A 
ATOM     20  C   UNL     1       0.789   1.957   0.937  0.00  0.00    +0.000 A 
ATOM     21  C   UNL     1       2.029   2.548   1.087  0.00  0.00    +0.001 A 
ATOM     22  C   UNL     1       3.174   1.776   1.035  0.00  0.00    +0.020 A 
ATOM     23  C   UNL     1       3.078   0.410   0.832  0.00  0.00    +0.046 A 
ATOM     24 CL   UNL     1       4.516  -0.561   0.766  0.00  0.00    -0.083 Cl
ENDBRANCH   3  18
TORSDOF 2
