REMARK  Name = ZINC65235802
REMARK  8 active torsions:
REMARK  status: ('A' for Active; 'I' for Inactive)
REMARK    1  A    between atoms: C_1  and  C_2
REMARK    2  A    between atoms: C_2  and  C_3
REMARK    3  A    between atoms: N_9  and  C_10
REMARK    4  A    between atoms: C_10  and  C_11
REMARK    5  A    between atoms: C_13  and  C_16
REMARK    6  A    between atoms: C_16  and  N_17
REMARK    7  A    between atoms: C_25  and  C_27
REMARK    8  A    between atoms: C_30  and  C_33
REMARK                            x       y       z     vdW  Elec       q    Type
REMARK                         _______ _______ _______ _____ _____    ______ ____
ROOT
ATOM      1  N   UNL     1      -5.854   3.515  -4.958  0.00  0.00    -0.305 N 
ATOM      2  C   UNL     1      -6.488   4.086  -3.872  0.00  0.00    +0.109 A 
ATOM      3  C   UNL     1      -6.752   5.385  -3.814  0.00  0.00    +0.131 A 
ATOM      4  N   UNL     1      -6.403   6.239  -4.849  0.00  0.00    -0.233 N 
ATOM      5  C   UNL     1      -5.771   5.721  -5.951  0.00  0.00    +0.132 A 
ATOM      6  C   UNL     1      -5.478   4.287  -6.002  0.00  0.00    +0.277 A 
ATOM      7  O   UNL     1      -4.914   3.800  -6.965  0.00  0.00    -0.265 OA
ATOM      8  C   UNL     1      -5.541   6.773  -6.815  0.00  0.00    +0.063 A 
ATOM      9  C   UNL     1      -6.064   7.902  -6.165  0.00  0.00    +0.094 A 
ATOM     10  N   UNL     1      -6.557   7.506  -5.007  0.00  0.00    -0.166 NA
ENDROOT
BRANCH   9  11
ATOM     11  C   UNL     1      -6.063   9.292  -6.687  0.00  0.00    +0.002 A 
ATOM     12  C   UNL     1      -5.510   9.569  -7.936  0.00  0.00    +0.010 A 
ATOM     13  C   UNL     1      -5.511  10.863  -8.416  0.00  0.00    +0.004 A 
ATOM     14  C   UNL     1      -6.060  11.883  -7.661  0.00  0.00    -0.050 A 
ATOM     15  C   UNL     1      -6.610  11.613  -6.421  0.00  0.00    +0.004 A 
ATOM     16  C   UNL     1      -6.619  10.322  -5.933  0.00  0.00    +0.010 A 
ATOM     17  C   UNL     1      -6.058  13.294  -8.191  0.00  0.00    +0.044 C 
ENDBRANCH   9  11
BRANCH   1  18
ATOM     18  C   UNL     1      -5.582   2.076  -4.975  0.00  0.00    +0.204 C 
BRANCH  18  21
ATOM     19  C   UNL     1      -2.726   1.387  -2.863  0.00  0.00    +0.211 A 
ATOM     20  N   UNL     1      -4.001   1.576  -3.063  0.00  0.00    -0.196 NA
ATOM     21  C   UNL     1      -4.232   1.812  -4.360  0.00  0.00    +0.191 A 
ATOM     22  N   UNL     1      -3.101   1.775  -5.004  0.00  0.00    -0.060 NA
ATOM     23  O   UNL     1      -2.095   1.503  -4.039  0.00  0.00    -0.340 OA
BRANCH  19  24
ATOM     24  C   UNL     1      -2.074   1.094  -1.537  0.00  0.00    +0.022 C 
BRANCH  24  30
ATOM     25  C   UNL     1      -1.301  -0.646  -0.080  0.00  0.00    -0.068 C 
ATOM     26  C   UNL     1      -1.175  -2.160   0.102  0.00  0.00    -0.015 C 
ATOM     27  C   UNL     1      -2.574  -2.779   0.167  0.00  0.00    -0.003 C 
ATOM     28  C   UNL     1      -3.345  -2.410  -1.104  0.00  0.00    -0.019 C 
ATOM     29  C   UNL     1      -3.390  -0.887  -1.242  0.00  0.00    -0.078 C 
ATOM     30  N   UNL     1      -2.023  -0.358  -1.326  0.00  0.00    +0.387 N 
ATOM     31  H   UNL     1      -1.543  -0.792  -2.100  0.00  0.00    -0.081 HD
BRANCH  25  33
ATOM     32  C   UNL     1       0.816  -0.247   1.184  0.00  0.00    +0.002 C 
ATOM     33  C   UNL     1       0.095  -0.022  -0.146  0.00  0.00    -0.019 C 
ENDBRANCH  25  33
ENDBRANCH  24  30
ENDBRANCH  19  24
ENDBRANCH  18  21
ENDBRANCH   1  18
TORSDOF 6
