REMARK  Name = ZINC64519050
REMARK  9 active torsions:
REMARK  status: ('A' for Active; 'I' for Inactive)
REMARK    1  A    between atoms: C_1  and  C_2
REMARK    2  A    between atoms: C_7  and  C_12
REMARK    3  A    between atoms: C_12  and  N_13
REMARK    4  A    between atoms: C_14  and  C_16
REMARK    5  A    between atoms: C_18  and  C_21
REMARK    6  A    between atoms: C_24  and  S_27
REMARK    7  A    between atoms: S_27  and  N_30
REMARK    8  A    between atoms: N_30  and  C_31
REMARK    9  A    between atoms: N_30  and  C_32
REMARK                            x       y       z     vdW  Elec       q    Type
REMARK                         _______ _______ _______ _____ _____    ______ ____
ROOT
ATOM      1  N   UNL     1      -2.378  -4.389   1.567  0.00  0.00    -0.304 N 
ATOM      2  C   UNL     1      -3.597  -4.897   1.838  0.00  0.00    +0.302 C 
ATOM      3  O   UNL     1      -3.697  -5.963   2.412  0.00  0.00    -0.265 OA
ATOM      4  H   UNL     1      -2.298  -3.538   1.108  0.00  0.00    +0.149 HD
ENDROOT
BRANCH   2   5
ATOM      5  C   UNL     1      -4.815  -4.154   1.435  0.00  0.00    +0.314 A 
ATOM      6  N   UNL     1      -6.050  -4.535   1.644  0.00  0.00    -0.183 NA
ATOM      7  C   UNL     1      -6.902  -3.624   1.149  0.00  0.00    +0.203 A 
ATOM      8  N   UNL     1      -6.211  -2.645   0.616  0.00  0.00    -0.055 NA
ATOM      9  O   UNL     1      -4.841  -2.970   0.798  0.00  0.00    -0.328 OA
BRANCH   7  10
ATOM     10  C   UNL     1      -8.383  -3.711   1.198  0.00  0.00    +0.023 A 
ATOM     11  C   UNL     1      -9.000  -4.805   1.800  0.00  0.00    +0.013 A 
ATOM     12  C   UNL     1     -10.378  -4.880   1.843  0.00  0.00    +0.029 A 
ATOM     13  C   UNL     1     -11.145  -3.871   1.289  0.00  0.00    +0.105 A 
ATOM     14  C   UNL     1     -10.537  -2.783   0.689  0.00  0.00    +0.029 A 
ATOM     15  C   UNL     1      -9.161  -2.695   0.646  0.00  0.00    +0.013 A 
BRANCH  13  16
ATOM     16  S   UNL     1     -12.903  -3.974   1.347  0.00  0.00    +0.060 S 
ATOM     17  O   UNL     1     -13.392  -3.174   0.279  0.00  0.00    -0.153 OA
ATOM     18  O   UNL     1     -13.226  -5.351   1.476  0.00  0.00    -0.153 OA
BRANCH  16  19
ATOM     19  N   UNL     1     -13.390  -3.240   2.749  0.00  0.00    -0.183 NA
ATOM     20  C   UNL     1     -13.691  -1.806   2.759  0.00  0.00    +0.131 C 
ATOM     21  C   UNL     1     -13.521  -4.025   3.979  0.00  0.00    +0.131 C 
ENDBRANCH  16  19
ENDBRANCH  13  16
ENDBRANCH   7  10
ENDBRANCH   2   5
BRANCH   1  22
ATOM     22  C   UNL     1      -1.174  -5.123   1.965  0.00  0.00    +0.151 C 
BRANCH  22  29
ATOM     23  C   UNL     1      -0.018   1.503   0.010  0.00  0.00    +0.044 C 
ATOM     24  C   UNL     1       0.002  -0.004   0.002  0.00  0.00    -0.048 A 
ATOM     25  C   UNL     1       0.005  -0.672  -1.235  0.00  0.00    +0.005 A 
ATOM     26  C   UNL     1       0.022  -2.017  -1.335  0.00  0.00    +0.027 A 
ATOM     27  C   UNL     1       0.040  -2.834  -0.114  0.00  0.00    +0.060 A 
ATOM     28  N   UNL     1       0.057  -4.120   0.090  0.00  0.00    -0.362 N 
ATOM     29  C   UNL     1       0.067  -4.335   1.542  0.00  0.00    +0.191 C 
ATOM     30  N   UNL     1       0.053  -3.002   2.159  0.00  0.00    -0.362 N 
ATOM     31  C   UNL     1       0.037  -2.127   1.195  0.00  0.00    +0.060 A 
ATOM     32  C   UNL     1       0.022  -0.657   1.181  0.00  0.00    +0.030 A 
ATOM     33  H   UNL     1       0.062  -4.809  -0.593  0.00  0.00    +0.162 HD
ATOM     34  H   UNL     1       0.055  -2.810   3.109  0.00  0.00    +0.162 HD
ENDBRANCH  22  29
ENDBRANCH   1  22
TORSDOF 6
