REMARK  Name = ZINC05297067
REMARK  5 active torsions:
REMARK  status: ('A' for Active; 'I' for Inactive)
REMARK    1  A    between atoms: C_8  and  C_11
REMARK    2  A    between atoms: C_13  and  C_17
REMARK    3  A    between atoms: N_19  and  N_20
REMARK    4  A    between atoms: C_21  and  C_22
REMARK    5  A    between atoms: C_27  and  O_28
REMARK                            x       y       z     vdW  Elec       q    Type
REMARK                         _______ _______ _______ _____ _____    ______ ____
ROOT
ATOM      1  C   UNL     1       0.209  -2.959  -0.016  0.00  0.00    +0.067 A 
ATOM      2  C   UNL     1       0.058  -4.121  -0.723  0.00  0.00    +0.062 A 
ATOM      3  C   UNL     1      -1.227  -4.600  -0.388  0.00  0.00    +0.149 A 
ATOM      4  N   UNL     1      -1.757  -3.743   0.462  0.00  0.00    -0.169 NA
ATOM      5  N   UNL     1      -0.940  -2.781   0.699  0.00  0.00    -0.276 N 
ATOM      6  H   UNL     1      -1.114  -2.037   1.296  0.00  0.00    +0.189 HD
ENDROOT
BRANCH   1  14
ATOM      7  C   UNL     1      -0.017   1.362   0.009  0.00  0.00    +0.001 A 
ATOM      8  C   UNL     1       1.154   2.123   0.002  0.00  0.00    +0.004 A 
ATOM      9  C   UNL     1       2.371   1.512  -0.013  0.00  0.00    -0.039 A 
ATOM     10  C   UNL     1       2.404   0.121  -0.020  0.00  0.00    -0.011 A 
ATOM     11  C   UNL     1       3.683  -0.427  -0.035  0.00  0.00    -0.039 A 
ATOM     12  C   UNL     1       3.805  -1.785  -0.042  0.00  0.00    +0.005 A 
ATOM     13  C   UNL     1       2.675  -2.599  -0.035  0.00  0.00    +0.011 A 
ATOM     14  C   UNL     1       1.390  -2.071  -0.022  0.00  0.00    +0.008 A 
ATOM     15  C   UNL     1       1.238  -0.663  -0.013  0.00  0.00    -0.008 A 
ATOM     16  C   UNL     1       0.002  -0.004   0.002  0.00  0.00    +0.009 A 
ATOM     17  C   UNL     1       4.665   0.720  -0.038  0.00  0.00    +0.040 C 
ATOM     18  C   UNL     1       3.800   1.998  -0.024  0.00  0.00    +0.040 C 
ENDBRANCH   1  14
BRANCH   3  19
ATOM     19  C   UNL     1      -1.860  -5.834  -0.896  0.00  0.00    +0.283 C 
ATOM     20  O   UNL     1      -1.263  -6.545  -1.682  0.00  0.00    -0.267 OA
ATOM     21  N   UNL     1      -3.100  -6.172  -0.489  0.00  0.00    -0.202 N 
ATOM     22  H   UNL     1      -3.576  -5.605   0.137  0.00  0.00    +0.178 HD
BRANCH  21  23
ATOM     23  N   UNL     1      -3.700  -7.342  -0.971  0.00  0.00    -0.187 NA
ATOM     24  C   UNL     1      -4.894  -7.668  -0.579  0.00  0.00    +0.142 C 
BRANCH  24  25
ATOM     25  C   UNL     1      -5.526  -8.899  -1.086  0.00  0.00    +0.037 A 
ATOM     26  C   UNL     1      -6.813  -9.250  -0.671  0.00  0.00    +0.028 A 
ATOM     27  C   UNL     1      -7.399 -10.404  -1.150  0.00  0.00    +0.019 A 
ATOM     28  C   UNL     1      -6.716 -11.216  -2.041  0.00  0.00    +0.019 A 
ATOM     29  C   UNL     1      -5.442 -10.878  -2.459  0.00  0.00    +0.047 A 
ATOM     30  C   UNL     1      -4.842  -9.721  -1.992  0.00  0.00    +0.126 A 
ATOM     31 BR   UNL     1      -9.141 -10.879  -0.588  0.00  0.00    -0.050 Br
BRANCH  30  32
ATOM     32  O   UNL     1      -3.592  -9.386  -2.406  0.00  0.00    -0.506 OA
ATOM     33  H   UNL     1      -2.885  -9.745  -1.852  0.00  0.00    +0.292 HD
ENDBRANCH  30  32
ENDBRANCH  24  25
ENDBRANCH  21  23
ENDBRANCH   3  19
TORSDOF 5
