REMARK  Name = ZINC36490845
REMARK  13 active torsions:
REMARK  status: ('A' for Active; 'I' for Inactive)
REMARK    1  A    between atoms: C_1  and  C_2
REMARK    2  A    between atoms: C_2  and  C_3
REMARK    3  A    between atoms: C_2  and  C_4
REMARK    4  A    between atoms: C_2  and  C_5
REMARK    5  A    between atoms: C_5  and  C_6
REMARK    6  A    between atoms: C_6  and  C_7
REMARK    7  A    between atoms: C_6  and  C_8
REMARK    8  A    between atoms: C_6  and  N_9
REMARK    9  A    between atoms: C_10  and  C_12
REMARK   10  A    between atoms: C_12  and  C_14
REMARK   11  A    between atoms: C_12  and  N_22
REMARK   12  A    between atoms: N_22  and  C_23
REMARK   13  A    between atoms: C_29  and  C_31
REMARK                            x       y       z     vdW  Elec       q    Type
REMARK                         _______ _______ _______ _____ _____    ______ ____
ROOT
ATOM      1  C   UNL     1       5.622  -1.196  -2.823  0.00  0.00    +0.195 C 
ENDROOT
BRANCH   1   2
ATOM      2  C   UNL     1       5.448  -0.310  -4.030  0.00  0.00    +0.018 A 
ATOM      3  C   UNL     1       6.417  -0.287  -5.016  0.00  0.00    +0.048 A 
ATOM      4  C   UNL     1       6.257   0.525  -6.124  0.00  0.00    +0.020 A 
ATOM      5  C   UNL     1       5.128   1.315  -6.245  0.00  0.00    +0.003 A 
ATOM      6  C   UNL     1       4.160   1.292  -5.260  0.00  0.00    +0.020 A 
ATOM      7  C   UNL     1       4.316   0.475  -4.154  0.00  0.00    +0.048 A 
ATOM      8 CL   UNL     1       3.095   0.441  -2.921  0.00  0.00    -0.083 Cl
ATOM      9 CL   UNL     1       7.835  -1.278  -4.864  0.00  0.00    -0.083 Cl
ENDBRANCH   1   2
BRANCH   1  11
ATOM     10  N   UNL     1       3.406  -2.025  -2.098  0.00  0.00    -0.308 N 
ATOM     11  C   UNL     1       4.390  -1.114  -1.958  0.00  0.00    +0.239 C 
ATOM     12  O   UNL     1       4.284  -0.228  -1.136  0.00  0.00    -0.273 OA
ATOM     13  H   UNL     1       3.362  -2.571  -2.898  0.00  0.00    +0.149 HD
BRANCH  10  14
ATOM     14  C   UNL     1       2.405  -2.189  -1.042  0.00  0.00    +0.030 C 
ATOM     15  C   UNL     1       1.593  -0.900  -0.904  0.00  0.00    +0.031 C 
ATOM     16  C   UNL     1       3.106  -2.495   0.283  0.00  0.00    +0.031 C 
BRANCH  14  17
ATOM     17  C   UNL     1       1.469  -3.345  -1.402  0.00  0.00    +0.031 C 
BRANCH  17  19
ATOM     18  C   UNL     1       2.198  -3.721  -3.762  0.00  0.00    +0.010 C 
ATOM     19  C   UNL     1       1.056  -3.228  -2.871  0.00  0.00    -0.036 C 
ATOM     20  C   UNL     1       0.748  -1.766  -3.200  0.00  0.00    +0.010 C 
ATOM     21  C   UNL     1      -0.189  -4.081  -3.120  0.00  0.00    +0.010 C 
ENDBRANCH  17  19
ENDBRANCH  14  17
ENDBRANCH  10  14
ENDBRANCH   1  11
BRANCH   1  22
ATOM     22  N   UNL     1       6.788  -0.751  -2.055  0.00  0.00    -0.281 N 
ATOM     23  C   UNL     1       7.772  -1.623  -1.759  0.00  0.00    +0.237 C 
ATOM     24  O   UNL     1       7.686  -2.779  -2.117  0.00  0.00    -0.274 OA
BRANCH  23  25
ATOM     25  C   UNL     1       8.978  -1.162  -0.983  0.00  0.00    +0.159 C 
ATOM     26  C   UNL     1      10.042  -0.582  -1.942  0.00  0.00    +0.041 C 
ATOM     27  C   UNL     1      10.932  -1.818  -2.209  0.00  0.00    +0.098 C 
ATOM     28  C   UNL     1      10.722  -2.696  -0.995  0.00  0.00    +0.214 C 
ATOM     29  O   UNL     1      11.439  -3.620  -0.673  0.00  0.00    -0.276 OA
ATOM     30  N   UNL     1       9.624  -2.303  -0.323  0.00  0.00    -0.304 N 
ATOM     31  H   UNL     1       9.301  -2.719   0.492  0.00  0.00    +0.149 HD
ENDBRANCH  23  25
BRANCH  22  32
ATOM     32  C   UNL     1       6.884   0.641  -1.609  0.00  0.00    +0.077 C 
ATOM     33  C   UNL     1       6.498   0.732  -0.132  0.00  0.00    +0.022 C 
ATOM     34  C   UNL     1       6.598   2.186   0.334  0.00  0.00    +0.002 C 
ATOM     35  C   UNL     1       5.649   3.053  -0.495  0.00  0.00    +0.000 C 
ATOM     36  C   UNL     1       6.035   2.963  -1.973  0.00  0.00    +0.002 C 
ATOM     37  C   UNL     1       5.935   1.509  -2.438  0.00  0.00    +0.022 C 
ENDBRANCH  22  32
ENDBRANCH   1  22
TORSDOF 8
