REMARK  Name = ZINC36567595
REMARK  14 active torsions:
REMARK  status: ('A' for Active; 'I' for Inactive)
REMARK    1  A    between atoms: C_1  and  C_2
REMARK    2  A    between atoms: C_2  and  C_3
REMARK    3  A    between atoms: C_3  and  N_4
REMARK    4  A    between atoms: N_4  and  C_5
REMARK    5  A    between atoms: C_5  and  C_7
REMARK    6  A    between atoms: C_5  and  C_15
REMARK    7  A    between atoms: C_10  and  C_14
REMARK    8  A    between atoms: C_12  and  C_13
REMARK    9  A    between atoms: N_17  and  C_18
REMARK   10  A    between atoms: C_18  and  S_19
REMARK   11  A    between atoms: S_19  and  C_22
REMARK   12  A    between atoms: C_25  and  C_28
REMARK   13  A    between atoms: C_29  and  C_31
REMARK   14  A    between atoms: C_36  and  O_37
REMARK                            x       y       z     vdW  Elec       q    Type
REMARK                         _______ _______ _______ _____ _____    ______ ____
ROOT
ATOM      1  C   UNL     1      -1.295  -3.011   2.306  0.00  0.00    +0.193 C 
ENDROOT
BRANCH   1   2
ATOM      2  C   UNL     1       0.093  -3.082   2.886  0.00  0.00    -0.015 A 
ATOM      3  C   UNL     1       0.821  -1.923   3.083  0.00  0.00    +0.006 A 
ATOM      4  C   UNL     1       2.095  -1.988   3.615  0.00  0.00    +0.004 A 
ATOM      5  C   UNL     1       2.642  -3.213   3.951  0.00  0.00    -0.050 A 
ATOM      6  C   UNL     1       1.914  -4.372   3.755  0.00  0.00    +0.007 A 
ATOM      7  C   UNL     1       0.638  -4.306   3.226  0.00  0.00    -0.045 A 
ATOM      8  C   UNL     1      -0.157  -5.569   3.017  0.00  0.00    +0.044 C 
ATOM      9  C   UNL     1       4.031  -3.284   4.530  0.00  0.00    +0.044 C 
ENDBRANCH   1   2
BRANCH   1  10
ATOM     10  C   UNL     1      -2.307  -2.998   3.423  0.00  0.00    +0.239 C 
ATOM     11  O   UNL     1      -3.319  -2.339   3.317  0.00  0.00    -0.273 OA
ATOM     12  N   UNL     1      -2.085  -3.719   4.540  0.00  0.00    -0.294 N 
ATOM     13  H   UNL     1      -1.227  -4.149   4.678  0.00  0.00    +0.150 HD
BRANCH  12  14
ATOM     14  C   UNL     1      -3.141  -3.851   5.547  0.00  0.00    +0.278 C 
BRANCH  14  15
ATOM     15  S   UNL     1      -4.062  -5.388   5.259  0.00  0.00    +0.013 S 
ATOM     16  O   UNL     1      -5.049  -5.562   6.266  0.00  0.00    -0.168 OA
ATOM     17  O   UNL     1      -4.401  -5.505   3.884  0.00  0.00    -0.168 OA
BRANCH  15  18
ATOM     18  C   UNL     1      -2.894  -6.676   5.546  0.00  0.00    +0.090 A 
ATOM     19  C   UNL     1      -2.118  -7.149   4.505  0.00  0.00    +0.027 A 
ATOM     20  C   UNL     1      -1.202  -8.160   4.730  0.00  0.00    +0.005 A 
ATOM     21  C   UNL     1      -1.062  -8.697   5.996  0.00  0.00    -0.050 A 
ATOM     22  C   UNL     1      -1.838  -8.223   7.038  0.00  0.00    +0.005 A 
ATOM     23  C   UNL     1      -2.751  -7.209   6.814  0.00  0.00    +0.027 A 
ATOM     24  C   UNL     1      -0.064  -9.799   6.242  0.00  0.00    +0.044 C 
ENDBRANCH  15  18
ENDBRANCH  14  15
ENDBRANCH  12  14
ENDBRANCH   1  10
BRANCH   1  25
ATOM     25  N   UNL     1      -1.430  -1.788   1.511  0.00  0.00    -0.282 N 
ATOM     26  C   UNL     1      -0.724  -1.643   0.372  0.00  0.00    +0.251 C 
ATOM     27  O   UNL     1      -1.102  -0.867  -0.483  0.00  0.00    -0.270 OA
BRANCH  26  28
ATOM     28  C   UNL     1       0.510  -2.425   0.165  0.00  0.00    +0.078 A 
ATOM     29  C   UNL     1       0.644  -3.691   0.740  0.00  0.00    +0.017 A 
ATOM     30  C   UNL     1       1.798  -4.417   0.542  0.00  0.00    +0.001 A 
ATOM     31  C   UNL     1       2.828  -3.897  -0.225  0.00  0.00    +0.004 A 
ATOM     32  C   UNL     1       2.709  -2.648  -0.799  0.00  0.00    +0.046 A 
ATOM     33  C   UNL     1       1.552  -1.905  -0.615  0.00  0.00    +0.129 A 
BRANCH  33  34
ATOM     34  O   UNL     1       1.431  -0.679  -1.183  0.00  0.00    -0.506 OA
ATOM     35  H   UNL     1       1.751   0.045  -0.628  0.00  0.00    +0.292 HD
ENDBRANCH  33  34
ENDBRANCH  26  28
BRANCH  25  36
ATOM     36  C   UNL     1      -2.334  -0.723   1.953  0.00  0.00    +0.109 C 
BRANCH  36  38
ATOM     37  C   UNL     1      -4.670   0.150   1.808  0.00  0.00    +0.005 C 
ATOM     38  C   UNL     1      -3.678  -0.863   1.235  0.00  0.00    +0.016 C 
ENDBRANCH  36  38
ENDBRANCH  25  36
ENDBRANCH   1  25
TORSDOF 10
