REMARK  Name = ZINC44731880
REMARK  8 active torsions:
REMARK  status: ('A' for Active; 'I' for Inactive)
REMARK    1  A    between atoms: C_1  and  C_2
REMARK    2  A    between atoms: C_4  and  C_8
REMARK    3  A    between atoms: C_5  and  C_7
REMARK    4  A    between atoms: C_8  and  C_10
REMARK    5  A    between atoms: C_8  and  N_11
REMARK    6  A    between atoms: N_11  and  C_12
REMARK    7  A    between atoms: C_15  and  N_21
REMARK    8  A    between atoms: C_17  and  C_18
REMARK                            x       y       z     vdW  Elec       q    Type
REMARK                         _______ _______ _______ _____ _____    ______ ____
ROOT
ATOM      1  C   UNL     1      -3.503  -4.123  -1.156  0.00  0.00    +0.040 A 
ATOM      2  C   UNL     1      -2.961  -5.396  -1.285  0.00  0.00    +0.025 A 
ATOM      3  C   UNL     1      -3.690  -6.402  -1.883  0.00  0.00    +0.024 A 
ATOM      4  C   UNL     1      -4.972  -6.152  -2.361  0.00  0.00    +0.025 A 
ATOM      5  C   UNL     1      -5.527  -4.890  -2.240  0.00  0.00    +0.037 A 
ATOM      6  C   UNL     1      -4.797  -3.866  -1.630  0.00  0.00    +0.059 A 
ENDROOT
BRANCH   6   7
ATOM      7  C   UNL     1      -5.383  -2.520  -1.492  0.00  0.00    +0.243 C 
ATOM      8  O   UNL     1      -4.710  -1.605  -1.059  0.00  0.00    -0.270 OA
ATOM      9  N   UNL     1      -6.666  -2.304  -1.846  0.00  0.00    -0.325 N 
ATOM     10  H   UNL     1      -7.203  -3.033  -2.191  0.00  0.00    +0.145 HD
ATOM     11  H   UNL     1      -7.051  -1.418  -1.755  0.00  0.00    +0.145 HD
ENDBRANCH   6   7
BRANCH   4  12
ATOM     12  N   UNL     1      -5.704  -7.180  -2.967  0.00  0.00    -0.358 N 
ATOM     13  H   UNL     1      -5.317  -8.066  -3.053  0.00  0.00    +0.142 HD
ATOM     14  H   UNL     1      -6.598  -7.008  -3.301  0.00  0.00    +0.142 HD
ENDBRANCH   4  12
BRANCH   1  15
ATOM     15  N   UNL     1      -2.766  -3.108  -0.553  0.00  0.00    -0.337 N 
ATOM     16  H   UNL     1      -3.115  -2.204  -0.530  0.00  0.00    +0.147 HD
BRANCH  15  17
ATOM     17  C   UNL     1      -1.463  -3.407   0.048  0.00  0.00    +0.101 C 
ATOM     18  C   UNL     1      -1.665  -3.910   1.478  0.00  0.00    +0.033 C 
BRANCH  17  22
ATOM     19  C   UNL     1      -0.023   1.480   0.105  0.00  0.00    +0.086 C 
ATOM     20  C   UNL     1      -0.009  -0.027   0.094  0.00  0.00    +0.103 A 
ATOM     21  C   UNL     1      -1.093  -0.824   0.072  0.00  0.00    +0.050 A 
ATOM     22  C   UNL     1      -0.622  -2.157   0.069  0.00  0.00    +0.013 A 
ATOM     23  C   UNL     1       0.722  -2.095   0.089  0.00  0.00    +0.107 A 
ATOM     24  O   UNL     1       1.087  -0.802   0.098  0.00  0.00    -0.465 OA
ATOM     25  C   UNL     1       1.658  -3.276   0.094  0.00  0.00    +0.086 C 
ENDBRANCH  17  22
ENDBRANCH  15  17
ENDBRANCH   1  15
TORSDOF 5
