REMARK  Name = ZINC35849095
REMARK  10 active torsions:
REMARK  status: ('A' for Active; 'I' for Inactive)
REMARK    1  A    between atoms: C_1  and  C_2
REMARK    2  A    between atoms: C_2  and  C_3
REMARK    3  A    between atoms: C_6  and  N_17
REMARK    4  A    between atoms: C_13  and  N_16
REMARK    5  A    between atoms: C_20  and  C_24
REMARK    6  A    between atoms: N_25  and  C_27
REMARK    7  A    between atoms: C_27  and  C_28
REMARK    8  A    between atoms: C_28  and  O_29
REMARK    9  A    between atoms: O_29  and  C_30
REMARK   10  A    between atoms: C_30  and  C_31
REMARK                            x       y       z     vdW  Elec       q    Type
REMARK                         _______ _______ _______ _____ _____    ______ ____
ROOT
ATOM      1  C   UNL     1       0.888  -1.228  -1.099  0.00  0.00    +0.089 A 
ATOM      2  C   UNL     1       0.205  -1.496  -2.305  0.00  0.00    +0.119 A 
ATOM      3  C   UNL     1       1.173  -1.525  -3.325  0.00  0.00    +0.128 A 
ATOM      4  C   UNL     1       0.753  -1.776  -4.638  0.00  0.00    +0.155 A 
ATOM      5  N   UNL     1      -0.539  -1.976  -4.867  0.00  0.00    -0.197 NA
ATOM      6  C   UNL     1      -1.426  -1.941  -3.878  0.00  0.00    +0.220 A 
ATOM      7  N   UNL     1      -1.078  -1.709  -2.626  0.00  0.00    -0.211 NA
ATOM      8  N   UNL     1      -2.763  -2.156  -4.171  0.00  0.00    -0.300 N 
ATOM      9  C   UNL     1      -3.796  -1.956  -3.146  0.00  0.00    +0.106 C 
ATOM     10  C   UNL     1      -4.642  -3.229  -3.043  0.00  0.00    +0.003 C 
ATOM     11  C   UNL     1      -5.190  -3.586  -4.427  0.00  0.00    -0.072 C 
ATOM     12  C   UNL     1      -4.027  -3.855  -5.385  0.00  0.00    +0.003 C 
ATOM     13  C   UNL     1      -3.175  -2.583  -5.516  0.00  0.00    +0.106 C 
ATOM     14  N   UNL     1       2.382  -1.281  -2.729  0.00  0.00    -0.256 N 
ATOM     15  N   UNL     1       2.159  -1.098  -1.357  0.00  0.00    -0.173 NA
ENDROOT
BRANCH   4  16
ATOM     16  N   UNL     1       1.668  -1.813  -5.678  0.00  0.00    -0.283 N 
ATOM     17  C   UNL     1       1.254  -2.174  -6.957  0.00  0.00    +0.124 A 
ATOM     18  C   UNL     1      -0.085  -2.047  -7.309  0.00  0.00    +0.047 A 
ATOM     19  C   UNL     1      -0.483  -2.409  -8.584  0.00  0.00    -0.046 A 
ATOM     20  C   UNL     1       0.476  -2.887  -9.466  0.00  0.00    +0.023 A 
ATOM     21  C   UNL     1       1.789  -2.987  -9.050  0.00  0.00    +0.113 A 
ATOM     22  N   UNL     1       2.140  -2.629  -7.829  0.00  0.00    -0.240 NA
ATOM     23  C   UNL     1      -1.925  -2.288  -9.005  0.00  0.00    +0.044 C 
ATOM     24  H   UNL     1       2.598  -1.589  -5.514  0.00  0.00    +0.155 HD
ENDBRANCH   4  16
BRANCH  11  25
ATOM     25  N   UNL     1      -6.029  -4.787  -4.326  0.00  0.00    +0.380 N 
ATOM     26  H   UNL     1      -6.797  -4.610  -3.695  0.00  0.00    -0.090 HD
ATOM     27  H   UNL     1      -6.391  -5.023  -5.238  0.00  0.00    -0.090 HD
ATOM     28  H   UNL     1      -5.476  -5.555  -3.975  0.00  0.00    -0.090 HD
ENDBRANCH  11  25
BRANCH   1  30
ATOM     29  C   UNL     1      -0.152   0.349   0.507  0.00  0.00    +0.010 C 
ATOM     30  C   UNL     1       0.251  -1.106   0.261  0.00  0.00    +0.056 C 
ENDBRANCH   1  30
BRANCH  14  31
ATOM     31  C   UNL     1       3.679  -1.216  -3.407  0.00  0.00    +0.172 C 
BRANCH  31  32
ATOM     32  C   UNL     1       3.881   0.184  -3.990  0.00  0.00    +0.183 C 
BRANCH  32  33
ATOM     33  O   UNL     1       5.146   0.247  -4.651  0.00  0.00    -0.378 OA
BRANCH  33  34
ATOM     34  C   UNL     1       5.434   1.520  -5.234  0.00  0.00    +0.156 C 
ATOM     35  C   UNL     1       6.805   1.472  -5.911  0.00  0.00    +0.034 C 
ENDBRANCH  33  34
ENDBRANCH  32  33
ENDBRANCH  31  32
ENDBRANCH  14  31
TORSDOF 7
