REMARK  Name = ZINC22785702
REMARK  8 active torsions:
REMARK  status: ('A' for Active; 'I' for Inactive)
REMARK    1  A    between atoms: C_1  and  C_2
REMARK    2  A    between atoms: C_2  and  C_4
REMARK    3  A    between atoms: C_2  and  N_14
REMARK    4  A    between atoms: N_6  and  C_7
REMARK    5  A    between atoms: N_6  and  C_8
REMARK    6  A    between atoms: N_17  and  C_20
REMARK    7  A    between atoms: C_20  and  C_21
REMARK    8  A    between atoms: C_27  and  C_32
REMARK                            x       y       z     vdW  Elec       q    Type
REMARK                         _______ _______ _______ _____ _____    ______ ____
ROOT
ATOM      1  N   UNL     1       0.869  -0.586   1.030  0.00  0.00    -0.295 NA
ATOM      2  C   UNL     1       0.950  -2.049   0.910  0.00  0.00    +0.066 C 
ATOM      3  C   UNL     1       1.800  -2.606   2.054  0.00  0.00    -0.063 C 
ATOM      4  N   UNL     1       3.145  -2.018   1.996  0.00  0.00    +0.386 N 
ATOM      5  C   UNL     1       3.050  -0.559   2.142  0.00  0.00    -0.063 C 
ATOM      6  C   UNL     1       2.210   0.015   0.998  0.00  0.00    +0.066 C 
ATOM      7  H   UNL     1       3.571  -2.240   1.109  0.00  0.00    -0.081 HD
ENDROOT
BRANCH   1   9
ATOM      8  C   UNL     1      -0.021   1.505   0.118  0.00  0.00    +0.034 C 
ATOM      9  C   UNL     1       0.013  -0.018  -0.020  0.00  0.00    +0.140 C 
BRANCH   9  10
ATOM     10  C   UNL     1      -1.383  -0.567   0.119  0.00  0.00    +0.236 C 
ATOM     11  O   UNL     1      -1.789  -0.925   1.205  0.00  0.00    -0.274 OA
ATOM     12  N   UNL     1      -2.182  -0.659  -0.963  0.00  0.00    -0.273 N 
ATOM     13  C   UNL     1      -1.724  -0.148  -2.257  0.00  0.00    +0.138 C 
BRANCH  12  14
ATOM     14  C   UNL     1      -3.448  -1.244  -0.850  0.00  0.00    +0.036 A 
ATOM     15  C   UNL     1      -3.949  -1.583   0.401  0.00  0.00    +0.023 A 
ATOM     16  C   UNL     1      -5.199  -2.160   0.509  0.00  0.00    +0.002 A 
ATOM     17  C   UNL     1      -5.951  -2.401  -0.626  0.00  0.00    +0.000 A 
ATOM     18  C   UNL     1      -5.455  -2.066  -1.872  0.00  0.00    +0.002 A 
ATOM     19  C   UNL     1      -4.208  -1.483  -1.987  0.00  0.00    +0.023 A 
ENDBRANCH  12  14
ENDBRANCH   9  10
ENDBRANCH   1   9
BRANCH   4  20
ATOM     20  C   UNL     1       3.966  -2.566   3.084  0.00  0.00    -0.003 C 
BRANCH  20  21
ATOM     21  C   UNL     1       5.378  -2.058   2.953  0.00  0.00    +0.094 A 
ATOM     22  N   UNL     1       6.314  -2.446   3.856  0.00  0.00    -0.312 N 
ATOM     23  H   UNL     1       6.061  -3.046   4.575  0.00  0.00    +0.170 HD
ATOM     24  C   UNL     1       7.587  -2.016   3.774  0.00  0.00    +0.260 A 
ATOM     25  O   UNL     1       8.415  -2.374   4.593  0.00  0.00    -0.267 OA
ATOM     26  C   UNL     1       7.952  -1.132   2.710  0.00  0.00    +0.080 A 
ATOM     27  C   UNL     1       9.250  -0.536   2.410  0.00  0.00    +0.010 A 
ATOM     28  C   UNL     1       9.357   0.282   1.333  0.00  0.00    +0.057 A 
ATOM     29  S   UNL     1       7.707   0.296   0.659  0.00  0.00    -0.076 S 
ATOM     30  C   UNL     1       6.919  -0.785   1.824  0.00  0.00    +0.116 A 
ATOM     31  N   UNL     1       5.683  -1.256   1.968  0.00  0.00    -0.229 NA
BRANCH  27  32
ATOM     32  C   UNL     1      10.424  -0.817   3.263  0.00  0.00    +0.021 A 
ATOM     33  C   UNL     1      11.681  -1.214   2.895  0.00  0.00    +0.016 A 
ATOM     34  C   UNL     1      12.625  -1.418   3.880  0.00  0.00    +0.008 A 
ATOM     35  C   UNL     1      12.281  -1.220   5.177  0.00  0.00    +0.046 A 
ATOM     36  S   UNL     1      10.573  -0.719   5.039  0.00  0.00    -0.097 S 
ENDBRANCH  27  32
ENDBRANCH  20  21
ENDBRANCH   4  20
TORSDOF 6
