REMARK  Name = ZINC14372621
REMARK  8 active torsions:
REMARK  status: ('A' for Active; 'I' for Inactive)
REMARK    1  A    between atoms: C_1  and  C_2
REMARK    2  A    between atoms: C_2  and  C_4
REMARK    3  A    between atoms: C_2  and  N_21
REMARK    4  A    between atoms: N_6  and  N_7
REMARK    5  A    between atoms: C_8  and  C_10
REMARK    6  A    between atoms: C_10  and  C_12
REMARK    7  A    between atoms: C_10  and  O_13
REMARK    8  A    between atoms: O_13  and  C_14
REMARK                            x       y       z     vdW  Elec       q    Type
REMARK                         _______ _______ _______ _____ _____    ______ ____
ROOT
ATOM      1  C   UNL     1       4.639  -6.821   1.190  0.00  0.00    +0.252 C 
ATOM      2  O   UNL     1       5.693  -6.381   0.782  0.00  0.00    -0.272 OA
ATOM      3  N   UNL     1       3.520  -6.076   1.104  0.00  0.00    -0.233 N 
ATOM      4  H   UNL     1       2.677  -6.427   1.431  0.00  0.00    +0.173 HD
ENDROOT
BRANCH   3   5
ATOM      5  N   UNL     1       3.573  -4.793   0.543  0.00  0.00    -0.231 N 
ATOM      6  C   UNL     1       2.453  -4.048   0.457  0.00  0.00    +0.270 C 
ATOM      7  O   UNL     1       1.399  -4.488   0.865  0.00  0.00    -0.270 OA
ATOM      8  H   UNL     1       4.416  -4.441   0.216  0.00  0.00    +0.173 HD
BRANCH   6   9
ATOM      9  C   UNL     1       2.511  -2.668  -0.147  0.00  0.00    +0.257 C 
ATOM     10  C   UNL     1       2.882  -2.775  -1.627  0.00  0.00    +0.062 C 
BRANCH   9  11
ATOM     11  O   UNL     1       1.234  -2.039  -0.020  0.00  0.00    -0.480 OA
BRANCH  11  12
ATOM     12  C   UNL     1       1.213  -0.681  -0.015  0.00  0.00    +0.123 A 
ATOM     13  C   UNL     1       2.381   0.033  -0.241  0.00  0.00    +0.046 A 
ATOM     14  C   UNL     1       2.358   1.414  -0.236  0.00  0.00    +0.005 A 
ATOM     15  C   UNL     1       1.173   2.086  -0.004  0.00  0.00    +0.015 A 
ATOM     16  C   UNL     1       0.006   1.377   0.223  0.00  0.00    +0.021 A 
ATOM     17  C   UNL     1       0.025  -0.005   0.218  0.00  0.00    +0.061 A 
ATOM     18 BR   UNL     1      -1.614   2.300   0.540  0.00  0.00    -0.050 Br
ENDBRANCH  11  12
ENDBRANCH   9  11
ENDBRANCH   6   9
ENDBRANCH   3   5
BRANCH   1  20
ATOM     19  C   UNL     1       3.620  -9.072   0.985  0.00  0.00    +0.041 C 
ATOM     20  C   UNL     1       4.582  -8.200   1.794  0.00  0.00    +0.178 C 
BRANCH  20  21
ATOM     21  N   UNL     1       5.919  -8.799   1.772  0.00  0.00    -0.262 N 
ATOM     22  C   UNL     1       6.653  -9.219   2.881  0.00  0.00    +0.091 A 
ATOM     23  C   UNL     1       6.403  -9.216   4.245  0.00  0.00    +0.030 A 
ATOM     24  C   UNL     1       7.351  -9.713   5.118  0.00  0.00    +0.002 A 
ATOM     25  C   UNL     1       8.548 -10.212   4.635  0.00  0.00    +0.004 A 
ATOM     26  C   UNL     1       8.801 -10.225   3.277  0.00  0.00    +0.048 A 
ATOM     27  C   UNL     1       7.858  -9.724   2.393  0.00  0.00    +0.157 A 
ATOM     28  O   UNL     1       7.832  -9.595   1.044  0.00  0.00    -0.407 OA
ATOM     29  C   UNL     1       6.667  -9.040   0.677  0.00  0.00    +0.422 A 
ATOM     30  O   UNL     1       6.337  -8.791  -0.467  0.00  0.00    -0.223 OA
ENDBRANCH  20  21
ENDBRANCH   1  20
TORSDOF 6
