REMARK  Name = ZINC12885595
REMARK  6 active torsions:
REMARK  status: ('A' for Active; 'I' for Inactive)
REMARK    1  A    between atoms: C_1  and  C_2
REMARK    2  A    between atoms: C_13  and  C_15
REMARK    3  A    between atoms: C_15  and  C_16
REMARK    4  A    between atoms: N_21  and  C_24
REMARK    5  A    between atoms: C_24  and  C_25
REMARK    6  A    between atoms: C_25  and  C_26
REMARK                            x       y       z     vdW  Elec       q    Type
REMARK                         _______ _______ _______ _____ _____    ______ ____
ROOT
ATOM      1  C   UNL     1      -4.426   5.140  -6.409  0.00  0.00    +0.044 C 
ATOM      2  C   UNL     1      -5.078   4.735  -5.112  0.00  0.00    -0.050 A 
ATOM      3  C   UNL     1      -6.413   4.373  -5.091  0.00  0.00    +0.005 A 
ATOM      4  C   UNL     1      -7.015   4.002  -3.906  0.00  0.00    +0.024 A 
ATOM      5  C   UNL     1      -6.282   3.988  -2.722  0.00  0.00    +0.036 A 
ATOM      6  C   UNL     1      -4.939   4.351  -2.756  0.00  0.00    -0.027 A 
ATOM      7  C   UNL     1      -4.343   4.723  -3.941  0.00  0.00    +0.008 A 
ATOM      8  C   UNL     1      -4.444   4.229  -1.343  0.00  0.00    +0.050 C 
ATOM      9  C   UNL     1      -3.897   5.562  -0.819  0.00  0.00    +0.088 C 
ATOM     10  C   UNL     1      -2.702   5.162   0.091  0.00  0.00    +0.073 C 
ATOM     11  C   UNL     1      -2.657   3.621   0.034  0.00  0.00    -0.049 C 
ATOM     12  C   UNL     1      -1.504   5.725  -0.638  0.00  0.00    +0.224 C 
ATOM     13  O   UNL     1      -0.352   5.628  -0.273  0.00  0.00    -0.275 OA
ATOM     14  N   UNL     1      -1.913   6.347  -1.750  0.00  0.00    -0.241 N 
ATOM     15  C   UNL     1      -3.236   6.319  -1.948  0.00  0.00    +0.225 C 
ATOM     16  O   UNL     1      -3.814   6.823  -2.887  0.00  0.00    -0.275 OA
ATOM     17  C   UNL     1      -5.638   3.773  -0.549  0.00  0.00    +0.211 C 
ATOM     18  O   UNL     1      -5.673   3.553   0.643  0.00  0.00    -0.277 OA
ATOM     19  N   UNL     1      -6.660   3.657  -1.419  0.00  0.00    -0.286 N 
ATOM     20  H   UNL     1      -7.554   3.377  -1.169  0.00  0.00    +0.155 HD
ATOM     21  N   UNL     1      -3.340   3.293  -1.219  0.00  0.00    +0.394 N 
ATOM     22  H   UNL     1      -2.696   3.396  -2.012  0.00  0.00    -0.083 HD
ATOM     23  H   UNL     1      -3.694   2.329  -1.188  0.00  0.00    -0.083 HD
ENDROOT
BRANCH  11  24
ATOM     24  C   UNL     1      -1.208   3.131   0.025  0.00  0.00    +0.080 C 
BRANCH  24  25
ATOM     25  C   UNL     1      -1.187   1.624   0.017  0.00  0.00    +0.209 C 
ATOM     26  O   UNL     1      -2.229   1.003   0.018  0.00  0.00    -0.276 OA
ATOM     27  N   UNL     1      -0.011   0.966   0.007  0.00  0.00    -0.329 N 
ATOM     28  H   UNL     1       0.002  -0.004   0.002  0.00  0.00    +0.145 HD
ATOM     29  H   UNL     1       0.822   1.462   0.002  0.00  0.00    +0.145 HD
ENDBRANCH  24  25
ENDBRANCH  11  24
BRANCH  14  30
ATOM     30  C   UNL     1      -0.987   7.006  -2.675  0.00  0.00    +0.121 C 
BRANCH  30  31
ATOM     31  C   UNL     1      -0.528   6.005  -3.737  0.00  0.00    +0.054 C 
BRANCH  31  32
ATOM     32  C   UNL     1       0.424   6.683  -4.688  0.00  0.00    -0.046 A 
ATOM     33  C   UNL     1      -0.060   7.305  -5.824  0.00  0.00    +0.004 A 
ATOM     34  C   UNL     1       0.813   7.931  -6.694  0.00  0.00    +0.000 A 
ATOM     35  C   UNL     1       2.171   7.926  -6.434  0.00  0.00    +0.000 A 
ATOM     36  C   UNL     1       2.655   7.299  -5.301  0.00  0.00    +0.000 A 
ATOM     37  C   UNL     1       1.782   6.678  -4.428  0.00  0.00    +0.004 A 
ENDBRANCH  31  32
ENDBRANCH  30  31
ENDBRANCH  14  30
TORSDOF 5
