REMARK  Name = ZINC21362437
REMARK  11 active torsions:
REMARK  status: ('A' for Active; 'I' for Inactive)
REMARK    1  A    between atoms: C_1  and  C_2
REMARK    2  A    between atoms: C_2  and  S_3
REMARK    3  A    between atoms: S_3  and  C_4
REMARK    4  A    between atoms: C_7  and  C_10
REMARK    5  A    between atoms: N_8  and  C_9
REMARK    6  A    between atoms: N_13  and  C_15
REMARK    7  A    between atoms: N_18  and  S_20
REMARK    8  A    between atoms: S_20  and  C_23
REMARK    9  A    between atoms: C_24  and  C_30
REMARK   10  A    between atoms: N_26  and  C_29
REMARK   11  A    between atoms: C_27  and  C_28
REMARK                            x       y       z     vdW  Elec       q    Type
REMARK                         _______ _______ _______ _____ _____    ______ ____
ROOT
ATOM      1  C   UNL     1      -0.355   1.578  -2.541  0.00  0.00    +0.134 A 
ATOM      2  C   UNL     1      -0.764   1.596  -1.198  0.00  0.00    +0.020 A 
ATOM      3  C   UNL     1      -1.991   2.166  -1.140  0.00  0.00    +0.045 A 
ATOM      4  N   UNL     1      -2.356   2.493  -2.393  0.00  0.00    -0.270 N 
ATOM      5  N   UNL     1      -1.320   2.120  -3.261  0.00  0.00    -0.168 NA
ATOM      6  C   UNL     1      -3.618   3.128  -2.783  0.00  0.00    +0.172 C 
ATOM      7  C   UNL     1      -2.772   2.382   0.133  0.00  0.00    +0.072 C 
ATOM      8  C   UNL     1      -2.192   1.479   1.228  0.00  0.00    +0.116 C 
ATOM      9  N   UNL     1      -0.723   1.571   1.205  0.00  0.00    -0.172 NA
ATOM     10  C   UNL     1      -0.013   1.086   0.008  0.00  0.00    +0.148 C 
ENDROOT
BRANCH   1  14
ATOM     11  C   UNL     1       2.570   0.448  -4.363  0.00  0.00    +0.192 A 
ATOM     12  N   UNL     1       2.856   0.156  -3.115  0.00  0.00    -0.122 NA
ATOM     13  N   UNL     1       1.891   0.513  -2.345  0.00  0.00    -0.127 NA
ATOM     14  C   UNL     1       0.925   1.047  -3.056  0.00  0.00    +0.185 A 
ATOM     15  N   UNL     1       1.332   1.026  -4.370  0.00  0.00    -0.304 N 
ATOM     16  C   UNL     1       0.592   1.519  -5.534  0.00  0.00    +0.153 C 
BRANCH  11  17
ATOM     17  S   UNL     1       3.593   0.152  -5.767  0.00  0.00    -0.086 S 
BRANCH  17  19
ATOM     18  C   UNL     1       6.072  -0.971  -6.013  0.00  0.00    +0.016 C 
ATOM     19  C   UNL     1       5.020  -0.616  -4.960  0.00  0.00    +0.074 C 
ENDBRANCH  17  19
ENDBRANCH  11  17
ENDBRANCH   1  14
BRANCH   9  20
ATOM     20  S   UNL     1       0.110   2.205   2.488  0.00  0.00    +0.065 S 
ATOM     21  O   UNL     1      -0.723   2.052   3.629  0.00  0.00    -0.153 OA
ATOM     22  O   UNL     1       1.423   1.665   2.425  0.00  0.00    -0.153 OA
BRANCH  20  23
ATOM     23  C   UNL     1       0.264   3.938   2.205  0.00  0.00    +0.148 A 
ATOM     24  C   UNL     1      -0.639   4.922   2.620  0.00  0.00    +0.086 A 
ATOM     25  N   UNL     1      -0.185   6.085   2.226  0.00  0.00    -0.174 NA
ATOM     26  N   UNL     1       1.023   5.876   1.548  0.00  0.00    -0.269 N 
ATOM     27  C   UNL     1       1.279   4.551   1.553  0.00  0.00    +0.062 A 
ATOM     28  C   UNL     1       2.478   3.875   0.940  0.00  0.00    +0.067 C 
ATOM     29  C   UNL     1       1.863   6.913   0.944  0.00  0.00    +0.172 C 
ATOM     30  C   UNL     1      -1.914   4.685   3.387  0.00  0.00    +0.069 C 
ENDBRANCH  20  23
ENDBRANCH   9  20
TORSDOF 5
