REMARK  Name = ZINC20171578
REMARK  8 active torsions:
REMARK  status: ('A' for Active; 'I' for Inactive)
REMARK    1  A    between atoms: C_1  and  C_2
REMARK    2  A    between atoms: C_2  and  C_35
REMARK    3  A    between atoms: C_6  and  N_28
REMARK    4  A    between atoms: C_13  and  S_17
REMARK    5  A    between atoms: S_17  and  C_18
REMARK    6  A    between atoms: C_18  and  C_19
REMARK    7  A    between atoms: N_21  and  C_22
REMARK    8  A    between atoms: C_22  and  C_23
REMARK                            x       y       z     vdW  Elec       q    Type
REMARK                         _______ _______ _______ _____ _____    ______ ____
ROOT
ATOM      1  C   UNL     1       3.234  -2.257   1.846  0.00  0.00    +0.041 C 
ATOM      2  C   UNL     1       3.549  -2.169   0.351  0.00  0.00    +0.068 C 
ATOM      3  C   UNL     1       3.724  -0.704  -0.053  0.00  0.00    +0.070 C 
ATOM      4  C   UNL     1       2.390  -0.008  -0.026  0.00  0.00    -0.024 A 
ATOM      5  C   UNL     1       1.217  -0.697  -0.015  0.00  0.00    +0.022 A 
ATOM      6  C   UNL     1       0.002  -0.004   0.002  0.00  0.00    +0.128 A 
ATOM      7  N   UNL     1      -0.016   1.320   0.009  0.00  0.00    -0.224 NA
ATOM      8  C   UNL     1       1.101   2.017   0.002  0.00  0.00    +0.113 A 
ATOM      9  C   UNL     1       2.368   1.409  -0.016  0.00  0.00    +0.037 A 
ATOM     10  C   UNL     1       3.523   2.325  -0.022  0.00  0.00    +0.092 A 
ATOM     11  C   UNL     1       3.220   3.692  -0.007  0.00  0.00    +0.072 A 
ATOM     12  S   UNL     1       1.450   3.758   0.012  0.00  0.00    -0.064 S 
ATOM     13  C   UNL     1       4.228   4.646  -0.010  0.00  0.00    +0.115 A 
ATOM     14  N   UNL     1       5.495   4.227  -0.030  0.00  0.00    -0.228 NA
ATOM     15  C   UNL     1       5.763   2.935  -0.042  0.00  0.00    +0.223 A 
ATOM     16  N   UNL     1       4.838   2.008  -0.039  0.00  0.00    -0.234 NA
ATOM     17  C   UNL     1       1.191  -2.204  -0.017  0.00  0.00    +0.199 C 
ATOM     18  O   UNL     1       2.464  -2.720  -0.404  0.00  0.00    -0.369 OA
ATOM     19  C   UNL     1       4.833  -2.944   0.048  0.00  0.00    +0.041 C 
ENDROOT
BRANCH   6  20
ATOM     20  N   UNL     1      -1.193  -0.710   0.011  0.00  0.00    -0.315 N 
ATOM     21  C   UNL     1      -1.314  -1.536   1.239  0.00  0.00    +0.106 C 
ATOM     22  C   UNL     1      -2.837  -1.803   1.338  0.00  0.00    +0.020 C 
ATOM     23  C   UNL     1      -3.454  -0.468   0.863  0.00  0.00    +0.020 C 
ATOM     24  C   UNL     1      -2.352   0.210   0.028  0.00  0.00    +0.106 C 
ENDBRANCH   6  20
BRANCH  13  25
ATOM     25  S   UNL     1       3.845   6.365   0.008  0.00  0.00    -0.095 S 
BRANCH  25  26
ATOM     26  C   UNL     1       5.517   7.060  -0.003  0.00  0.00    +0.171 C 
BRANCH  26  27
ATOM     27  C   UNL     1       5.435   8.565   0.010  0.00  0.00    +0.224 C 
ATOM     28  O   UNL     1       4.354   9.114   0.025  0.00  0.00    -0.275 OA
ATOM     29  N   UNL     1       6.564   9.301   0.004  0.00  0.00    -0.308 N 
ATOM     30  H   UNL     1       7.545   8.803  -0.010  0.00  0.00    +0.149 HD
BRANCH  29  31
ATOM     31  C   UNL     1       6.486  10.763   0.017  0.00  0.00    +0.178 C 
BRANCH  31  32
ATOM     32  C   UNL     1       7.877  11.342   0.007  0.00  0.00    +0.122 A 
ATOM     33  C   UNL     1       8.592  11.652  -1.089  0.00  0.00    +0.046 A 
ATOM     34  C   UNL     1       9.832  12.162  -0.639  0.00  0.00    +0.041 A 
ATOM     35  C   UNL     1       9.800  12.132   0.706  0.00  0.00    +0.195 A 
ATOM     36  O   UNL     1       8.612  11.640   1.091  0.00  0.00    -0.466 OA
ENDBRANCH  31  32
ENDBRANCH  29  31
ENDBRANCH  26  27
ENDBRANCH  25  26
ENDBRANCH  13  25
TORSDOF 6
