REMARK  Name = ZINC41584681
REMARK  12 active torsions:
REMARK  status: ('A' for Active; 'I' for Inactive)
REMARK    1  A    between atoms: C_1  and  C_2
REMARK    2  A    between atoms: C_2  and  C_3
REMARK    3  A    between atoms: C_3  and  O_4
REMARK    4  A    between atoms: O_4  and  C_5
REMARK    5  A    between atoms: C_5  and  C_7
REMARK    6  A    between atoms: C_7  and  C_8
REMARK    7  A    between atoms: C_8  and  C_9
REMARK    8  A    between atoms: C_12  and  C_35
REMARK    9  A    between atoms: C_18  and  C_21
REMARK   10  A    between atoms: C_19  and  O_20
REMARK   11  A    between atoms: C_21  and  N_22
REMARK   12  A    between atoms: C_27  and  C_29
REMARK                            x       y       z     vdW  Elec       q    Type
REMARK                         _______ _______ _______ _____ _____    ______ ____
ROOT
ATOM      1  C   UNL     1       2.250  -5.986   3.641  0.00  0.00    -0.004 A 
ATOM      2  C   UNL     1       1.310  -6.675   4.352  0.00  0.00    +0.019 A 
ATOM      3  C   UNL     1       1.366  -8.072   4.407  0.00  0.00    +0.021 A 
ATOM      4  C   UNL     1       0.371  -8.837   5.162  0.00  0.00    -0.033 A 
ATOM      5  C   UNL     1       0.479 -10.191   5.177  0.00  0.00    +0.096 A 
ATOM      6  C   UNL     1       1.530 -10.819   4.477  0.00  0.00    +0.337 A 
ATOM      7  O   UNL     1       1.616 -12.034   4.499  0.00  0.00    -0.245 OA
ATOM      8  O   UNL     1       2.439 -10.112   3.787  0.00  0.00    -0.422 OA
ATOM      9  C   UNL     1       2.389  -8.764   3.732  0.00  0.00    +0.144 A 
ATOM     10  C   UNL     1       3.336  -8.048   3.015  0.00  0.00    +0.021 A 
ATOM     11  C   UNL     1       3.262  -6.666   2.965  0.00  0.00    +0.125 A 
ATOM     12  C   UNL     1      -0.743  -8.142   5.901  0.00  0.00    +0.045 C 
ENDROOT
BRANCH  11  13
ATOM     13  O   UNL     1       4.186  -5.967   2.258  0.00  0.00    -0.506 OA
ATOM     14  H   UNL     1       4.966  -5.715   2.771  0.00  0.00    +0.292 HD
ENDBRANCH  11  13
BRANCH   1  15
ATOM     15  C   UNL     1       2.189  -4.482   3.581  0.00  0.00    +0.050 C 
BRANCH  15  16
ATOM     16  C   UNL     1       1.438  -4.051   2.320  0.00  0.00    +0.125 C 
BRANCH  16  17
ATOM     17  C   UNL     1       1.377  -2.546   2.260  0.00  0.00    +0.307 C 
ATOM     18  O   UNL     1       1.884  -1.886   3.137  0.00  0.00    -0.251 OA
BRANCH  17  19
ATOM     19  O   UNL     1       0.761  -1.940   1.234  0.00  0.00    -0.465 OA
BRANCH  19  20
ATOM     20  C   UNL     1       0.742  -0.511   1.242  0.00  0.00    +0.232 C 
BRANCH  20  22
ATOM     21  C   UNL     1      -0.019   1.526   0.010  0.00  0.00    +0.007 C 
ATOM     22  C   UNL     1       0.002  -0.004   0.002  0.00  0.00    +0.038 C 
ENDBRANCH  20  22
ENDBRANCH  19  20
ENDBRANCH  17  19
ENDBRANCH  16  17
ENDBRANCH  15  16
ENDBRANCH   1  15
BRANCH  10  23
ATOM     23  C   UNL     1       4.438  -8.773   2.286  0.00  0.00    -0.035 C 
BRANCH  23  24
ATOM     24  N   UNL     1       3.999  -9.085   0.919  0.00  0.00    +0.387 N 
ATOM     25  C   UNL     1       2.873 -10.025   0.972  0.00  0.00    -0.078 C 
ATOM     26  C   UNL     1       2.360 -10.291  -0.445  0.00  0.00    -0.019 C 
ATOM     27  C   UNL     1       3.489 -10.891  -1.288  0.00  0.00    -0.003 C 
ATOM     28  C   UNL     1       4.685  -9.935  -1.274  0.00  0.00    -0.011 C 
ATOM     29  C   UNL     1       5.113  -9.682   0.173  0.00  0.00    -0.036 C 
ATOM     30  H   UNL     1       3.705  -8.236   0.460  0.00  0.00    -0.080 HD
BRANCH  29  31
ATOM     31  C   UNL     1       6.291  -8.742   0.192  0.00  0.00    -0.043 A 
ATOM     32  C   UNL     1       7.579  -9.233   0.343  0.00  0.00    +0.005 A 
ATOM     33  C   UNL     1       8.632  -8.332   0.354  0.00  0.00    +0.020 A 
ATOM     34  C   UNL     1       8.364  -6.982   0.215  0.00  0.00    +0.111 A 
ATOM     35  N   UNL     1       7.126  -6.551   0.075  0.00  0.00    -0.263 NA
ATOM     36  C   UNL     1       6.101  -7.381   0.053  0.00  0.00    +0.112 A 
ENDBRANCH  29  31
ENDBRANCH  23  24
ENDBRANCH  10  23
TORSDOF 10
