REMARK  Name = ZINC21323901
REMARK  9 active torsions:
REMARK  status: ('A' for Active; 'I' for Inactive)
REMARK    1  A    between atoms: C_1  and  C_2
REMARK    2  A    between atoms: C_2  and  O_3
REMARK    3  A    between atoms: O_3  and  C_4
REMARK    4  A    between atoms: C_4  and  C_6
REMARK    5  A    between atoms: N_9  and  C_12
REMARK    6  A    between atoms: C_12  and  C_14
REMARK    7  A    between atoms: C_12  and  C_15
REMARK    8  A    between atoms: C_18  and  C_30
REMARK    9  A    between atoms: C_21  and  C_23
REMARK                            x       y       z     vdW  Elec       q    Type
REMARK                         _______ _______ _______ _____ _____    ______ ____
ROOT
ATOM      1  C   UNL     1       3.518   1.189  -0.312  0.00  0.00    +0.222 C 
ATOM      2  O   UNL     1       4.145   0.215   0.050  0.00  0.00    -0.276 OA
ATOM      3  N   UNL     1       2.354   1.032  -0.974  0.00  0.00    -0.183 N 
ATOM      4  C   UNL     1       1.733  -0.256  -1.321  0.00  0.00    +0.172 C 
ATOM      5  C   UNL     1       0.442   0.152  -2.058  0.00  0.00    +0.090 C 
ATOM      6  C   UNL     1       0.478   1.664  -2.046  0.00  0.00    +0.069 C 
ATOM      7  N   UNL     1       1.543   2.064  -1.442  0.00  0.00    -0.181 NA
ENDROOT
BRANCH   6   8
ATOM      8  C   UNL     1      -0.545   2.544  -2.640  0.00  0.00    -0.002 A 
ATOM      9  C   UNL     1      -1.656   1.994  -3.283  0.00  0.00    +0.011 A 
ATOM     10  C   UNL     1      -2.613   2.823  -3.831  0.00  0.00    +0.020 A 
ATOM     11  C   UNL     1      -2.467   4.198  -3.756  0.00  0.00    +0.041 A 
ATOM     12  C   UNL     1      -1.365   4.750  -3.124  0.00  0.00    +0.020 A 
ATOM     13  C   UNL     1      -0.404   3.932  -2.567  0.00  0.00    +0.011 A 
ATOM     14 CL   UNL     1      -3.671   5.234  -4.455  0.00  0.00    -0.084 Cl
ENDBRANCH   6   8
BRANCH   4  15
ATOM     15  C   UNL     1       2.634  -1.052  -2.230  0.00  0.00    +0.128 A 
ATOM     16  C   UNL     1       2.758  -2.391  -2.238  0.00  0.00    +0.046 A 
ATOM     17  C   UNL     1       3.703  -2.708  -3.241  0.00  0.00    +0.041 A 
ATOM     18  C   UNL     1       4.100  -1.544  -3.785  0.00  0.00    +0.195 A 
ATOM     19  O   UNL     1       3.445  -0.544  -3.172  0.00  0.00    -0.466 OA
ENDBRANCH   4  15
BRANCH   1  20
ATOM     20  C   UNL     1       4.040   2.572  -0.023  0.00  0.00    +0.018 C 
ATOM     21  C   UNL     1       3.447   3.076   1.295  0.00  0.00    -0.004 C 
BRANCH  20  25
ATOM     22  C   UNL     1       8.116   1.308   0.246  0.00  0.00    +0.094 C 
ATOM     23  C   UNL     1       7.626   2.009  -1.025  0.00  0.00    -0.004 C 
ATOM     24  C   UNL     1       6.101   1.904  -1.103  0.00  0.00    -0.077 C 
ATOM     25  N   UNL     1       5.505   2.530   0.084  0.00  0.00    +0.387 N 
ATOM     26  C   UNL     1       5.924   1.845   1.313  0.00  0.00    -0.077 C 
ATOM     27  C   UNL     1       7.443   1.948   1.463  0.00  0.00    -0.004 C 
ATOM     28  H   UNL     1       5.871   3.566   0.136  0.00  0.00    -0.081 HD
BRANCH  22  29
ATOM     29  C   UNL     1       9.611   1.459   0.359  0.00  0.00    +0.310 C 
ATOM     30  O   UNL     1      10.223   2.065  -0.489  0.00  0.00    -0.251 OA
BRANCH  29  31
ATOM     31  O   UNL     1      10.263   0.921   1.402  0.00  0.00    -0.465 OA
BRANCH  31  33
ATOM     32  C   UNL     1      12.265   0.429   2.697  0.00  0.00    +0.048 C 
ATOM     33  C   UNL     1      11.702   1.106   1.446  0.00  0.00    +0.229 C 
ENDBRANCH  31  33
ENDBRANCH  29  31
ENDBRANCH  22  29
ENDBRANCH  20  25
ENDBRANCH   1  20
TORSDOF 7
