REMARK  Name = ZINC36002841
REMARK  5 active torsions:
REMARK  status: ('A' for Active; 'I' for Inactive)
REMARK    1  A    between atoms: C_1  and  C_2
REMARK    2  A    between atoms: N_8  and  C_11
REMARK    3  A    between atoms: N_18  and  C_19
REMARK    4  A    between atoms: C_22  and  N_25
REMARK    5  A    between atoms: C_26  and  C_28
REMARK                            x       y       z     vdW  Elec       q    Type
REMARK                         _______ _______ _______ _____ _____    ______ ____
ROOT
ATOM      1  C   UNL     1      -0.018   1.503   0.010  0.00  0.00    +0.088 C 
ATOM      2  C   UNL     1       0.002  -0.004   0.002  0.00  0.00    +0.130 A 
ATOM      3  N   UNL     1       0.005  -0.632  -1.161  0.00  0.00    -0.217 NA
ATOM      4  C   UNL     1       0.023  -1.959  -1.226  0.00  0.00    +0.133 A 
ATOM      5  C   UNL     1       0.038  -2.688  -0.021  0.00  0.00    +0.079 A 
ATOM      6  C   UNL     1       0.058  -4.061   0.308  0.00  0.00    +0.148 A 
ATOM      7  N   UNL     1       0.065  -4.175   1.606  0.00  0.00    -0.172 NA
ATOM      8  N   UNL     1       0.051  -2.903   2.192  0.00  0.00    -0.214 N 
ATOM      9  C   UNL     1       0.035  -1.972   1.192  0.00  0.00    +0.168 A 
ATOM     10  N   UNL     1       0.022  -0.641   1.152  0.00  0.00    -0.213 NA
ATOM     11  N   UNL     1       0.025  -2.607  -2.446  0.00  0.00    -0.326 N 
ATOM     12  H   UNL     1       0.038  -3.576  -2.480  0.00  0.00    +0.148 HD
ENDROOT
BRANCH   8  13
ATOM     13  C   UNL     1       0.053  -2.631   3.566  0.00  0.00    +0.069 A 
ATOM     14  C   UNL     1       0.726  -1.518   4.054  0.00  0.00    +0.028 A 
ATOM     15  C   UNL     1       0.726  -1.252   5.409  0.00  0.00    +0.003 A 
ATOM     16  C   UNL     1       0.059  -2.094   6.281  0.00  0.00    +0.020 A 
ATOM     17  C   UNL     1      -0.611  -3.204   5.798  0.00  0.00    +0.043 A 
ATOM     18  C   UNL     1      -0.621  -3.471   4.441  0.00  0.00    +0.047 A 
ATOM     19 CL   UNL     1      -1.447  -4.257   6.896  0.00  0.00    -0.083 Cl
ENDBRANCH   8  13
BRANCH  11  20
ATOM     20  C   UNL     1       0.008  -1.830  -3.688  0.00  0.00    +0.072 C 
ATOM     21  C   UNL     1      -1.436  -1.473  -4.046  0.00  0.00    +0.024 C 
ATOM     22  C   UNL     1      -1.454  -0.662  -5.344  0.00  0.00    +0.024 C 
ATOM     23  C   UNL     1      -0.839  -1.492  -6.472  0.00  0.00    +0.073 C 
ATOM     24  C   UNL     1       0.605  -1.849  -6.114  0.00  0.00    +0.024 C 
ATOM     25  C   UNL     1       0.623  -2.660  -4.817  0.00  0.00    +0.024 C 
BRANCH  23  26
ATOM     26  N   UNL     1      -0.856  -0.716  -7.715  0.00  0.00    -0.312 N 
ATOM     27  C   UNL     1      -0.853  -1.348  -8.905  0.00  0.00    +0.216 C 
ATOM     28  O   UNL     1      -0.837  -2.560  -8.947  0.00  0.00    -0.276 OA
ATOM     29  H   UNL     1      -0.869   0.254  -7.681  0.00  0.00    +0.149 HD
BRANCH  27  30
ATOM     30  C   UNL     1      -0.871  -0.550 -10.182  0.00  0.00    +0.075 C 
ATOM     31  C   UNL     1      -2.172   0.274 -10.273  0.00  0.00    +0.013 C 
ATOM     32  C   UNL     1      -2.545   0.230 -11.776  0.00  0.00    +0.001 C 
ATOM     33  C   UNL     1      -2.162  -1.215 -12.181  0.00  0.00    +0.001 C 
ATOM     34  C   UNL     1      -0.864  -1.496 -11.396  0.00  0.00    +0.013 C 
ENDBRANCH  27  30
ENDBRANCH  23  26
ENDBRANCH  11  20
TORSDOF 4
