REMARK  Name = ZINC10049289
REMARK  6 active torsions:
REMARK  status: ('A' for Active; 'I' for Inactive)
REMARK    1  A    between atoms: C_1  and  C_2
REMARK    2  A    between atoms: N_12  and  C_27
REMARK    3  A    between atoms: N_16  and  C_17
REMARK    4  A    between atoms: C_17  and  C_18
REMARK    5  A    between atoms: C_18  and  N_19
REMARK    6  A    between atoms: N_19  and  C_20
REMARK                            x       y       z     vdW  Elec       q    Type
REMARK                         _______ _______ _______ _____ _____    ______ ____
ROOT
ATOM      1  C   UNL     1      -0.451  -3.662  -0.012  0.00  0.00    +0.065 C 
ATOM      2  C   UNL     1       0.013  -2.228  -0.009  0.00  0.00    +0.035 A 
ATOM      3  C   UNL     1       1.277  -1.817  -0.019  0.00  0.00    +0.116 A 
ATOM      4  N   UNL     1       1.286  -0.433  -0.013  0.00  0.00    -0.277 N 
ATOM      5  C   UNL     1       2.091   0.696  -0.015  0.00  0.00    +0.157 A 
ATOM      6  C   UNL     1       3.478   0.916  -0.026  0.00  0.00    +0.280 A 
ATOM      7  O   UNL     1       4.250  -0.026  -0.039  0.00  0.00    -0.265 OA
ATOM      8  N   UNL     1       3.946   2.181  -0.025  0.00  0.00    -0.273 N 
ATOM      9  H   UNL     1       4.933   2.340  -0.035  0.00  0.00    +0.173 HD
ATOM     10  C   UNL     1       3.107   3.231  -0.012  0.00  0.00    +0.331 A 
ATOM     11  O   UNL     1       3.567   4.357  -0.011  0.00  0.00    -0.246 OA
ATOM     12  N   UNL     1       1.771   3.068   0.001  0.00  0.00    -0.280 N 
ATOM     13  C   UNL     1       1.228   1.792   0.000  0.00  0.00    +0.170 A 
ATOM     14  N   UNL     1      -0.016   1.321   0.009  0.00  0.00    -0.193 NA
ATOM     15  C   UNL     1       0.002  -0.004   0.002  0.00  0.00    +0.218 A 
ATOM     16  N   UNL     1      -0.803  -1.113   0.004  0.00  0.00    -0.312 N 
ATOM     17  C   UNL     1       0.890   4.238   0.016  0.00  0.00    +0.155 C 
ENDROOT
BRANCH  16  18
ATOM     18  C   UNL     1      -2.268  -1.115   0.018  0.00  0.00    +0.143 C 
BRANCH  18  19
ATOM     19  C   UNL     1      -2.791  -1.109  -1.420  0.00  0.00    +0.123 C 
BRANCH  19  20
ATOM     20  N   UNL     1      -4.256  -1.111  -1.406  0.00  0.00    -0.342 N 
ATOM     21  H   UNL     1      -4.733  -1.116  -0.562  0.00  0.00    +0.146 HD
BRANCH  20  22
ATOM     22  C   UNL     1      -4.966  -1.106  -2.610  0.00  0.00    +0.027 A 
ATOM     23  C   UNL     1      -4.284  -1.093  -3.820  0.00  0.00    +0.024 A 
ATOM     24  C   UNL     1      -4.988  -1.093  -5.008  0.00  0.00    +0.017 A 
ATOM     25  C   UNL     1      -6.372  -1.096  -4.994  0.00  0.00    +0.018 A 
ATOM     26  C   UNL     1      -7.054  -1.103  -3.790  0.00  0.00    +0.017 A 
ATOM     27  C   UNL     1      -6.355  -1.108  -2.599  0.00  0.00    +0.024 A 
ATOM     28 BR   UNL     1      -7.332  -1.089  -6.622  0.00  0.00    -0.050 Br
ENDBRANCH  20  22
ENDBRANCH  19  20
ENDBRANCH  18  19
ENDBRANCH  16  18
TORSDOF 4
