REMARK  Name = ZINC38546267
REMARK  7 active torsions:
REMARK  status: ('A' for Active; 'I' for Inactive)
REMARK    1  A    between atoms: C_1  and  C_2
REMARK    2  A    between atoms: C_4  and  C_15
REMARK    3  A    between atoms: C_5  and  N_7
REMARK    4  A    between atoms: C_8  and  C_10
REMARK    5  A    between atoms: C_15  and  C_17
REMARK    6  A    between atoms: C_15  and  N_26
REMARK    7  A    between atoms: C_29  and  C_32
REMARK                            x       y       z     vdW  Elec       q    Type
REMARK                         _______ _______ _______ _____ _____    ______ ____
ROOT
ATOM      1  C   UNL     1      -1.917  -3.223  -0.007  0.00  0.00    -0.004 C 
ENDROOT
BRANCH   1   2
ATOM      2  C   UNL     1      -2.206  -3.655   1.408  0.00  0.00    -0.053 A 
ATOM      3  C   UNL     1      -2.967  -2.847   2.233  0.00  0.00    +0.006 A 
ATOM      4  C   UNL     1      -3.236  -3.239   3.531  0.00  0.00    +0.050 A 
ATOM      5  C   UNL     1      -2.743  -4.442   4.009  0.00  0.00    +0.166 A 
ATOM      6  C   UNL     1      -1.976  -5.256   3.177  0.00  0.00    +0.166 A 
ATOM      7  C   UNL     1      -1.716  -4.859   1.875  0.00  0.00    +0.052 A 
ATOM      8  O   UNL     1      -1.614  -6.373   3.873  0.00  0.00    -0.453 OA
ATOM      9  C   UNL     1      -1.820  -6.045   5.260  0.00  0.00    +0.466 C 
ATOM     10  O   UNL     1      -2.860  -5.050   5.225  0.00  0.00    -0.453 OA
ENDBRANCH   1   2
BRANCH   1  11
ATOM     11  N   UNL     1      -3.115  -2.599  -0.584  0.00  0.00    +0.387 N 
ATOM     12  C   UNL     1      -2.829  -2.172  -1.958  0.00  0.00    -0.077 C 
ATOM     13  C   UNL     1      -4.048  -1.449  -2.536  0.00  0.00    -0.015 C 
ATOM     14  C   UNL     1      -5.247  -2.402  -2.535  0.00  0.00    -0.018 C 
ATOM     15  C   UNL     1      -5.490  -2.900  -1.108  0.00  0.00    -0.015 C 
ATOM     16  C   UNL     1      -4.217  -3.569  -0.583  0.00  0.00    -0.077 C 
ATOM     17  C   UNL     1      -6.488  -1.662  -3.038  0.00  0.00    +0.007 C 
ATOM     18  H   UNL     1      -3.374  -1.796  -0.031  0.00  0.00    -0.080 HD
ENDBRANCH   1  11
BRANCH   1  22
ATOM     19  C   UNL     1      -0.018   1.503   0.010  0.00  0.00    +0.051 C 
ATOM     20  C   UNL     1       0.002  -0.004   0.002  0.00  0.00    -0.011 A 
ATOM     21  C   UNL     1      -1.040  -0.870   0.002  0.00  0.00    +0.015 A 
ATOM     22  C   UNL     1      -0.784  -2.229  -0.007  0.00  0.00    -0.028 A 
ATOM     23  C   UNL     1       0.511  -2.653  -0.015  0.00  0.00    +0.074 A 
ATOM     24  S   UNL     1       1.405  -1.108  -0.018  0.00  0.00    -0.078 S 
BRANCH  23  25
ATOM     25  N   UNL     1       1.010  -3.958  -0.024  0.00  0.00    -0.273 N 
ATOM     26  C   UNL     1       2.341  -4.170  -0.031  0.00  0.00    +0.284 C 
ATOM     27  O   UNL     1       3.108  -3.225  -0.029  0.00  0.00    -0.266 OA
ATOM     28  H   UNL     1       0.398  -4.710  -0.025  0.00  0.00    +0.156 HD
BRANCH  26  29
ATOM     29  C   UNL     1       2.864  -5.540  -0.040  0.00  0.00    +0.189 A 
ATOM     30  C   UNL     1       4.182  -5.895  -0.042  0.00  0.00    +0.054 A 
ATOM     31  C   UNL     1       4.222  -7.298  -0.052  0.00  0.00    +0.042 A 
ATOM     32  C   UNL     1       2.943  -7.732  -0.055  0.00  0.00    +0.196 A 
ATOM     33  O   UNL     1       2.127  -6.670  -0.043  0.00  0.00    -0.458 OA
ENDBRANCH  26  29
ENDBRANCH  23  25
ENDBRANCH   1  22
TORSDOF 5
