REMARK  Name = ZINC03368654
REMARK  6 active torsions:
REMARK  status: ('A' for Active; 'I' for Inactive)
REMARK    1  A    between atoms: C_1  and  N_2
REMARK    2  A    between atoms: C_6  and  S_7
REMARK    3  A    between atoms: S_7  and  C_8
REMARK    4  A    between atoms: C_13  and  N_14
REMARK    5  A    between atoms: N_14  and  S_15
REMARK    6  A    between atoms: S_15  and  C_18
REMARK                            x       y       z     vdW  Elec       q    Type
REMARK                         _______ _______ _______ _____ _____    ______ ____
ROOT
ATOM      1  N   UNL     1       4.104  -0.976  -1.571  0.00  0.00    -0.215 N 
ATOM      2  H   UNL     1       4.146  -1.893  -1.884  0.00  0.00    +0.174 HD
ENDROOT
BRANCH   1   8
ATOM      3  C   UNL     1       4.057  -0.015  -3.793  0.00  0.00    +0.038 A 
ATOM      4  C   UNL     1       4.352   1.034  -4.652  0.00  0.00    +0.018 A 
ATOM      5  C   UNL     1       4.996   2.159  -4.174  0.00  0.00    +0.021 A 
ATOM      6  C   UNL     1       5.344   2.247  -2.837  0.00  0.00    +0.043 A 
ATOM      7  C   UNL     1       5.049   1.208  -1.972  0.00  0.00    +0.045 A 
ATOM      8  C   UNL     1       4.403   0.076  -2.444  0.00  0.00    +0.063 A 
ATOM      9 CL   UNL     1       6.153   3.664  -2.245  0.00  0.00    -0.083 Cl
BRANCH   3  10
ATOM     10  S   UNL     1       3.242  -1.454  -4.401  0.00  0.00    -0.048 S 
BRANCH  10  16
ATOM     11  C   UNL     1       3.359  -4.677  -5.131  0.00  0.00    +0.152 C 
ATOM     12  N   UNL     1       4.550  -3.898  -4.783  0.00  0.00    -0.311 N 
ATOM     13  C   UNL     1       5.838  -4.349  -4.707  0.00  0.00    +0.225 A 
ATOM     14  N   UNL     1       6.585  -3.336  -4.367  0.00  0.00    -0.137 NA
ATOM     15  N   UNL     1       5.862  -2.282  -4.231  0.00  0.00    -0.122 NA
ATOM     16  C   UNL     1       4.604  -2.570  -4.469  0.00  0.00    +0.196 A 
ENDBRANCH  10  16
ENDBRANCH   3  10
ENDBRANCH   1   8
BRANCH   1  17
ATOM     17  S   UNL     1       3.677  -0.656  -0.004  0.00  0.00    +0.072 S 
ATOM     18  O   UNL     1       4.702   0.167   0.536  0.00  0.00    -0.150 OA
ATOM     19  O   UNL     1       3.311  -1.899   0.580  0.00  0.00    -0.150 OA
BRANCH  17  20
ATOM     20  C   UNL     1       2.216   0.327  -0.052  0.00  0.00    +0.112 A 
ATOM     21  C   UNL     1       0.974  -0.281  -0.050  0.00  0.00    +0.032 A 
ATOM     22  C   UNL     1      -0.174   0.486  -0.088  0.00  0.00    +0.051 A 
ATOM     23  C   UNL     1      -0.085   1.869  -0.130  0.00  0.00    +0.162 A 
ATOM     24  C   UNL     1       1.163   2.481  -0.130  0.00  0.00    +0.164 A 
ATOM     25  C   UNL     1       2.312   1.705  -0.092  0.00  0.00    +0.078 A 
ATOM     26  O   UNL     1       1.274   3.838  -0.162  0.00  0.00    -0.485 OA
ATOM     27  C   UNL     1       0.114   4.568  -0.576  0.00  0.00    +0.270 C 
ATOM     28  C   UNL     1      -1.103   3.998   0.164  0.00  0.00    +0.270 C 
ATOM     29  O   UNL     1      -1.224   2.612  -0.176  0.00  0.00    -0.485 OA
ENDBRANCH  17  20
ENDBRANCH   1  17
TORSDOF 5
