REMARK  Name = ZINC22181232
REMARK  9 active torsions:
REMARK  status: ('A' for Active; 'I' for Inactive)
REMARK    1  A    between atoms: C_1  and  C_2
REMARK    2  A    between atoms: C_3  and  C_34
REMARK    3  A    between atoms: C_11  and  C_13
REMARK    4  A    between atoms: C_13  and  C_15
REMARK    5  A    between atoms: C_13  and  S_16
REMARK    6  A    between atoms: S_16  and  C_17
REMARK    7  A    between atoms: N_22  and  C_23
REMARK    8  A    between atoms: C_26  and  O_29
REMARK    9  A    between atoms: O_29  and  C_30
REMARK                            x       y       z     vdW  Elec       q    Type
REMARK                         _______ _______ _______ _____ _____    ______ ____
ROOT
ATOM      1  C   UNL     1      -1.365  -5.589   5.850  0.00  0.00    +0.161 A 
ATOM      2  N   UNL     1      -0.645  -5.393   6.938  0.00  0.00    -0.133 NA
ATOM      3  N   UNL     1      -0.598  -6.363   7.912  0.00  0.00    -0.125 NA
ATOM      4  C   UNL     1      -1.273  -7.485   7.753  0.00  0.00    +0.187 A 
ATOM      5  S   UNL     1      -2.042  -7.212   6.164  0.00  0.00    -0.024 S 
ATOM      6  N   UNL     1      -1.365  -8.584   8.599  0.00  0.00    -0.292 N 
ATOM      7  H   UNL     1      -1.835  -9.382   8.309  0.00  0.00    +0.154 HD
ENDROOT
BRANCH   6   8
ATOM      8  C   UNL     1      -0.781  -8.540   9.870  0.00  0.00    +0.033 A 
ATOM      9  C   UNL     1      -0.379  -9.716  10.491  0.00  0.00    +0.027 A 
ATOM     10  C   UNL     1       0.197  -9.671  11.745  0.00  0.00    +0.048 A 
ATOM     11  C   UNL     1       0.374  -8.453  12.385  0.00  0.00    +0.130 A 
ATOM     12  C   UNL     1      -0.028  -7.279  11.766  0.00  0.00    +0.048 A 
ATOM     13  C   UNL     1      -0.598  -7.321  10.509  0.00  0.00    +0.027 A 
BRANCH  11  14
ATOM     14  O   UNL     1       0.941  -8.411  13.620  0.00  0.00    -0.406 OA
BRANCH  14  15
ATOM     15  C   UNL     1       1.093  -7.122  14.220  0.00  0.00    +0.575 C 
ATOM     16  F   UNL     1      -0.164  -6.524  14.363  0.00  0.00    -0.133 F 
ATOM     17  F   UNL     1       1.688  -7.261  15.479  0.00  0.00    -0.133 F 
ATOM     18  F   UNL     1       1.902  -6.322  13.408  0.00  0.00    -0.133 F 
ENDBRANCH  14  15
ENDBRANCH  11  14
ENDBRANCH   6   8
BRANCH   1  19
ATOM     19  S   UNL     1      -1.602  -4.530   4.461  0.00  0.00    -0.086 S 
BRANCH  19  20
ATOM     20  C   UNL     1      -0.605  -3.066   4.851  0.00  0.00    +0.116 C 
ATOM     21  C   UNL     1       0.875  -3.453   4.897  0.00  0.00    +0.027 C 
BRANCH  20  32
ATOM     22  C   UNL     1      -1.460   2.238   0.841  0.00  0.00    +0.045 C 
ATOM     23  C   UNL     1      -1.423   0.739   0.695  0.00  0.00    -0.026 A 
ATOM     24  C   UNL     1      -1.587   0.169  -0.510  0.00  0.00    -0.008 A 
ATOM     25  S   UNL     1      -1.462  -1.575  -0.162  0.00  0.00    -0.073 S 
ATOM     26  C   UNL     1      -1.194  -1.488   1.590  0.00  0.00    +0.116 A 
ATOM     27  C   UNL     1      -1.203  -0.106   1.854  0.00  0.00    +0.075 A 
ATOM     28  C   UNL     1      -1.000   0.264   3.223  0.00  0.00    +0.260 A 
ATOM     29  O   UNL     1      -0.996   1.437   3.554  0.00  0.00    -0.267 OA
ATOM     30  N   UNL     1      -0.814  -0.705   4.139  0.00  0.00    -0.309 N 
ATOM     31  H   UNL     1      -0.676  -0.460   5.068  0.00  0.00    +0.170 HD
ATOM     32  C   UNL     1      -0.817  -2.017   3.790  0.00  0.00    +0.124 A 
ATOM     33  N   UNL     1      -1.008  -2.386   2.552  0.00  0.00    -0.225 NA
ATOM     34  C   UNL     1      -1.820   0.843  -1.837  0.00  0.00    +0.052 C 
ENDBRANCH  20  32
ENDBRANCH  19  20
ENDBRANCH   1  19
TORSDOF 6
