REMARK  Name = ZINC10646044
REMARK  5 active torsions:
REMARK  status: ('A' for Active; 'I' for Inactive)
REMARK    1  A    between atoms: C_4  and  C_7
REMARK    2  A    between atoms: C_7  and  C_9
REMARK    3  A    between atoms: C_12  and  N_18
REMARK    4  A    between atoms: C_13  and  N_15
REMARK    5  A    between atoms: C_22  and  C_25
REMARK                            x       y       z     vdW  Elec       q    Type
REMARK                         _______ _______ _______ _____ _____    ______ ____
ROOT
ATOM      1  C   UNL     1      -3.817   3.174  -0.041  0.00  0.00    +0.025 A 
ATOM      2  C   UNL     1      -3.862   1.775  -0.041  0.00  0.00    +0.013 A 
ATOM      3  C   UNL     1      -5.065   1.133  -0.122  0.00  0.00    +0.026 A 
ATOM      4  C   UNL     1      -6.245   1.868  -0.203  0.00  0.00    +0.060 A 
ATOM      5  C   UNL     1      -6.204   3.260  -0.202  0.00  0.00    +0.148 A 
ATOM      6  C   UNL     1      -5.005   3.909  -0.117  0.00  0.00    +0.046 A 
ENDROOT
BRANCH   4   7
ATOM      7  N   UNL     1      -7.467   1.211  -0.284  0.00  0.00    -0.327 N 
ATOM      8  C   UNL     1      -7.732   0.439   0.937  0.00  0.00    +0.105 C 
ATOM      9  C   UNL     1      -9.143  -0.150   0.874  0.00  0.00    +0.020 C 
ATOM     10  C   UNL     1      -9.259  -1.053  -0.358  0.00  0.00    +0.014 C 
ATOM     11  C   UNL     1      -8.931  -0.236  -1.611  0.00  0.00    +0.074 C 
ATOM     12  C   UNL     1      -7.527   0.356  -1.476  0.00  0.00    +0.116 C 
BRANCH  11  13
ATOM     13  C   UNL     1      -8.986  -1.130  -2.824  0.00  0.00    +0.138 A 
ATOM     14  N   UNL     1      -8.260  -2.196  -3.036  0.00  0.00    -0.134 NA
ATOM     15  N   UNL     1      -8.576  -2.718  -4.169  0.00  0.00    -0.134 NA
ATOM     16  C   UNL     1      -9.518  -2.012  -4.726  0.00  0.00    +0.133 A 
ATOM     17  N   UNL     1      -9.800  -0.984  -3.893  0.00  0.00    -0.314 N 
ATOM     18  C   UNL     1     -10.770   0.087  -4.127  0.00  0.00    +0.125 C 
ATOM     19  C   UNL     1     -11.892  -0.437  -5.027  0.00  0.00    +0.022 C 
ATOM     20  C   UNL     1     -11.525  -0.211  -6.493  0.00  0.00    +0.002 C 
ATOM     21  C   UNL     1     -10.253  -0.973  -6.849  0.00  0.00    +0.008 C 
ATOM     22  C   UNL     1     -10.194  -2.276  -6.047  0.00  0.00    +0.076 C 
ENDBRANCH  11  13
ENDBRANCH   4   7
BRANCH   5  23
ATOM     23  N   UNL     1      -7.461   4.037  -0.289  0.00  0.00    +0.058 N 
ATOM     24  O   UNL     1      -7.425   5.254  -0.288  0.00  0.00    -0.126 OA
ATOM     25  O   UNL     1      -8.530   3.459  -0.360  0.00  0.00    -0.126 OA
ENDBRANCH   5  23
BRANCH   1  26
ATOM     26  C   UNL     1      -2.521   3.871   0.046  0.00  0.00    +0.193 C 
ATOM     27  O   UNL     1      -2.438   4.929   0.638  0.00  0.00    -0.287 OA
BRANCH  26  31
ATOM     28  C   UNL     1       0.925   2.181  -1.774  0.00  0.00    +0.000 A 
ATOM     29  C   UNL     1      -0.317   1.609  -1.987  0.00  0.00    +0.001 A 
ATOM     30  C   UNL     1      -1.441   2.156  -1.404  0.00  0.00    +0.012 A 
ATOM     31  C   UNL     1      -1.322   3.283  -0.587  0.00  0.00    +0.022 A 
ATOM     32  C   UNL     1      -0.066   3.854  -0.376  0.00  0.00    +0.012 A 
ATOM     33  C   UNL     1       1.049   3.300  -0.970  0.00  0.00    +0.001 A 
ENDBRANCH  26  31
ENDBRANCH   1  26
TORSDOF 5
