REMARK  Name = ZINC39595507
REMARK  10 active torsions:
REMARK  status: ('A' for Active; 'I' for Inactive)
REMARK    1  A    between atoms: C_1  and  C_2
REMARK    2  A    between atoms: C_2  and  C_4
REMARK    3  A    between atoms: C_2  and  O_31
REMARK    4  A    between atoms: C_4  and  N_5
REMARK    5  A    between atoms: C_6  and  C_8
REMARK    6  A    between atoms: C_19  and  C_21
REMARK    7  A    between atoms: C_26  and  O_27
REMARK    8  A    between atoms: O_27  and  C_28
REMARK    9  A    between atoms: C_28  and  C_30
REMARK   10  A    between atoms: O_31  and  C_32
REMARK                            x       y       z     vdW  Elec       q    Type
REMARK                         _______ _______ _______ _____ _____    ______ ____
ROOT
ATOM      1  C   UNL     1      -1.511  -5.066  -0.800  0.00  0.00    +0.100 C 
ATOM      2  C   UNL     1      -3.014  -5.422  -0.848  0.00  0.00    +0.121 C 
ATOM      3  N   UNL     1      -3.253  -5.852  -2.245  0.00  0.00    -0.296 N 
ATOM      4  C   UNL     1      -2.046  -6.635  -2.602  0.00  0.00    +0.115 C 
ATOM      5  C   UNL     1      -0.879  -5.867  -1.951  0.00  0.00    -0.004 C 
ATOM      6  C   UNL     1       0.159  -6.844  -1.406  0.00  0.00    -0.010 C 
ATOM      7  C   UNL     1       0.815  -7.587  -2.573  0.00  0.00    -0.082 C 
ATOM      8  N   UNL     1       1.450  -6.620  -3.476  0.00  0.00    +0.379 N 
ATOM      9  C   UNL     1       0.432  -5.743  -4.067  0.00  0.00    -0.082 C 
ATOM     10  C   UNL     1      -0.240  -4.922  -2.964  0.00  0.00    -0.010 C 
ATOM     11  C   UNL     1      -4.326  -5.590  -3.018  0.00  0.00    +0.250 C 
ATOM     12  O   UNL     1      -4.410  -6.079  -4.128  0.00  0.00    -0.270 OA
ATOM     13  H   UNL     1       2.113  -6.063  -2.958  0.00  0.00    -0.086 HD
ATOM     14  H   UNL     1       1.934  -7.115  -4.211  0.00  0.00    -0.086 HD
ENDROOT
BRANCH  11  15
ATOM     15  C   UNL     1      -5.399  -4.709  -2.517  0.00  0.00    +0.079 A 
ATOM     16  C   UNL     1      -5.808  -4.788  -1.184  0.00  0.00    +0.017 A 
ATOM     17  C   UNL     1      -6.810  -3.963  -0.722  0.00  0.00    +0.001 A 
ATOM     18  C   UNL     1      -7.414  -3.053  -1.575  0.00  0.00    +0.004 A 
ATOM     19  C   UNL     1      -7.020  -2.965  -2.895  0.00  0.00    +0.047 A 
ATOM     20  C   UNL     1      -6.009  -3.784  -3.375  0.00  0.00    +0.144 A 
BRANCH  20  21
ATOM     21  O   UNL     1      -5.617  -3.694  -4.671  0.00  0.00    -0.425 OA
BRANCH  21  22
ATOM     22  C   UNL     1      -4.559  -2.918  -4.957  0.00  0.00    +0.309 C 
ATOM     23  O   UNL     1      -3.941  -2.386  -4.066  0.00  0.00    -0.251 OA
ATOM     24  C   UNL     1      -4.143  -2.710  -6.391  0.00  0.00    +0.136 C 
ENDBRANCH  21  22
ENDBRANCH  20  21
ENDBRANCH  11  15
BRANCH   1  26
ATOM     25  N   UNL     1      -0.201  -2.981  -0.567  0.00  0.00    -0.312 N 
ATOM     26  C   UNL     1      -1.315  -3.588  -1.020  0.00  0.00    +0.218 C 
ATOM     27  O   UNL     1      -2.161  -2.945  -1.605  0.00  0.00    -0.275 OA
ATOM     28  H   UNL     1       0.476  -3.496  -0.099  0.00  0.00    +0.149 HD
BRANCH  25  29
ATOM     29  C   UNL     1      -0.010  -1.544  -0.781  0.00  0.00    +0.148 C 
BRANCH  29  31
ATOM     30  C   UNL     1       1.525   0.389  -0.397  0.00  0.00    +0.053 C 
ATOM     31  C   UNL     1       1.326  -1.111  -0.174  0.00  0.00    +0.187 C 
BRANCH  31  32
ATOM     32  O   UNL     1       1.324  -1.388   1.228  0.00  0.00    -0.488 OA
BRANCH  32  33
ATOM     33  C   UNL     1       2.531  -1.588   1.820  0.00  0.00    +0.121 A 
ATOM     34  C   UNL     1       2.599  -1.931   3.162  0.00  0.00    +0.048 A 
ATOM     35  C   UNL     1       3.827  -2.134   3.761  0.00  0.00    +0.042 A 
ATOM     36  C   UNL     1       4.990  -1.994   3.023  0.00  0.00    +0.124 A 
ATOM     37  C   UNL     1       4.924  -1.651   1.684  0.00  0.00    +0.042 A 
ATOM     38  C   UNL     1       3.697  -1.454   1.080  0.00  0.00    +0.048 A 
ATOM     39  F   UNL     1       6.190  -2.193   3.611  0.00  0.00    -0.205 F 
ENDBRANCH  32  33
ENDBRANCH  31  32
ENDBRANCH  29  31
ENDBRANCH  25  29
ENDBRANCH   1  26
TORSDOF 8
