REMARK  Name = ZINC08739126
REMARK  11 active torsions:
REMARK  status: ('A' for Active; 'I' for Inactive)
REMARK    1  A    between atoms: C_1  and  C_2
REMARK    2  A    between atoms: C_2  and  C_32
REMARK    3  A    between atoms: C_6  and  C_24
REMARK    4  A    between atoms: C_13  and  N_19
REMARK    5  A    between atoms: C_15  and  S_17
REMARK    6  A    between atoms: S_17  and  C_18
REMARK    7  A    between atoms: N_19  and  C_20
REMARK    8  A    between atoms: C_20  and  C_21
REMARK    9  A    between atoms: C_21  and  N_62
REMARK   10  A    between atoms: C_22  and  N_62
REMARK   11  A    between atoms: C_23  and  N_62
REMARK                            x       y       z     vdW  Elec       q    Type
REMARK                         _______ _______ _______ _____ _____    ______ ____
ROOT
ATOM      1  C   UNL     1      -1.795   6.678   3.333  0.00  0.00    +0.041 C 
ATOM      2  C   UNL     1      -1.762   5.288   2.695  0.00  0.00    +0.068 C 
ATOM      3  C   UNL     1      -2.856   5.185   1.630  0.00  0.00    +0.070 C 
ATOM      4  C   UNL     1      -2.650   3.939   0.811  0.00  0.00    -0.026 A 
ATOM      5  C   UNL     1      -1.457   3.265   0.808  0.00  0.00    +0.008 A 
ATOM      6  C   UNL     1      -1.309   2.116   0.020  0.00  0.00    +0.078 A 
ATOM      7  N   UNL     1      -2.318   1.679  -0.722  0.00  0.00    -0.239 NA
ATOM      8  C   UNL     1      -3.478   2.297  -0.732  0.00  0.00    +0.112 A 
ATOM      9  C   UNL     1      -3.723   3.459   0.023  0.00  0.00    +0.037 A 
ATOM     10  C   UNL     1      -5.074   4.037  -0.104  0.00  0.00    +0.094 A 
ATOM     11  C   UNL     1      -5.952   3.359  -0.957  0.00  0.00    +0.080 A 
ATOM     12  S   UNL     1      -5.011   1.992  -1.577  0.00  0.00    -0.064 S 
ATOM     13  C   UNL     1      -7.250   3.810  -1.154  0.00  0.00    +0.138 A 
ATOM     14  N   UNL     1      -7.645   4.908  -0.511  0.00  0.00    -0.206 NA
ATOM     15  C   UNL     1      -6.803   5.543   0.294  0.00  0.00    +0.190 A 
ATOM     16  N   UNL     1      -5.566   5.142   0.502  0.00  0.00    -0.221 NA
ATOM     17  C   UNL     1      -0.291   3.729   1.642  0.00  0.00    +0.198 C 
ATOM     18  O   UNL     1      -0.494   5.077   2.064  0.00  0.00    -0.369 OA
ATOM     19  C   UNL     1      -1.989   4.223   3.770  0.00  0.00    +0.041 C 
ENDROOT
BRANCH   6  20
ATOM     20  C   UNL     1      -0.017   1.390   0.010  0.00  0.00    +0.001 A 
ATOM     21  C   UNL     1       0.533   0.957  -1.196  0.00  0.00    +0.010 A 
ATOM     22  C   UNL     1       1.733   0.276  -1.199  0.00  0.00    +0.001 A 
ATOM     23  C   UNL     1       2.391   0.022  -0.008  0.00  0.00    +0.000 A 
ATOM     24  C   UNL     1       1.850   0.450   1.191  0.00  0.00    +0.001 A 
ATOM     25  C   UNL     1       0.650   1.132   1.206  0.00  0.00    +0.010 A 
ENDBRANCH   6  20
BRANCH  15  26
ATOM     26  S   UNL     1      -7.365   6.993   1.123  0.00  0.00    -0.089 S 
ATOM     27  C   UNL     1      -9.061   7.075   0.495  0.00  0.00    +0.093 C 
ENDBRANCH  15  26
BRANCH  13  28
ATOM     28  N   UNL     1      -8.116   3.134  -2.000  0.00  0.00    -0.330 N 
ATOM     29  H   UNL     1      -7.817   2.336  -2.462  0.00  0.00    +0.147 HD
BRANCH  28  30
ATOM     30  C   UNL     1      -9.482   3.625  -2.195  0.00  0.00    +0.084 C 
BRANCH  30  31
ATOM     31  C   UNL     1     -10.221   2.704  -3.168  0.00  0.00    -0.061 C 
BRANCH  31  34
ATOM     32  C   UNL     1     -11.591   4.497  -4.046  0.00  0.00    -0.097 C 
ATOM     33  C   UNL     1     -12.403   2.217  -4.099  0.00  0.00    -0.097 C 
ATOM     34  N   UNL     1     -11.603   3.200  -3.338  0.00  0.00    +0.377 N 
ATOM     35  H   UNL     1     -12.027   3.330  -2.412  0.00  0.00    -0.083 HD
ENDBRANCH  31  34
ENDBRANCH  30  31
ENDBRANCH  28  30
ENDBRANCH  13  28
TORSDOF 6
