REMARK  Name = ZINC01706609
REMARK  4 active torsions:
REMARK  status: ('A' for Active; 'I' for Inactive)
REMARK    1  A    between atoms: C_1  and  C_2
REMARK    2  A    between atoms: C_2  and  C_29
REMARK    3  A    between atoms: C_3  and  C_22
REMARK    4  A    between atoms: N_11  and  C_14
REMARK                            x       y       z     vdW  Elec       q    Type
REMARK                         _______ _______ _______ _____ _____    ______ ____
ROOT
ATOM      1  C   UNL     1       3.385  -7.657   0.101  0.00  0.00    +0.056 C 
ATOM      2  C   UNL     1       2.746  -6.448  -0.585  0.00  0.00    +0.118 C 
ATOM      3  C   UNL     1       3.534  -5.154  -0.267  0.00  0.00    +0.103 C 
ATOM      4  C   UNL     1       2.417  -4.138  -0.143  0.00  0.00    +0.088 A 
ATOM      5  C   UNL     1       1.248  -4.830  -0.022  0.00  0.00    +0.206 A 
ATOM      6  N   UNL     1       0.075  -4.116   0.090  0.00  0.00    -0.278 N 
ATOM      7  H   UNL     1      -0.768  -4.589   0.172  0.00  0.00    +0.173 HD
ATOM      8  C   UNL     1       0.086  -2.772   0.089  0.00  0.00    +0.337 A 
ATOM      9  O   UNL     1      -0.964  -2.168   0.188  0.00  0.00    -0.246 OA
ATOM     10  N   UNL     1       1.236  -2.082  -0.020  0.00  0.00    -0.229 N 
ATOM     11  C   UNL     1       2.409  -2.737  -0.143  0.00  0.00    +0.269 A 
ATOM     12  O   UNL     1       3.453  -2.116  -0.247  0.00  0.00    -0.267 OA
ATOM     13  O   UNL     1       1.452  -6.166  -0.024  0.00  0.00    -0.470 OA
ATOM     14  C   UNL     1       2.648  -6.667  -2.096  0.00  0.00    +0.056 C 
ENDROOT
BRANCH  10  15
ATOM     15  C   UNL     1       1.214  -0.681  -0.013  0.00  0.00    +0.054 A 
ATOM     16  C   UNL     1       1.322   0.010   1.186  0.00  0.00    +0.028 A 
ATOM     17  C   UNL     1       1.301   1.391   1.191  0.00  0.00    +0.022 A 
ATOM     18  C   UNL     1       1.173   2.086   0.001  0.00  0.00    +0.041 A 
ATOM     19  C   UNL     1       1.065   1.400  -1.196  0.00  0.00    +0.022 A 
ATOM     20  C   UNL     1       1.085   0.019  -1.205  0.00  0.00    +0.028 A 
ATOM     21 CL   UNL     1       1.146   3.822   0.010  0.00  0.00    -0.084 Cl
ENDBRANCH  10  15
BRANCH   3  22
ATOM     22  C   UNL     1       4.290  -5.287   1.030  0.00  0.00    -0.036 A 
ATOM     23  C   UNL     1       3.605  -5.527   2.207  0.00  0.00    +0.006 A 
ATOM     24  C   UNL     1       4.297  -5.655   3.396  0.00  0.00    +0.020 A 
ATOM     25  C   UNL     1       5.675  -5.532   3.411  0.00  0.00    +0.041 A 
ATOM     26  C   UNL     1       6.360  -5.287   2.234  0.00  0.00    +0.020 A 
ATOM     27  C   UNL     1       5.667  -5.165   1.044  0.00  0.00    +0.006 A 
ATOM     28 CL   UNL     1       6.545  -5.685   4.905  0.00  0.00    -0.084 Cl
ENDBRANCH   3  22
TORSDOF 2
