REMARK  Name = ZINC35564797
REMARK  5 active torsions:
REMARK  status: ('A' for Active; 'I' for Inactive)
REMARK    1  A    between atoms: C_5  and  N_7
REMARK    2  A    between atoms: N_10  and  C_13
REMARK    3  A    between atoms: C_13  and  C_14
REMARK    4  A    between atoms: N_26  and  C_29
REMARK    5  A    between atoms: C_29  and  C_30
REMARK                            x       y       z     vdW  Elec       q    Type
REMARK                         _______ _______ _______ _____ _____    ______ ____
ROOT
ATOM      1  C   UNL     1       3.013  -6.655  -1.229  0.00  0.00    +0.034 A 
ATOM      2  C   UNL     1       3.939  -6.737  -2.228  0.00  0.00    +0.091 A 
ATOM      3  C   UNL     1       3.701  -7.609  -3.305  0.00  0.00    +0.253 A 
ATOM      4  O   UNL     1       4.507  -7.708  -4.215  0.00  0.00    -0.268 OA
ATOM      5  N   UNL     1       2.563  -8.336  -3.312  0.00  0.00    -0.295 N 
ATOM      6  H   UNL     1       2.378  -8.945  -4.044  0.00  0.00    +0.172 HD
ATOM      7  C   UNL     1       1.676  -8.213  -2.288  0.00  0.00    +0.198 A 
ATOM      8  N   UNL     1       1.909  -7.396  -1.279  0.00  0.00    -0.223 NA
ATOM      9  N   UNL     1       0.524  -8.953  -2.302  0.00  0.00    -0.303 N 
ATOM     10  C   UNL     1      -0.370  -8.901  -1.127  0.00  0.00    +0.106 C 
ATOM     11  C   UNL     1      -0.914 -10.300  -0.784  0.00  0.00    +0.000 C 
ATOM     12  C   UNL     1       0.184 -11.325  -0.962  0.00  0.00    -0.077 C 
ATOM     13  N   UNL     1       0.106 -11.888  -2.308  0.00  0.00    +0.383 N 
ATOM     14  C   UNL     1       0.822 -11.174  -3.294  0.00  0.00    -0.059 C 
ATOM     15  C   UNL     1       0.223  -9.753  -3.471  0.00  0.00    +0.089 C 
ATOM     16  H   UNL     1      -0.865 -11.923  -2.582  0.00  0.00    -0.081 HD
ENDROOT
BRANCH   1  17
ATOM     17  C   UNL     1       3.244  -5.728  -0.063  0.00  0.00    -0.022 C 
BRANCH  17  21
ATOM     18  N   UNL     1       1.226  -2.062  -0.070  0.00  0.00    -0.331 N 
ATOM     19  C   UNL     1       1.238  -2.816   1.194  0.00  0.00    +0.086 C 
ATOM     20  C   UNL     1       2.374  -3.843   1.136  0.00  0.00    -0.059 C 
ATOM     21  N   UNL     1       2.220  -4.674  -0.065  0.00  0.00    +0.385 N 
ATOM     22  C   UNL     1       2.373  -3.847  -1.269  0.00  0.00    -0.059 C 
ATOM     23  C   UNL     1       1.232  -2.821  -1.330  0.00  0.00    +0.086 C 
ATOM     24  H   UNL     1       1.305  -5.098  -0.064  0.00  0.00    -0.081 HD
BRANCH  18  29
ATOM     25  C   UNL     1      -0.027   1.394  -0.071  0.00  0.00    +0.002 A 
ATOM     26  C   UNL     1       1.160   2.104  -0.078  0.00  0.00    +0.003 A 
ATOM     27  C   UNL     1       2.370   1.435  -0.082  0.00  0.00    +0.040 A 
ATOM     28  C   UNL     1       2.396   0.052  -0.079  0.00  0.00    +0.144 A 
ATOM     29  C   UNL     1       1.204  -0.664  -0.072  0.00  0.00    +0.065 A 
ATOM     30  C   UNL     1      -0.008   0.013  -0.068  0.00  0.00    +0.026 A 
ATOM     31  F   UNL     1       3.579  -0.602  -0.084  0.00  0.00    -0.204 F 
ENDBRANCH  18  29
ENDBRANCH  17  21
ENDBRANCH   1  17
BRANCH  13  32
ATOM     32  C   UNL     1       0.620 -13.263  -2.266  0.00  0.00    -0.040 C 
BRANCH  32  33
ATOM     33  C   UNL     1       0.437 -13.909  -3.615  0.00  0.00    -0.026 A 
ATOM     34  C   UNL     1      -0.691 -14.639  -4.054  0.00  0.00    +0.043 A 
ATOM     35  C   UNL     1      -0.434 -15.034  -5.314  0.00  0.00    +0.195 A 
ATOM     36  O   UNL     1       0.783 -14.584  -5.660  0.00  0.00    -0.471 OA
ATOM     37  C   UNL     1       1.314 -13.898  -4.635  0.00  0.00    +0.196 A 
ENDBRANCH  32  33
ENDBRANCH  13  32
TORSDOF 5
