REMARK  Name = ZINC33937148
REMARK  14 active torsions:
REMARK  status: ('A' for Active; 'I' for Inactive)
REMARK    1  A    between atoms: C_1  and  C_2
REMARK    2  A    between atoms: C_2  and  C_3
REMARK    3  A    between atoms: C_3  and  C_5
REMARK    4  A    between atoms: C_3  and  N_18
REMARK    5  A    between atoms: N_9  and  C_10
REMARK    6  A    between atoms: C_10  and  C_11
REMARK    7  A    between atoms: C_11  and  C_12
REMARK    8  A    between atoms: N_18  and  C_19
REMARK    9  A    between atoms: N_18  and  C_35
REMARK   10  A    between atoms: C_19  and  C_20
REMARK   11  A    between atoms: C_24  and  O_32
REMARK   12  A    between atoms: O_32  and  C_33
REMARK   13  A    between atoms: C_33  and  C_34
REMARK   14  A    between atoms: C_35  and  C_36
REMARK                            x       y       z     vdW  Elec       q    Type
REMARK                         _______ _______ _______ _____ _____    ______ ____
ROOT
ATOM      1  N   UNL     1      -2.205  -0.083  -0.861  0.00  0.00    +0.391 N 
ATOM      2  H   UNL     1      -2.120  -0.350  -1.830  0.00  0.00    -0.080 HD
ENDROOT
BRANCH   1   3
ATOM      3  C   UNL     1      -1.182  -0.780  -0.069  0.00  0.00    +0.003 C 
BRANCH   3   4
ATOM      4  C   UNL     1      -1.355  -0.436   1.388  0.00  0.00    +0.138 A 
ATOM      5  N   UNL     1      -2.477  -0.439   2.065  0.00  0.00    -0.115 NA
ATOM      6  N   UNL     1      -2.211  -0.091   3.277  0.00  0.00    -0.023 NA
ATOM      7  N   UNL     1      -0.949   0.134   3.390  0.00  0.00    -0.044 NA
ATOM      8  N   UNL     1      -0.385  -0.074   2.248  0.00  0.00    -0.231 N 
BRANCH   8   9
ATOM      9  C   UNL     1       1.041   0.064   1.944  0.00  0.00    +0.152 C 
BRANCH   9  10
ATOM     10  C   UNL     1       1.330   1.495   1.488  0.00  0.00    +0.058 C 
BRANCH  10  11
ATOM     11  C   UNL     1       2.798   1.636   1.176  0.00  0.00    -0.046 A 
ATOM     12  C   UNL     1       3.683   2.014   2.168  0.00  0.00    +0.004 A 
ATOM     13  C   UNL     1       5.029   2.143   1.881  0.00  0.00    +0.000 A 
ATOM     14  C   UNL     1       5.490   1.894   0.602  0.00  0.00    +0.000 A 
ATOM     15  C   UNL     1       4.605   1.516  -0.390  0.00  0.00    +0.000 A 
ATOM     16  C   UNL     1       3.260   1.382  -0.102  0.00  0.00    +0.004 A 
ENDBRANCH  10  11
ENDBRANCH   9  10
ENDBRANCH   8   9
ENDBRANCH   3   4
BRANCH   3  18
ATOM     17  C   UNL     1      -1.069  -2.650  -1.722  0.00  0.00    +0.002 C 
ATOM     18  C   UNL     1      -1.332  -2.291  -0.259  0.00  0.00    -0.011 C 
ENDBRANCH   3  18
ENDBRANCH   1   3
BRANCH   1  19
ATOM     19  C   UNL     1      -3.540  -0.450  -0.368  0.00  0.00    -0.036 C 
BRANCH  19  20
ATOM     20  C   UNL     1      -4.589   0.127  -1.282  0.00  0.00    +0.001 A 
ATOM     21  C   UNL     1      -5.109  -0.633  -2.278  0.00  0.00    +0.017 A 
ATOM     22  C   UNL     1      -6.127  -0.043  -3.150  0.00  0.00    +0.002 A 
ATOM     23  C   UNL     1      -6.698  -0.780  -4.193  0.00  0.00    +0.055 A 
ATOM     24  C   UNL     1      -7.656  -0.194  -4.996  0.00  0.00    +0.121 A 
ATOM     25  C   UNL     1      -8.052   1.123  -4.771  0.00  0.00    +0.047 A 
ATOM     26  C   UNL     1      -7.497   1.858  -3.747  0.00  0.00    +0.030 A 
ATOM     27  C   UNL     1      -6.530   1.286  -2.926  0.00  0.00    +0.049 A 
ATOM     28  N   UNL     1      -5.962   2.006  -1.895  0.00  0.00    -0.322 N 
ATOM     29  H   UNL     1      -6.241   2.922  -1.741  0.00  0.00    +0.169 HD
ATOM     30  C   UNL     1      -5.032   1.454  -1.096  0.00  0.00    +0.251 A 
ATOM     31  O   UNL     1      -4.556   2.118  -0.192  0.00  0.00    -0.268 OA
BRANCH  24  32
ATOM     32  O   UNL     1      -8.214  -0.904  -6.011  0.00  0.00    -0.492 OA
BRANCH  32  33
ATOM     33  C   UNL     1      -9.199  -0.238  -6.804  0.00  0.00    +0.225 C 
ATOM     34  C   UNL     1      -9.710  -1.189  -7.889  0.00  0.00    +0.048 C 
ENDBRANCH  32  33
ENDBRANCH  24  32
ENDBRANCH  19  20
ENDBRANCH   1  19
BRANCH   1  35
ATOM     35  C   UNL     1      -2.018   1.368  -0.734  0.00  0.00    -0.045 C 
BRANCH  35  36
ATOM     36  C   UNL     1      -0.701   1.773  -1.400  0.00  0.00    +0.102 C 
ATOM     37  C   UNL     1      -0.452   3.282  -1.193  0.00  0.00    +0.032 C 
ATOM     38  C   UNL     1       0.141   3.709  -2.564  0.00  0.00    +0.030 C 
ATOM     39  C   UNL     1      -0.636   2.774  -3.524  0.00  0.00    +0.160 C 
ATOM     40  O   UNL     1      -0.776   1.533  -2.810  0.00  0.00    -0.378 OA
ENDBRANCH  35  36
ENDBRANCH   1  35
TORSDOF 12
