REMARK  Name = ZINC36607737
REMARK  9 active torsions:
REMARK  status: ('A' for Active; 'I' for Inactive)
REMARK    1  A    between atoms: C_1  and  C_2
REMARK    2  A    between atoms: C_7  and  C_8
REMARK    3  A    between atoms: C_8  and  C_10
REMARK    4  A    between atoms: C_8  and  N_19
REMARK    5  A    between atoms: N_12  and  C_13
REMARK    6  A    between atoms: N_19  and  C_20
REMARK    7  A    between atoms: C_26  and  C_28
REMARK    8  A    between atoms: C_30  and  N_37
REMARK    9  A    between atoms: C_32  and  N_34
REMARK                            x       y       z     vdW  Elec       q    Type
REMARK                         _______ _______ _______ _____ _____    ______ ____
ROOT
ATOM      1  N   UNL     1      -0.124  -0.080   3.957  0.00  0.00    -0.251 N 
ATOM      2  C   UNL     1      -1.431  -0.255   4.235  0.00  0.00    +0.252 C 
ATOM      3  O   UNL     1      -2.277   0.273   3.540  0.00  0.00    -0.270 OA
ENDROOT
BRANCH   1   4
ATOM      4  C   UNL     1       0.846  -0.766   4.694  0.00  0.00    +0.038 A 
ATOM      5  C   UNL     1       1.717  -1.639   4.056  0.00  0.00    +0.023 A 
ATOM      6  C   UNL     1       2.674  -2.315   4.787  0.00  0.00    +0.002 A 
ATOM      7  C   UNL     1       2.765  -2.123   6.154  0.00  0.00    +0.000 A 
ATOM      8  C   UNL     1       1.899  -1.255   6.792  0.00  0.00    +0.002 A 
ATOM      9  C   UNL     1       0.944  -0.571   6.066  0.00  0.00    +0.023 A 
ENDBRANCH   1   4
BRANCH   2  10
ATOM     10  C   UNL     1      -1.836  -1.088   5.387  0.00  0.00    +0.042 A 
ATOM     11  C   UNL     1      -1.029  -2.147   5.804  0.00  0.00    +0.046 A 
ATOM     12  C   UNL     1      -1.413  -2.921   6.880  0.00  0.00    +0.129 A 
ATOM     13  C   UNL     1      -2.595  -2.648   7.545  0.00  0.00    +0.065 A 
ATOM     14  C   UNL     1      -3.400  -1.600   7.137  0.00  0.00    +0.129 A 
ATOM     15  C   UNL     1      -3.025  -0.815   6.066  0.00  0.00    +0.046 A 
BRANCH  14  16
ATOM     16  N   UNL     1      -4.663  -1.316   7.855  0.00  0.00    +0.057 N 
ATOM     17  O   UNL     1      -4.990  -2.000   8.796  0.00  0.00    -0.126 OA
ATOM     18  O   UNL     1      -5.367  -0.400   7.499  0.00  0.00    -0.126 OA
ENDBRANCH  14  16
BRANCH  12  19
ATOM     19  N   UNL     1      -0.558  -4.045   7.324  0.00  0.00    +0.057 N 
ATOM     20  O   UNL     1       0.514  -4.233   6.798  0.00  0.00    -0.126 OA
ATOM     21  O   UNL     1      -0.931  -4.774   8.213  0.00  0.00    -0.126 OA
ENDBRANCH  12  19
ENDBRANCH   2  10
BRANCH   1  22
ATOM     22  C   UNL     1       0.280   0.829   2.881  0.00  0.00    +0.198 C 
BRANCH  22  29
ATOM     23  C   UNL     1      -0.867  -1.002   0.962  0.00  0.00    +0.044 C 
ATOM     24  C   UNL     1       0.623  -0.780   0.995  0.00  0.00    -0.045 A 
ATOM     25  C   UNL     1       1.441  -1.449   0.102  0.00  0.00    +0.004 A 
ATOM     26  C   UNL     1       2.808  -1.246   0.133  0.00  0.00    +0.000 A 
ATOM     27  C   UNL     1       3.357  -0.374   1.054  0.00  0.00    +0.000 A 
ATOM     28  C   UNL     1       2.540   0.295   1.945  0.00  0.00    +0.006 A 
ATOM     29  C   UNL     1       1.172   0.095   1.913  0.00  0.00    -0.015 A 
ENDBRANCH  22  29
BRANCH  22  30
ATOM     30  C   UNL     1       1.028   1.998   3.466  0.00  0.00    +0.239 C 
ATOM     31  O   UNL     1       1.329   2.000   4.641  0.00  0.00    -0.273 OA
ATOM     32  N   UNL     1       1.363   3.043   2.683  0.00  0.00    -0.311 N 
ATOM     33  H   UNL     1       1.061   3.076   1.762  0.00  0.00    +0.149 HD
BRANCH  32  34
ATOM     34  C   UNL     1       2.185   4.129   3.224  0.00  0.00    +0.073 C 
ATOM     35  C   UNL     1       1.287   5.141   3.939  0.00  0.00    +0.022 C 
ATOM     36  C   UNL     1       2.145   6.275   4.503  0.00  0.00    +0.002 C 
ATOM     37  C   UNL     1       2.888   6.970   3.360  0.00  0.00    +0.000 C 
ATOM     38  C   UNL     1       3.785   5.959   2.645  0.00  0.00    +0.002 C 
ATOM     39  C   UNL     1       2.928   4.824   2.081  0.00  0.00    +0.022 C 
ENDBRANCH  32  34
ENDBRANCH  22  30
ENDBRANCH   1  22
TORSDOF 8
