REMARK  Name = ZINC11369685
REMARK  9 active torsions:
REMARK  status: ('A' for Active; 'I' for Inactive)
REMARK    1  A    between atoms: C_1  and  C_2
REMARK    2  A    between atoms: C_2  and  O_3
REMARK    3  A    between atoms: O_3  and  C_4
REMARK    4  A    between atoms: C_4  and  C_6
REMARK    5  A    between atoms: C_7  and  C_32
REMARK    6  A    between atoms: C_8  and  C_13
REMARK    7  A    between atoms: C_9  and  C_12
REMARK    8  A    between atoms: C_13  and  C_15
REMARK    9  A    between atoms: C_15  and  N_16
REMARK                            x       y       z     vdW  Elec       q    Type
REMARK                         _______ _______ _______ _____ _____    ______ ____
ROOT
ATOM      1  N   UNL     1      -7.146   3.480   0.314  0.00  0.00    -0.216 N 
ATOM      2  C   UNL     1      -7.993   3.359  -0.728  0.00  0.00    +0.251 C 
ATOM      3  O   UNL     1      -7.727   3.468  -1.906  0.00  0.00    -0.272 OA
ATOM      4  C   UNL     1      -9.344   3.057  -0.119  0.00  0.00    +0.138 C 
ATOM      5  C   UNL     1     -10.336   4.157  -0.476  0.00  0.00    +0.040 C 
ATOM      6  C   UNL     1     -11.731   3.724  -0.006  0.00  0.00    +0.008 C 
ATOM      7  C   UNL     1     -12.193   2.556  -0.874  0.00  0.00    +0.035 C 
ATOM      8  C   UNL     1     -11.145   1.476  -0.914  0.00  0.00    -0.042 A 
ATOM      9  C   UNL     1      -9.831   1.708  -0.570  0.00  0.00    -0.012 A 
ATOM     10  C   UNL     1      -8.910   0.671  -0.634  0.00  0.00    +0.006 A 
ATOM     11  C   UNL     1      -9.300  -0.589  -1.037  0.00  0.00    +0.000 A 
ATOM     12  C   UNL     1     -10.618  -0.823  -1.380  0.00  0.00    +0.000 A 
ATOM     13  C   UNL     1     -11.535   0.206  -1.317  0.00  0.00    +0.004 A 
ATOM     14  N   UNL     1      -9.086   3.049   1.327  0.00  0.00    -0.281 N 
ATOM     15  C   UNL     1      -7.774   3.305   1.483  0.00  0.00    +0.310 C 
ATOM     16  O   UNL     1      -7.222   3.372   2.563  0.00  0.00    -0.252 OA
ATOM     17  H   UNL     1      -9.734   2.890   2.031  0.00  0.00    +0.152 HD
ENDROOT
BRANCH   1  18
ATOM     18  C   UNL     1      -5.716   3.772   0.183  0.00  0.00    +0.197 C 
BRANCH  18  19
ATOM     19  C   UNL     1      -4.947   2.480   0.080  0.00  0.00    +0.183 C 
ATOM     20  O   UNL     1      -5.540   1.423   0.035  0.00  0.00    -0.290 OA
BRANCH  19  23
ATOM     21  C   UNL     1      -1.334   2.459   0.646  0.00  0.00    +0.128 A 
ATOM     22  C   UNL     1      -2.603   2.393   1.139  0.00  0.00    -0.008 A 
ATOM     23  C   UNL     1      -3.481   2.501   0.035  0.00  0.00    +0.043 A 
ATOM     24  C   UNL     1      -2.693   2.630  -1.099  0.00  0.00    +0.024 A 
ATOM     25  N   UNL     1      -1.406   2.609  -0.723  0.00  0.00    -0.352 N 
ATOM     26  H   UNL     1      -0.646   2.685  -1.320  0.00  0.00    +0.166 HD
ATOM     27  C   UNL     1      -3.197   2.775  -2.512  0.00  0.00    +0.064 C 
ATOM     28  C   UNL     1      -2.996   2.236   2.585  0.00  0.00    +0.047 C 
BRANCH  21  29
ATOM     29  C   UNL     1      -0.101   2.389   1.438  0.00  0.00    +0.356 C 
ATOM     30  O   UNL     1      -0.160   2.261   2.645  0.00  0.00    -0.243 OA
BRANCH  29  31
ATOM     31  O   UNL     1       1.099   2.462   0.825  0.00  0.00    -0.460 OA
BRANCH  31  33
ATOM     32  C   UNL     1       3.534   2.479   0.805  0.00  0.00    +0.048 C 
ATOM     33  C   UNL     1       2.276   2.379   1.671  0.00  0.00    +0.229 C 
ENDBRANCH  31  33
ENDBRANCH  29  31
ENDBRANCH  21  29
ENDBRANCH  19  23
ENDBRANCH  18  19
ENDBRANCH   1  18
TORSDOF 6
