REMARK  Name = ZINC12806639
REMARK  8 active torsions:
REMARK  status: ('A' for Active; 'I' for Inactive)
REMARK    1  A    between atoms: C_1  and  C_2
REMARK    2  A    between atoms: N_8  and  S_9
REMARK    3  A    between atoms: S_9  and  C_12
REMARK    4  A    between atoms: C_15  and  C_18
REMARK    5  A    between atoms: N_20  and  C_21
REMARK    6  A    between atoms: N_20  and  C_22
REMARK    7  A    between atoms: C_22  and  C_23
REMARK    8  A    between atoms: N_25  and  C_26
REMARK                            x       y       z     vdW  Elec       q    Type
REMARK                         _______ _______ _______ _____ _____    ______ ____
ROOT
ATOM      1  C   UNL     1      -4.968   1.894  -0.087  0.00  0.00    +0.247 C 
ATOM      2  O   UNL     1      -4.585   3.035   0.087  0.00  0.00    -0.270 OA
ATOM      3  N   UNL     1      -5.907   1.634  -1.018  0.00  0.00    -0.292 N 
ATOM      4  C   UNL     1      -6.502   0.298  -1.104  0.00  0.00    +0.133 C 
ENDROOT
BRANCH   1   8
ATOM      5  C   UNL     1      -3.344  -1.270   2.235  0.00  0.00    +0.106 A 
ATOM      6  C   UNL     1      -4.576  -0.735   2.566  0.00  0.00    +0.029 A 
ATOM      7  C   UNL     1      -5.112   0.289   1.812  0.00  0.00    +0.015 A 
ATOM      8  C   UNL     1      -4.402   0.793   0.721  0.00  0.00    +0.037 A 
ATOM      9  C   UNL     1      -3.159   0.250   0.394  0.00  0.00    +0.015 A 
ATOM     10  C   UNL     1      -2.638  -0.778   1.152  0.00  0.00    +0.029 A 
BRANCH   5  11
ATOM     11  S   UNL     1      -2.670  -2.583   3.199  0.00  0.00    +0.061 S 
ATOM     12  O   UNL     1      -1.262  -2.540   3.014  0.00  0.00    -0.153 OA
ATOM     13  O   UNL     1      -3.274  -2.495   4.482  0.00  0.00    -0.153 OA
BRANCH  11  20
ATOM     14  C   UNL     1      -5.149  -3.709   3.972  0.00  0.00    +0.026 C 
ATOM     15  C   UNL     1      -4.516  -4.547   2.860  0.00  0.00    +0.077 C 
ATOM     16  C   UNL     1      -4.354  -5.989   3.336  0.00  0.00    +0.020 C 
ATOM     17  C   UNL     1      -3.592  -6.791   2.278  0.00  0.00    +0.003 C 
ATOM     18  C   UNL     1      -2.200  -6.187   2.081  0.00  0.00    +0.017 C 
ATOM     19  C   UNL     1      -2.340  -4.744   1.586  0.00  0.00    +0.110 C 
ATOM     20  N   UNL     1      -3.193  -4.002   2.525  0.00  0.00    -0.174 NA
ENDBRANCH  11  20
ENDBRANCH   5  11
ENDBRANCH   1   8
BRANCH   3  21
ATOM     21  C   UNL     1      -6.334   2.686  -1.943  0.00  0.00    +0.203 C 
BRANCH  21  22
ATOM     22  C   UNL     1      -5.466   2.655  -3.175  0.00  0.00    +0.235 C 
ATOM     23  O   UNL     1      -4.579   1.833  -3.270  0.00  0.00    -0.274 OA
ATOM     24  N   UNL     1      -5.676   3.539  -4.170  0.00  0.00    -0.282 N 
ATOM     25  H   UNL     1      -6.405   4.176  -4.107  0.00  0.00    +0.155 HD
BRANCH  24  26
ATOM     26  C   UNL     1      -4.843   3.537  -5.295  0.00  0.00    +0.070 A 
ATOM     27  C   UNL     1      -3.467   3.423  -5.142  0.00  0.00    +0.064 A 
ATOM     28  C   UNL     1      -2.647   3.417  -6.256  0.00  0.00    +0.022 A 
ATOM     29  C   UNL     1      -3.195   3.535  -7.520  0.00  0.00    +0.003 A 
ATOM     30  C   UNL     1      -4.564   3.654  -7.675  0.00  0.00    +0.022 A 
ATOM     31  C   UNL     1      -5.390   3.655  -6.567  0.00  0.00    +0.064 A 
ATOM     32 CL   UNL     1      -7.108   3.805  -6.763  0.00  0.00    -0.082 Cl
ATOM     33 CL   UNL     1      -2.777   3.281  -3.555  0.00  0.00    -0.082 Cl
ENDBRANCH  24  26
ENDBRANCH  21  22
ENDBRANCH   3  21
TORSDOF 6
