REMARK  Name = ZINC34832141
REMARK  16 active torsions:
REMARK  status: ('A' for Active; 'I' for Inactive)
REMARK    1  A    between atoms: C_1  and  C_2
REMARK    2  A    between atoms: C_2  and  N_3
REMARK    3  A    between atoms: N_6  and  C_9
REMARK    4  A    between atoms: C_10  and  C_21
REMARK    5  A    between atoms: C_11  and  C_20
REMARK    6  A    between atoms: N_13  and  C_14
REMARK    7  A    between atoms: C_21  and  N_22
REMARK    8  A    between atoms: N_22  and  C_23
REMARK    9  A    between atoms: C_23  and  C_24
REMARK   10  A    between atoms: C_24  and  C_25
REMARK   11  A    between atoms: C_25  and  C_26
REMARK   12  A    between atoms: C_25  and  C_27
REMARK   13  A    between atoms: C_28  and  C_30
REMARK   14  A    between atoms: C_30  and  O_31
REMARK   15  A    between atoms: O_31  and  C_32
REMARK   16  A    between atoms: C_32  and  C_33
REMARK                            x       y       z     vdW  Elec       q    Type
REMARK                         _______ _______ _______ _____ _____    ______ ____
ROOT
ATOM      1  C   UNL     1       3.982  -2.851  -2.603  0.00  0.00    +0.130 A 
ATOM      2  C   UNL     1       3.798  -4.165  -2.908  0.00  0.00    +0.032 A 
ATOM      3  C   UNL     1       4.925  -4.605  -3.608  0.00  0.00    +0.067 A 
ATOM      4  N   UNL     1       5.759  -3.603  -3.723  0.00  0.00    -0.170 NA
ATOM      5  N   UNL     1       5.192  -2.482  -3.105  0.00  0.00    -0.218 N 
ATOM      6  C   UNL     1       5.143  -5.998  -4.140  0.00  0.00    +0.068 C 
ENDROOT
BRANCH   1  10
ATOM      7  N   UNL     1       2.068   0.206  -0.591  0.00  0.00    +0.382 N 
ATOM      8  C   UNL     1       2.276   0.258  -2.044  0.00  0.00    -0.060 C 
ATOM      9  C   UNL     1       2.158  -1.155  -2.625  0.00  0.00    +0.088 C 
ATOM     10  N   UNL     1       3.094  -2.034  -1.909  0.00  0.00    -0.318 N 
ATOM     11  C   UNL     1       3.066  -2.026  -0.438  0.00  0.00    +0.088 C 
ATOM     12  C   UNL     1       3.141  -0.572   0.041  0.00  0.00    -0.060 C 
ATOM     13  H   UNL     1       1.179  -0.229  -0.396  0.00  0.00    -0.082 HD
BRANCH   7  15
ATOM     14  C   UNL     1       0.880   2.348  -0.612  0.00  0.00    -0.017 C 
ATOM     15  C   UNL     1       2.072   1.572  -0.049  0.00  0.00    -0.082 C 
ENDBRANCH   7  15
ENDBRANCH   1  10
BRANCH   5  16
ATOM     16  C   UNL     1       5.769  -1.207  -3.016  0.00  0.00    +0.067 A 
ATOM     17  C   UNL     1       5.014  -0.080  -3.314  0.00  0.00    +0.028 A 
ATOM     18  C   UNL     1       5.586   1.174  -3.225  0.00  0.00    +0.002 A 
ATOM     19  C   UNL     1       6.907   1.308  -2.841  0.00  0.00    +0.000 A 
ATOM     20  C   UNL     1       7.661   0.188  -2.544  0.00  0.00    +0.002 A 
ATOM     21  C   UNL     1       7.094  -1.069  -2.626  0.00  0.00    +0.028 A 
ENDBRANCH   5  16
BRANCH   2  22
ATOM     22  C   UNL     1       2.592  -4.998  -2.555  0.00  0.00    +0.148 C 
BRANCH  22  23
ATOM     23  N   UNL     1       1.673  -5.035  -3.695  0.00  0.00    -0.295 N 
ATOM     24  C   UNL     1       0.630  -4.184  -3.748  0.00  0.00    +0.242 C 
ATOM     25  O   UNL     1       0.496  -3.335  -2.893  0.00  0.00    -0.273 OA
BRANCH  23  26
ATOM     26  C   UNL     1       1.888  -5.999  -4.777  0.00  0.00    +0.108 C 
BRANCH  26  27
ATOM     27  C   UNL     1       1.142  -7.297  -4.460  0.00  0.00    +0.022 C 
BRANCH  27  28
ATOM     28  C   UNL     1       1.367  -8.303  -5.591  0.00  0.00    -0.016 C 
ATOM     29  C   UNL     1       0.725  -9.641  -5.217  0.00  0.00    +0.007 C 
ATOM     30  C   UNL     1       0.731  -7.775  -6.878  0.00  0.00    +0.007 C 
ENDBRANCH  27  28
ENDBRANCH  26  27
ENDBRANCH  23  26
BRANCH  24  31
ATOM     31  C   UNL     1      -0.370  -4.287  -4.871  0.00  0.00    +0.256 C 
BRANCH  31  32
ATOM     32  O   UNL     1      -1.374  -3.283  -4.708  0.00  0.00    -0.366 OA
BRANCH  32  33
ATOM     33  C   UNL     1      -2.377  -3.293  -5.726  0.00  0.00    +0.195 C 
BRANCH  33  34
ATOM     34  C   UNL     1      -3.378  -2.200  -5.456  0.00  0.00    -0.022 A 
ATOM     35  C   UNL     1      -4.489  -2.458  -4.675  0.00  0.00    +0.006 A 
ATOM     36  C   UNL     1      -5.408  -1.455  -4.427  0.00  0.00    +0.000 A 
ATOM     37  C   UNL     1      -5.215  -0.194  -4.959  0.00  0.00    +0.000 A 
ATOM     38  C   UNL     1      -4.104   0.064  -5.740  0.00  0.00    +0.000 A 
ATOM     39  C   UNL     1      -3.183  -0.938  -5.984  0.00  0.00    +0.006 A 
ENDBRANCH  33  34
ENDBRANCH  32  33
ENDBRANCH  31  32
ENDBRANCH  24  31
ENDBRANCH  22  23
ENDBRANCH   2  22
TORSDOF 12
