REMARK  Name = ZINC13506371
REMARK  9 active torsions:
REMARK  status: ('A' for Active; 'I' for Inactive)
REMARK    1  A    between atoms: C_3  and  C_6
REMARK    2  A    between atoms: C_6  and  N_7
REMARK    3  A    between atoms: N_7  and  C_8
REMARK    4  A    between atoms: C_8  and  C_10
REMARK    5  A    between atoms: C_8  and  C_17
REMARK    6  A    between atoms: N_19  and  C_20
REMARK    7  A    between atoms: C_26  and  C_28
REMARK    8  A    between atoms: C_28  and  N_29
REMARK    9  A    between atoms: C_30  and  C_32
REMARK                            x       y       z     vdW  Elec       q    Type
REMARK                         _______ _______ _______ _____ _____    ______ ____
ROOT
ATOM      1  N   UNL     1       6.108   3.712  -0.647  0.00  0.00    -0.277 N 
ATOM      2  C   UNL     1       4.790   3.442  -0.734  0.00  0.00    +0.234 C 
ATOM      3  O   UNL     1       4.007   4.003   0.003  0.00  0.00    -0.274 OA
ENDROOT
BRANCH   1   4
ATOM      4  C   UNL     1       7.054   3.034  -1.536  0.00  0.00    +0.183 C 
BRANCH   4   7
ATOM      5  C   UNL     1       7.754   4.715  -4.741  0.00  0.00    +0.041 A 
ATOM      6  C   UNL     1       8.188   4.083  -3.553  0.00  0.00    +0.046 A 
ATOM      7  C   UNL     1       7.083   3.736  -2.869  0.00  0.00    +0.122 A 
ATOM      8  O   UNL     1       6.008   4.117  -3.579  0.00  0.00    -0.466 OA
ATOM      9  C   UNL     1       6.410   4.716  -4.712  0.00  0.00    +0.195 A 
ENDBRANCH   4   7
ENDBRANCH   1   4
BRANCH   1  10
ATOM     10  C   UNL     1       6.593   4.683   0.336  0.00  0.00    +0.193 C 
BRANCH  10  11
ATOM     11  C   UNL     1       7.126   3.953   1.543  0.00  0.00    -0.018 A 
ATOM     12  C   UNL     1       7.763   2.736   1.388  0.00  0.00    +0.009 A 
ATOM     13  C   UNL     1       8.256   2.069   2.493  0.00  0.00    +0.038 A 
ATOM     14  C   UNL     1       8.102   2.614   3.757  0.00  0.00    +0.123 A 
ATOM     15  C   UNL     1       7.458   3.830   3.911  0.00  0.00    +0.038 A 
ATOM     16  C   UNL     1       6.971   4.499   2.803  0.00  0.00    +0.009 A 
ATOM     17  F   UNL     1       8.578   1.960   4.838  0.00  0.00    -0.205 F 
ENDBRANCH  10  11
BRANCH  10  18
ATOM     18  C   UNL     1       7.694   5.510  -0.276  0.00  0.00    +0.238 C 
ATOM     19  O   UNL     1       8.630   4.966  -0.822  0.00  0.00    -0.273 OA
ATOM     20  N   UNL     1       7.638   6.856  -0.218  0.00  0.00    -0.311 N 
ATOM     21  H   UNL     1       6.889   7.291   0.219  0.00  0.00    +0.149 HD
BRANCH  20  22
ATOM     22  C   UNL     1       8.708   7.660  -0.813  0.00  0.00    +0.073 C 
ATOM     23  C   UNL     1       9.852   7.810   0.191  0.00  0.00    +0.022 C 
ATOM     24  C   UNL     1      10.970   8.650  -0.431  0.00  0.00    +0.002 C 
ATOM     25  C   UNL     1      10.426  10.033  -0.795  0.00  0.00    +0.000 C 
ATOM     26  C   UNL     1       9.281   9.883  -1.799  0.00  0.00    +0.002 C 
ATOM     27  C   UNL     1       8.164   9.043  -1.177  0.00  0.00    +0.022 C 
ENDBRANCH  20  22
ENDBRANCH  10  18
ENDBRANCH   1  10
BRANCH   2  28
ATOM     28  C   UNL     1       4.291   2.442  -1.745  0.00  0.00    +0.200 C 
BRANCH  28  29
ATOM     29  N   UNL     1       2.834   2.328  -1.640  0.00  0.00    -0.302 N 
ATOM     30  C   UNL     1       2.164   1.486  -2.452  0.00  0.00    +0.251 C 
ATOM     31  O   UNL     1       2.769   0.822  -3.273  0.00  0.00    -0.270 OA
ATOM     32  H   UNL     1       2.352   2.857  -0.986  0.00  0.00    +0.150 HD
BRANCH  30  33
ATOM     33  C   UNL     1       0.706   1.372  -2.347  0.00  0.00    +0.074 A 
ATOM     34  C   UNL     1      -0.163   0.576  -3.077  0.00  0.00    +0.021 A 
ATOM     35  C   UNL     1      -1.498   0.668  -2.775  0.00  0.00    +0.008 A 
ATOM     36  C   UNL     1      -1.898   1.508  -1.785  0.00  0.00    +0.046 A 
ATOM     37  S   UNL     1      -0.412   2.219  -1.245  0.00  0.00    -0.092 S 
ENDBRANCH  30  33
ENDBRANCH  28  29
ENDBRANCH   2  28
TORSDOF 9
