REMARK  Name = ZINC45591464
REMARK  6 active torsions:
REMARK  status: ('A' for Active; 'I' for Inactive)
REMARK    1  A    between atoms: C_1  and  C_2
REMARK    2  A    between atoms: C_5  and  S_8
REMARK    3  A    between atoms: S_8  and  N_11
REMARK    4  A    between atoms: C_14  and  C_17
REMARK    5  A    between atoms: N_19  and  N_20
REMARK    6  A    between atoms: C_21  and  C_23
REMARK                            x       y       z     vdW  Elec       q    Type
REMARK                         _______ _______ _______ _____ _____    ______ ____
ROOT
ATOM      1  C   UNL     1       4.498  -8.132  -0.077  0.00  0.00    +0.232 C 
ATOM      2  O   UNL     1       4.276  -8.895  -0.994  0.00  0.00    -0.274 OA
ATOM      3  N   UNL     1       5.316  -8.505   0.927  0.00  0.00    -0.234 N 
ATOM      4  H   UNL     1       5.493  -7.895   1.660  0.00  0.00    +0.173 HD
ENDROOT
BRANCH   1   8
ATOM      5  N   UNL     1       1.651  -4.999  -0.034  0.00  0.00    -0.177 NA
ATOM      6  C   UNL     1       2.364  -5.199  -1.304  0.00  0.00    +0.110 C 
ATOM      7  C   UNL     1       2.984  -6.599  -1.306  0.00  0.00    +0.030 C 
ATOM      8  C   UNL     1       3.858  -6.767  -0.061  0.00  0.00    +0.079 C 
ATOM      9  C   UNL     1       2.995  -6.624   1.194  0.00  0.00    +0.030 C 
ATOM     10  C   UNL     1       2.376  -5.218   1.225  0.00  0.00    +0.110 C 
BRANCH   5  11
ATOM     11  S   UNL     1       0.063  -4.530  -0.023  0.00  0.00    +0.061 S 
ATOM     12  O   UNL     1      -0.476  -4.950   1.223  0.00  0.00    -0.153 OA
ATOM     13  O   UNL     1      -0.490  -4.937  -1.267  0.00  0.00    -0.153 OA
BRANCH  11  18
ATOM     14  C   UNL     1      -0.018   1.503   0.010  0.00  0.00    +0.044 C 
ATOM     15  C   UNL     1       0.002  -0.004   0.002  0.00  0.00    -0.050 A 
ATOM     16  C   UNL     1       0.006  -0.689  -1.199  0.00  0.00    +0.005 A 
ATOM     17  C   UNL     1       0.025  -2.071  -1.206  0.00  0.00    +0.029 A 
ATOM     18  C   UNL     1       0.040  -2.768  -0.013  0.00  0.00    +0.105 A 
ATOM     19  C   UNL     1       0.037  -2.084   1.188  0.00  0.00    +0.029 A 
ATOM     20  C   UNL     1       0.023  -0.702   1.195  0.00  0.00    +0.005 A 
ENDBRANCH  11  18
ENDBRANCH   5  11
ENDBRANCH   1   8
BRANCH   3  21
ATOM     21  N   UNL     1       5.910  -9.773   0.912  0.00  0.00    -0.230 N 
ATOM     22  C   UNL     1       6.729 -10.146   1.916  0.00  0.00    +0.267 C 
ATOM     23  O   UNL     1       6.951  -9.381   2.836  0.00  0.00    -0.268 OA
ATOM     24  H   UNL     1       5.733 -10.383   0.178  0.00  0.00    +0.173 HD
BRANCH  22  25
ATOM     25  C   UNL     1       7.351 -11.473   1.900  0.00  0.00    +0.076 A 
ATOM     26  C   UNL     1       8.204 -12.047   2.821  0.00  0.00    +0.024 A 
ATOM     27  C   UNL     1       8.650 -13.338   2.552  0.00  0.00    -0.036 A 
ATOM     28  C   UNL     1       8.200 -13.907   1.403  0.00  0.00    -0.006 A 
ATOM     29  S   UNL     1       7.197 -12.773   0.690  0.00  0.00    -0.088 S 
ATOM     30  C   UNL     1       8.521 -15.270   0.866  0.00  0.00    +0.043 C 
ATOM     31  C   UNL     1       8.832 -16.218   2.030  0.00  0.00    +0.005 C 
ATOM     32  C   UNL     1      10.325 -16.144   2.332  0.00  0.00    +0.001 C 
ATOM     33  C   UNL     1      10.722 -14.727   2.737  0.00  0.00    +0.005 C 
ATOM     34  C   UNL     1       9.592 -14.058   3.512  0.00  0.00    +0.036 C 
ENDBRANCH  22  25
ENDBRANCH   3  21
TORSDOF 5
