REMARK  Name = ZINC10964174
REMARK  7 active torsions:
REMARK  status: ('A' for Active; 'I' for Inactive)
REMARK    1  A    between atoms: C_1  and  C_2
REMARK    2  A    between atoms: C_2  and  C_3
REMARK    3  A    between atoms: C_3  and  C_4
REMARK    4  A    between atoms: C_4  and  C_5
REMARK    5  A    between atoms: C_5  and  N_6
REMARK    6  A    between atoms: N_14  and  C_28
REMARK    7  A    between atoms: C_20  and  C_21
REMARK                            x       y       z     vdW  Elec       q    Type
REMARK                         _______ _______ _______ _____ _____    ______ ____
ROOT
ATOM      1  N   UNL     1      -1.007   3.479   1.878  0.00  0.00    -0.303 N 
ATOM      2  C   UNL     1      -2.099   4.263   2.257  0.00  0.00    +0.152 A 
ATOM      3  C   UNL     1      -3.430   3.953   2.616  0.00  0.00    +0.280 A 
ATOM      4  O   UNL     1      -3.809   2.795   2.632  0.00  0.00    -0.265 OA
ATOM      5  N   UNL     1      -4.277   4.951   2.941  0.00  0.00    -0.273 N 
ATOM      6  H   UNL     1      -5.220   4.738   3.195  0.00  0.00    +0.173 HD
ATOM      7  C   UNL     1      -3.863   6.231   2.926  0.00  0.00    +0.331 A 
ATOM      8  O   UNL     1      -4.644   7.114   3.223  0.00  0.00    -0.246 OA
ATOM      9  N   UNL     1      -2.601   6.553   2.588  0.00  0.00    -0.281 N 
ATOM     10  C   UNL     1      -1.698   5.569   2.247  0.00  0.00    +0.155 A 
ATOM     11  N   UNL     1      -0.378   5.606   1.869  0.00  0.00    -0.244 N 
ATOM     12  C   UNL     1       0.051   4.326   1.647  0.00  0.00    +0.239 A 
ATOM     13  N   UNL     1       1.313   4.398   1.282  0.00  0.00    -0.110 NA
ATOM     14  N   UNL     1       1.701   5.623   1.270  0.00  0.00    -0.127 NA
ATOM     15  C   UNL     1       0.710   6.412   1.620  0.00  0.00    +0.171 A 
ATOM     16  C   UNL     1      -2.184   7.957   2.581  0.00  0.00    +0.155 C 
ENDROOT
BRANCH  15  17
ATOM     17  C   UNL     1       0.755   7.885   1.727  0.00  0.00    +0.020 A 
ATOM     18  C   UNL     1      -0.147   8.668   1.004  0.00  0.00    +0.012 A 
ATOM     19  C   UNL     1      -0.104  10.043   1.112  0.00  0.00    +0.016 A 
ATOM     20  C   UNL     1       0.839  10.646   1.927  0.00  0.00    +0.018 A 
ATOM     21  C   UNL     1       1.740   9.876   2.642  0.00  0.00    +0.016 A 
ATOM     22  C   UNL     1       1.703   8.500   2.547  0.00  0.00    +0.012 A 
ATOM     23 BR   UNL     1       0.897  12.532   2.064  0.00  0.00    -0.050 Br
ENDBRANCH  15  17
BRANCH   1  24
ATOM     24  C   UNL     1      -0.990   2.019   1.755  0.00  0.00    +0.125 C 
BRANCH  24  25
ATOM     25  C   UNL     1      -1.384   1.623   0.331  0.00  0.00    +0.022 C 
BRANCH  25  26
ATOM     26  C   UNL     1      -1.367   0.098   0.203  0.00  0.00    +0.001 C 
BRANCH  26  28
ATOM     27  C   UNL     1      -1.743  -1.823  -1.350  0.00  0.00    +0.004 C 
ATOM     28  C   UNL     1      -1.760  -0.298  -1.222  0.00  0.00    -0.003 C 
ENDBRANCH  26  28
ENDBRANCH  25  26
ENDBRANCH  24  25
ENDBRANCH   1  24
TORSDOF 5
