REMARK  Name = ZINC09912986
REMARK  6 active torsions:
REMARK  status: ('A' for Active; 'I' for Inactive)
REMARK    1  A    between atoms: C_1  and  C_2
REMARK    2  A    between atoms: C_4  and  S_9
REMARK    3  A    between atoms: S_9  and  N_12
REMARK    4  A    between atoms: C_17  and  N_45
REMARK    5  A    between atoms: C_18  and  C_19
REMARK    6  A    between atoms: C_22  and  N_24
REMARK                            x       y       z     vdW  Elec       q    Type
REMARK                         _______ _______ _______ _____ _____    ______ ____
ROOT
ATOM      1  N   UNL     1      -3.788   9.514   1.551  0.00  0.00    -0.174 NA
ATOM      2  C   UNL     1      -2.335   9.325   1.432  0.00  0.00    +0.127 C 
ATOM      3  C   UNL     1      -2.049   8.511   0.164  0.00  0.00    +0.102 C 
ATOM      4  C   UNL     1      -4.373   7.516   0.273  0.00  0.00    +0.102 C 
ATOM      5  C   UNL     1      -4.658   8.330   1.547  0.00  0.00    +0.127 C 
ATOM      6  N   UNL     1      -2.893   7.304   0.511  0.00  0.00    -0.397 NA
ATOM      7  H   UNL     1      -2.807   7.215   1.530  0.00  0.00    +0.126 HD
ENDROOT
BRANCH   1   8
ATOM      8  S   UNL     1      -4.432  11.033   1.688  0.00  0.00    +0.061 S 
ATOM      9  O   UNL     1      -5.692  10.884   2.327  0.00  0.00    -0.153 OA
ATOM     10  O   UNL     1      -3.405  11.863   2.214  0.00  0.00    -0.153 OA
BRANCH   8  14
ATOM     11  C   UNL     1      -7.583  11.550  -2.450  0.00  0.00    +0.045 C 
ATOM     12  C   UNL     1      -6.244  11.817  -1.811  0.00  0.00    -0.035 A 
ATOM     13  C   UNL     1      -5.987  11.365  -0.530  0.00  0.00    +0.033 A 
ATOM     14  C   UNL     1      -4.759  11.610   0.056  0.00  0.00    +0.106 A 
ATOM     15  C   UNL     1      -3.790  12.312  -0.637  0.00  0.00    +0.029 A 
ATOM     16  C   UNL     1      -4.045  12.760  -1.919  0.00  0.00    +0.017 A 
ATOM     17  C   UNL     1      -5.273  12.515  -2.506  0.00  0.00    +0.021 A 
ATOM     18 BR   UNL     1      -5.625  13.134  -4.258  0.00  0.00    -0.050 Br
ENDBRANCH   8  14
ENDBRANCH   1   8
BRANCH   6  19
ATOM     19  C   UNL     1      -2.403   6.108   0.049  0.00  0.00    +0.056 C 
ATOM     20  C   UNL     1      -0.953   5.926   0.047  0.00  0.00    +0.060 C 
BRANCH  20  21
ATOM     21  C   UNL     1      -0.423   4.670   0.044  0.00  0.00    +0.132 A 
ATOM     22  C   UNL     1       1.011   4.318   0.042  0.00  0.00    +0.052 A 
ATOM     23  C   UNL     1       1.061   2.955   0.038  0.00  0.00    +0.076 A 
ATOM     24  C   UNL     1      -0.250   2.481   0.039  0.00  0.00    +0.280 A 
ATOM     25  O   UNL     1      -1.110   3.503   0.037  0.00  0.00    -0.435 OA
BRANCH  24  26
ATOM     26  N   UNL     1      -0.634   1.052   0.035  0.00  0.00    +0.093 N 
ATOM     27  O   UNL     1       0.297   0.120   0.031  0.00  0.00    -0.123 OA
ATOM     28  O   UNL     1      -1.906   0.712   0.041  0.00  0.00    -0.123 OA
ENDBRANCH  24  26
ENDBRANCH  20  21
ENDBRANCH   6  19
TORSDOF 5
