REMARK  Name = ZINC02397413
REMARK  5 active torsions:
REMARK  status: ('A' for Active; 'I' for Inactive)
REMARK    1  A    between atoms: C_4  and  S_7
REMARK    2  A    between atoms: S_7  and  C_10
REMARK    3  A    between atoms: N_21  and  N_24
REMARK    4  A    between atoms: C_22  and  N_23
REMARK    5  A    between atoms: C_25  and  C_26
REMARK                            x       y       z     vdW  Elec       q    Type
REMARK                         _______ _______ _______ _____ _____    ______ ____
ROOT
ATOM      1  C   UNL     1       3.005   3.085   0.763  0.00  0.00    +0.162 A 
ATOM      2  C   UNL     1       3.062   3.134  -0.651  0.00  0.00    +0.137 A 
ATOM      3  C   UNL     1       1.866   2.427  -1.127  0.00  0.00    +0.184 A 
ATOM      4  N   UNL     1       1.648   2.312  -2.418  0.00  0.00    -0.224 NA
ATOM      5  C   UNL     1       2.517   2.841  -3.290  0.00  0.00    +0.092 A 
ATOM      6  C   UNL     1       2.292   2.722  -4.674  0.00  0.00    +0.030 A 
ATOM      7  C   UNL     1       3.179   3.262  -5.553  0.00  0.00    +0.002 A 
ATOM      8  C   UNL     1       4.314   3.934  -5.104  0.00  0.00    +0.002 A 
ATOM      9  C   UNL     1       4.567   4.068  -3.774  0.00  0.00    +0.030 A 
ATOM     10  C   UNL     1       3.672   3.524  -2.833  0.00  0.00    +0.090 A 
ATOM     11  N   UNL     1       3.911   3.651  -1.523  0.00  0.00    -0.240 NA
ATOM     12  N   UNL     1       1.188   2.010   0.002  0.00  0.00    -0.197 N 
ATOM     13  C   UNL     1       1.881   2.417   1.117  0.00  0.00    +0.148 A 
ENDROOT
BRANCH   1  14
ATOM     14  S   UNL     1       4.189   3.776   1.871  0.00  0.00    +0.030 S 
ATOM     15  O   UNL     1       4.075   3.054   3.089  0.00  0.00    -0.164 OA
ATOM     16  O   UNL     1       5.411   3.871   1.152  0.00  0.00    -0.164 OA
BRANCH  14  20
ATOM     17  C   UNL     1       2.877   8.018   2.754  0.00  0.00    +0.000 A 
ATOM     18  C   UNL     1       2.435   6.978   3.550  0.00  0.00    +0.002 A 
ATOM     19  C   UNL     1       2.835   5.682   3.280  0.00  0.00    +0.027 A 
ATOM     20  C   UNL     1       3.678   5.427   2.214  0.00  0.00    +0.094 A 
ATOM     21  C   UNL     1       4.123   6.468   1.421  0.00  0.00    +0.027 A 
ATOM     22  C   UNL     1       3.719   7.763   1.688  0.00  0.00    +0.002 A 
ENDBRANCH  14  20
ENDBRANCH   1  14
BRANCH  13  23
ATOM     23  N   UNL     1       1.487   2.175   2.421  0.00  0.00    -0.341 N 
ATOM     24  H   UNL     1       0.668   1.686   2.597  0.00  0.00    +0.144 HD
ATOM     25  H   UNL     1       2.029   2.494   3.159  0.00  0.00    +0.144 HD
ENDBRANCH  13  23
BRANCH  12  26
ATOM     26  N   UNL     1      -0.015   1.293   0.009  0.00  0.00    -0.171 NA
ATOM     27  C   UNL     1       0.002  -0.004   0.002  0.00  0.00    +0.141 C 
BRANCH  27  28
ATOM     28  C   UNL     1      -1.265  -0.759   0.010  0.00  0.00    -0.005 A 
ATOM     29  C   UNL     1      -2.486  -0.080   0.031  0.00  0.00    +0.012 A 
ATOM     30  C   UNL     1      -3.667  -0.790   0.033  0.00  0.00    +0.039 A 
ATOM     31  C   UNL     1      -3.645  -2.176   0.025  0.00  0.00    +0.123 A 
ATOM     32  C   UNL     1      -2.437  -2.856   0.010  0.00  0.00    +0.039 A 
ATOM     33  C   UNL     1      -1.249  -2.156   0.002  0.00  0.00    +0.012 A 
ATOM     34  F   UNL     1      -4.806  -2.868   0.033  0.00  0.00    -0.205 F 
ENDBRANCH  27  28
ENDBRANCH  12  26
TORSDOF 5
