REMARK  Name = ZINC21264315
REMARK  13 active torsions:
REMARK  status: ('A' for Active; 'I' for Inactive)
REMARK    1  A    between atoms: C_1  and  C_2
REMARK    2  A    between atoms: C_2  and  N_3
REMARK    3  A    between atoms: C_7  and  C_9
REMARK    4  A    between atoms: C_9  and  N_10
REMARK    5  A    between atoms: N_10  and  C_11
REMARK    6  A    between atoms: N_10  and  C_17
REMARK    7  A    between atoms: C_11  and  C_12
REMARK    8  A    between atoms: C_17  and  N_19
REMARK    9  A    between atoms: N_19  and  C_20
REMARK   10  A    between atoms: C_22  and  C_28
REMARK   11  A    between atoms: C_22  and  C_29
REMARK   12  A    between atoms: C_24  and  C_26
REMARK   13  A    between atoms: C_24  and  C_27
REMARK                            x       y       z     vdW  Elec       q    Type
REMARK                         _______ _______ _______ _____ _____    ______ ____
ROOT
ATOM      1  N   UNL     1       0.044   0.722  -4.127  0.00  0.00    -0.309 N 
ENDROOT
BRANCH   1   2
ATOM      2  C   UNL     1      -0.504   1.368  -3.079  0.00  0.00    +0.133 C 
ATOM      3  S   UNL     1      -2.178   1.729  -3.078  0.00  0.00    -0.019 S 
BRANCH   2   4
ATOM      4  N   UNL     1       0.264   1.731  -2.033  0.00  0.00    -0.324 N 
ATOM      5  H   UNL     1       1.339   1.499  -2.034  0.00  0.00    +0.148 HD
BRANCH   4   6
ATOM      6  C   UNL     1      -0.334   2.436  -0.892  0.00  0.00    +0.069 C 
ATOM      7  C   UNL     1       0.515   2.187   0.354  0.00  0.00    +0.009 C 
ATOM      8  C   UNL     1      -0.073   2.926   1.554  0.00  0.00    -0.072 C 
ATOM      9  N   UNL     1      -0.365   4.316   1.273  0.00  0.00    +0.386 N 
ATOM     10  C   UNL     1      -0.944   4.699   0.002  0.00  0.00    -0.072 C 
ATOM     11  C   UNL     1      -0.347   3.937  -1.179  0.00  0.00    +0.009 C 
ATOM     12  C   UNL     1      -0.663   6.201  -0.223  0.00  0.00    -0.010 C 
ATOM     13  C   UNL     1      -2.467   4.519   0.011  0.00  0.00    -0.010 C 
ATOM     14  C   UNL     1      -1.323   2.187   2.049  0.00  0.00    -0.010 C 
ATOM     15  C   UNL     1       0.971   2.871   2.691  0.00  0.00    -0.010 C 
ATOM     16  H   UNL     1      -1.082   4.697   2.014  0.00  0.00    -0.084 HD
ATOM     17  H   UNL     1       0.564   4.903   1.326  0.00  0.00    -0.084 HD
ENDBRANCH   4   6
ENDBRANCH   2   4
ENDBRANCH   1   2
BRANCH   1  18
ATOM     18  C   UNL     1      -0.791   0.328  -5.264  0.00  0.00    +0.092 C 
BRANCH  18  23
ATOM     19  N   UNL     1      -1.282   2.712  -5.680  0.00  0.00    +0.382 N 
ATOM     20  C   UNL     1      -2.108   3.437  -6.663  0.00  0.00    -0.078 C 
ATOM     21  C   UNL     1      -2.165   2.571  -7.939  0.00  0.00    -0.020 C 
ATOM     22  C   UNL     1      -1.841   1.147  -7.412  0.00  0.00    -0.016 C 
ATOM     23  C   UNL     1      -0.810   1.455  -6.298  0.00  0.00    -0.051 C 
ATOM     24  H   UNL     1      -1.883   2.487  -4.787  0.00  0.00    -0.081 HD
BRANCH  19  26
ATOM     25  C   UNL     1      -0.671   4.880  -4.718  0.00  0.00    -0.017 C 
ATOM     26  C   UNL     1      -0.151   3.536  -5.233  0.00  0.00    -0.082 C 
ENDBRANCH  19  26
ENDBRANCH  18  23
ENDBRANCH   1  18
BRANCH   1  27
ATOM     27  C   UNL     1       1.476   0.413  -4.128  0.00  0.00    +0.149 C 
BRANCH  27  28
ATOM     28  C   UNL     1       1.700  -0.939  -3.500  0.00  0.00    +0.007 A 
ATOM     29  C   UNL     1       1.727  -2.159  -4.088  0.00  0.00    +0.013 A 
ATOM     30  C   UNL     1       1.952  -3.276  -3.305  0.00  0.00    +0.008 A 
ATOM     31  C   UNL     1       2.138  -3.117  -1.972  0.00  0.00    +0.045 A 
ATOM     32  S   UNL     1       2.004  -1.347  -1.789  0.00  0.00    -0.100 S 
ENDBRANCH  27  28
ENDBRANCH   1  27
TORSDOF 8
