REMARK  Name = ZINC08815809
REMARK  6 active torsions:
REMARK  status: ('A' for Active; 'I' for Inactive)
REMARK    1  A    between atoms: N_9  and  C_13
REMARK    2  A    between atoms: C_13  and  C_14
REMARK    3  A    between atoms: N_16  and  C_17
REMARK    4  A    between atoms: C_20  and  S_23
REMARK    5  A    between atoms: S_23  and  N_26
REMARK    6  A    between atoms: N_26  and  C_27
REMARK                            x       y       z     vdW  Elec       q    Type
REMARK                         _______ _______ _______ _____ _____    ______ ____
ROOT
ATOM      1  C   UNL     1      -0.900  -1.589   5.189  0.00  0.00    +0.034 A 
ATOM      2  C   UNL     1      -2.153  -1.579   4.589  0.00  0.00    +0.025 A 
ATOM      3  C   UNL     1      -2.264  -1.764   3.225  0.00  0.00    +0.030 A 
ATOM      4  C   UNL     1      -1.131  -1.958   2.457  0.00  0.00    +0.109 A 
ATOM      5  C   UNL     1       0.117  -1.974   3.052  0.00  0.00    +0.030 A 
ATOM      6  C   UNL     1       0.236  -1.784   4.415  0.00  0.00    +0.025 A 
ENDROOT
BRANCH   1   9
ATOM      7  C   UNL     1      -1.725  -1.896   7.400  0.00  0.00    +0.236 C 
ATOM      8  O   UNL     1      -2.716  -2.427   6.944  0.00  0.00    -0.274 OA
ATOM      9  N   UNL     1      -0.784  -1.402   6.571  0.00  0.00    -0.284 N 
ATOM     10  H   UNL     1      -0.026  -0.918   6.933  0.00  0.00    +0.155 HD
BRANCH   7  11
ATOM     11  C   UNL     1      -1.547  -1.789   8.892  0.00  0.00    +0.230 C 
BRANCH  11  20
ATOM     12  C   UNL     1      -5.763  -5.494  11.605  0.00  0.00    +0.001 A 
ATOM     13  C   UNL     1      -6.578  -4.399  11.834  0.00  0.00    +0.002 A 
ATOM     14  C   UNL     1      -6.165  -3.141  11.421  0.00  0.00    +0.029 A 
ATOM     15  C   UNL     1      -4.960  -2.995  10.795  0.00  0.00    +0.121 A 
ATOM     16  C   UNL     1      -4.113  -4.084  10.549  0.00  0.00    +0.065 A 
ATOM     17  C   UNL     1      -4.548  -5.351  10.974  0.00  0.00    +0.015 A 
ATOM     18  C   UNL     1      -2.873  -3.692   9.865  0.00  0.00    +0.268 C 
ATOM     19  O   UNL     1      -2.029  -4.518   9.579  0.00  0.00    -0.268 OA
ATOM     20  N   UNL     1      -2.698  -2.396   9.566  0.00  0.00    -0.159 N 
ATOM     21  S   UNL     1      -4.066  -1.617  10.131  0.00  0.00    +0.078 S 
ATOM     22  O   UNL     1      -3.675  -0.790  11.219  0.00  0.00    -0.150 OA
ATOM     23  O   UNL     1      -4.788  -1.139   9.004  0.00  0.00    -0.150 OA
ENDBRANCH  11  20
ENDBRANCH   7  11
ENDBRANCH   1   9
BRANCH   4  24
ATOM     24  S   UNL     1      -1.278  -2.194   0.717  0.00  0.00    +0.072 S 
ATOM     25  O   UNL     1      -2.590  -2.686   0.483  0.00  0.00    -0.150 OA
ATOM     26  O   UNL     1      -0.115  -2.898   0.303  0.00  0.00    -0.150 OA
BRANCH  24  27
ATOM     27  N   UNL     1      -1.201  -0.698   0.012  0.00  0.00    -0.215 N 
ATOM     28  H   UNL     1      -1.944  -0.373  -0.520  0.00  0.00    +0.174 HD
BRANCH  27  29
ATOM     29  C   UNL     1      -0.065   0.098   0.183  0.00  0.00    +0.066 A 
ATOM     30  C   UNL     1       1.193  -0.489   0.247  0.00  0.00    +0.026 A 
ATOM     31  C   UNL     1       2.314   0.300   0.416  0.00  0.00    +0.002 A 
ATOM     32  C   UNL     1       2.186   1.673   0.521  0.00  0.00    +0.002 A 
ATOM     33  C   UNL     1       0.936   2.261   0.458  0.00  0.00    +0.022 A 
ATOM     34  C   UNL     1      -0.190   1.478   0.289  0.00  0.00    +0.063 A 
ATOM     35 CL   UNL     1      -1.758   2.218   0.202  0.00  0.00    -0.082 Cl
ENDBRANCH  27  29
ENDBRANCH  24  27
ENDBRANCH   4  24
TORSDOF 6
