REMARK  Name = ZINC39674132
REMARK  8 active torsions:
REMARK  status: ('A' for Active; 'I' for Inactive)
REMARK    1  A    between atoms: C_1  and  C_2
REMARK    2  A    between atoms: C_5  and  C_8
REMARK    3  A    between atoms: C_12  and  C_21
REMARK    4  A    between atoms: N_23  and  C_24
REMARK    5  A    between atoms: C_24  and  C_26
REMARK    6  A    between atoms: C_24  and  C_27
REMARK    7  A    between atoms: C_28  and  C_34
REMARK    8  A    between atoms: C_31  and  C_33
REMARK                            x       y       z     vdW  Elec       q    Type
REMARK                         _______ _______ _______ _____ _____    ______ ____
ROOT
ATOM      1  C   UNL     1       0.177  -3.759   0.130  0.00  0.00    +0.247 C 
ATOM      2  O   UNL     1       0.225  -4.359  -0.926  0.00  0.00    -0.270 OA
ATOM      3  N   UNL     1       0.474  -4.395   1.281  0.00  0.00    -0.296 N 
ATOM      4  C   UNL     1       0.360  -3.873   2.663  0.00  0.00    +0.121 C 
ATOM      5  C   UNL     1      -0.167  -5.067   3.490  0.00  0.00    +0.100 C 
ATOM      6  C   UNL     1       0.250  -6.312   2.689  0.00  0.00    -0.004 C 
ATOM      7  C   UNL     1       0.982  -5.778   1.450  0.00  0.00    +0.115 C 
ATOM      8  C   UNL     1      -0.983  -7.104   2.265  0.00  0.00    -0.010 C 
ATOM      9  C   UNL     1      -0.542  -8.368   1.521  0.00  0.00    -0.082 C 
ATOM     10  N   UNL     1       0.310  -9.181   2.396  0.00  0.00    +0.379 N 
ATOM     11  C   UNL     1       1.538  -8.447   2.724  0.00  0.00    -0.082 C 
ATOM     12  C   UNL     1       1.184  -7.187   3.519  0.00  0.00    -0.010 C 
ATOM     13  H   UNL     1      -0.190  -9.394   3.246  0.00  0.00    -0.086 HD
ATOM     14  H   UNL     1       0.550 -10.041   1.926  0.00  0.00    -0.086 HD
ENDROOT
BRANCH   1  19
ATOM     15  C   UNL     1      -1.318   1.797   0.217  0.00  0.00    +0.044 C 
ATOM     16  C   UNL     1      -0.926   0.342   0.195  0.00  0.00    -0.050 A 
ATOM     17  C   UNL     1      -1.298  -0.454  -0.874  0.00  0.00    +0.004 A 
ATOM     18  C   UNL     1      -0.943  -1.787  -0.901  0.00  0.00    +0.013 A 
ATOM     19  C   UNL     1      -0.207  -2.332   0.152  0.00  0.00    +0.037 A 
ATOM     20  C   UNL     1       0.165  -1.522   1.227  0.00  0.00    +0.013 A 
ATOM     21  C   UNL     1      -0.192  -0.190   1.239  0.00  0.00    +0.004 A 
ENDBRANCH   1  19
BRANCH   5  22
ATOM     22  C   UNL     1       0.470  -5.081   4.855  0.00  0.00    +0.219 C 
ATOM     23  O   UNL     1       1.569  -4.595   5.017  0.00  0.00    -0.275 OA
ATOM     24  N   UNL     1      -0.182  -5.635   5.897  0.00  0.00    -0.309 N 
ATOM     25  H   UNL     1      -1.061  -6.024   5.768  0.00  0.00    +0.149 HD
BRANCH  24  26
ATOM     26  C   UNL     1       0.437  -5.648   7.225  0.00  0.00    +0.100 C 
ATOM     27  C   UNL     1       1.359  -6.864   7.345  0.00  0.00    +0.033 C 
BRANCH  26  28
ATOM     28  C   UNL     1      -0.637  -5.726   8.279  0.00  0.00    -0.001 C 
ATOM     29  C   UNL     1      -0.836  -4.906   9.313  0.00  0.00    +0.063 C 
ATOM     30  N   UNL     1      -1.903  -5.301  10.041  0.00  0.00    -0.159 NA
ATOM     31  N   UNL     1      -2.466  -6.313   9.617  0.00  0.00    -0.180 NA
ATOM     32  C   UNL     1      -1.749  -6.753   8.408  0.00  0.00    +0.154 C 
ATOM     33  C   UNL     1      -1.170  -8.155   8.605  0.00  0.00    +0.039 C 
ATOM     34  C   UNL     1       0.015  -3.702   9.626  0.00  0.00    +0.067 C 
ENDBRANCH  26  28
ENDBRANCH  24  26
ENDBRANCH   5  22
TORSDOF 4
