REMARK  Name = ZINC28782167
REMARK  3 active torsions:
REMARK  status: ('A' for Active; 'I' for Inactive)
REMARK    1  A    between atoms: C_3  and  S_8
REMARK    2  A    between atoms: S_8  and  N_11
REMARK    3  A    between atoms: N_11  and  C_12
REMARK                            x       y       z     vdW  Elec       q    Type
REMARK                         _______ _______ _______ _____ _____    ______ ____
ROOT
ATOM      1  N   UNL     1       2.364   3.886  -0.001  0.00  0.00    -0.215 N 
ATOM      2  H   UNL     1       3.199   3.527  -0.620  0.00  0.00    +0.174 HD
ENDROOT
BRANCH   1   3
ATOM      3  C   UNL     1       1.229   3.085   0.176  0.00  0.00    +0.070 A 
ATOM      4  C   UNL     1      -0.027   3.671   0.266  0.00  0.00    +0.075 A 
ATOM      5  C   UNL     1      -1.149   2.878   0.440  0.00  0.00    +0.168 A 
ATOM      6  C   UNL     1      -1.016   1.494   0.520  0.00  0.00    +0.168 A 
ATOM      7  C   UNL     1       0.238   0.913   0.436  0.00  0.00    +0.071 A 
ATOM      8  C   UNL     1       1.359   1.705   0.262  0.00  0.00    +0.067 A 
ATOM      9 CL   UNL     1       2.929   0.973   0.150  0.00  0.00    -0.081 Cl
ATOM     10  O   UNL     1      -2.256   0.947   0.694  0.00  0.00    -0.453 OA
ATOM     11  C   UNL     1      -3.100   2.033   1.121  0.00  0.00    +0.466 C 
ATOM     12  O   UNL     1      -2.471   3.198   0.555  0.00  0.00    -0.453 OA
ENDBRANCH   1   3
BRANCH   1  13
ATOM     13  S   UNL     1       2.449   5.373   0.723  0.00  0.00    +0.072 S 
ATOM     14  O   UNL     1       3.754   5.874   0.470  0.00  0.00    -0.150 OA
ATOM     15  O   UNL     1       1.275   6.078   0.342  0.00  0.00    -0.150 OA
BRANCH  13  18
ATOM     16  C   UNL     1       3.401   4.709   4.570  0.00  0.00    +0.040 A 
ATOM     17  C   UNL     1       3.487   4.913   3.205  0.00  0.00    +0.031 A 
ATOM     18  C   UNL     1       2.338   5.113   2.462  0.00  0.00    +0.109 A 
ATOM     19  C   UNL     1       1.103   5.115   3.084  0.00  0.00    +0.031 A 
ATOM     20  C   UNL     1       1.015   4.906   4.447  0.00  0.00    +0.040 A 
ATOM     21  C   UNL     1       2.164   4.706   5.192  0.00  0.00    +0.124 A 
ATOM     22  F   UNL     1       2.079   4.506   6.526  0.00  0.00    -0.205 F 
ENDBRANCH  13  18
ENDBRANCH   1  13
TORSDOF 3
