REMARK  Name = ZINC35486251
REMARK  13 active torsions:
REMARK  status: ('A' for Active; 'I' for Inactive)
REMARK    1  A    between atoms: C_1  and  C_2
REMARK    2  A    between atoms: C_2  and  C_3
REMARK    3  A    between atoms: C_3  and  C_4
REMARK    4  A    between atoms: C_4  and  O_5
REMARK    5  A    between atoms: O_5  and  C_6
REMARK    6  A    between atoms: C_10  and  C_12
REMARK    7  A    between atoms: N_27  and  C_28
REMARK    8  A    between atoms: C_28  and  C_29
REMARK    9  A    between atoms: C_29  and  N_30
REMARK   10  A    between atoms: N_30  and  C_31
REMARK   11  A    between atoms: N_30  and  C_33
REMARK   12  A    between atoms: C_31  and  C_32
REMARK   13  A    between atoms: C_33  and  C_34
REMARK                            x       y       z     vdW  Elec       q    Type
REMARK                         _______ _______ _______ _____ _____    ______ ____
ROOT
ATOM      1  C   UNL     1       2.396  -6.224  -4.310  0.00  0.00    +0.145 C 
ATOM      2  C   UNL     1       3.607  -6.741  -3.606  0.00  0.00    +0.072 A 
ATOM      3  C   UNL     1       4.716  -6.041  -2.951  0.00  0.00    +0.199 A 
ATOM      4  O   UNL     1       4.715  -4.842  -2.736  0.00  0.00    -0.287 OA
ATOM      5  C   UNL     1       5.841  -6.933  -2.573  0.00  0.00    +0.065 A 
ATOM      6  C   UNL     1       7.048  -6.396  -2.125  0.00  0.00    +0.030 A 
ATOM      7  C   UNL     1       8.083  -7.239  -1.783  0.00  0.00    +0.019 A 
ATOM      8  C   UNL     1       7.923  -8.615  -1.886  0.00  0.00    +0.019 A 
ATOM      9  C   UNL     1       6.736  -9.156  -2.326  0.00  0.00    +0.048 A 
ATOM     10  C   UNL     1       5.672  -8.324  -2.675  0.00  0.00    +0.140 A 
ATOM     11  O   UNL     1       4.514  -8.882  -3.095  0.00  0.00    -0.450 OA
ATOM     12  C   UNL     1       3.563  -8.106  -3.650  0.00  0.00    +0.199 A 
ATOM     13  C   UNL     1       2.346  -8.506  -4.378  0.00  0.00    +0.283 C 
ATOM     14  O   UNL     1       2.010  -9.653  -4.596  0.00  0.00    -0.267 OA
ATOM     15  N   UNL     1       1.657  -7.412  -4.768  0.00  0.00    -0.285 N 
ATOM     16 BR   UNL     1       9.723  -6.522  -1.174  0.00  0.00    -0.050 Br
ENDROOT
BRANCH   1  21
ATOM     17  C   UNL     1       0.793  -3.296  -2.539  0.00  0.00    +0.121 A 
ATOM     18  C   UNL     1      -0.014  -3.943  -1.614  0.00  0.00    +0.045 A 
ATOM     19  C   UNL     1      -0.038  -5.323  -1.566  0.00  0.00    +0.004 A 
ATOM     20  C   UNL     1       0.742  -6.060  -2.439  0.00  0.00    +0.006 A 
ATOM     21  C   UNL     1       1.547  -5.418  -3.361  0.00  0.00    -0.019 A 
ATOM     22  C   UNL     1       1.570  -4.037  -3.417  0.00  0.00    +0.051 A 
BRANCH  17  23
ATOM     23  O   UNL     1       0.818  -1.938  -2.588  0.00  0.00    -0.492 OA
BRANCH  23  24
ATOM     24  C   UNL     1      -0.008  -1.240  -1.654  0.00  0.00    +0.229 C 
BRANCH  24  25
ATOM     25  C   UNL     1       0.152   0.268  -1.860  0.00  0.00    +0.041 C 
BRANCH  25  27
ATOM     26  C   UNL     1      -0.572   2.523  -1.065  0.00  0.00    +0.004 C 
ATOM     27  C   UNL     1      -0.732   1.016  -0.860  0.00  0.00    -0.000 C 
ENDBRANCH  25  27
ENDBRANCH  24  25
ENDBRANCH  23  24
ENDBRANCH  17  23
ENDBRANCH   1  21
BRANCH  15  28
ATOM     28  C   UNL     1       0.396  -7.407  -5.514  0.00  0.00    +0.090 C 
BRANCH  28  29
ATOM     29  C   UNL     1       0.692  -7.384  -7.015  0.00  0.00    -0.060 C 
BRANCH  29  30
ATOM     30  N   UNL     1      -0.573  -7.379  -7.763  0.00  0.00    +0.380 N 
ATOM     31  H   UNL     1      -1.136  -8.165  -7.476  0.00  0.00    -0.082 HD
BRANCH  30  32
ATOM     32  C   UNL     1      -1.298  -6.131  -7.491  0.00  0.00    -0.082 C 
ATOM     33  C   UNL     1      -2.676  -6.187  -8.154  0.00  0.00    -0.017 C 
ENDBRANCH  30  32
BRANCH  30  34
ATOM     34  C   UNL     1      -0.291  -7.478  -9.201  0.00  0.00    -0.082 C 
ATOM     35  C   UNL     1       0.337  -8.840  -9.506  0.00  0.00    -0.017 C 
ENDBRANCH  30  34
ENDBRANCH  29  30
ENDBRANCH  28  29
ENDBRANCH  15  28
TORSDOF 10
