REMARK  Name = ZINC12757757
REMARK  10 active torsions:
REMARK  status: ('A' for Active; 'I' for Inactive)
REMARK    1  A    between atoms: C_1  and  C_2
REMARK    2  A    between atoms: C_2  and  C_3
REMARK    3  A    between atoms: C_3  and  N_4
REMARK    4  A    between atoms: N_4  and  C_5
REMARK    5  A    between atoms: C_6  and  N_21
REMARK    6  A    between atoms: N_7  and  C_14
REMARK    7  A    between atoms: C_14  and  C_15
REMARK    8  A    between atoms: C_22  and  C_24
REMARK    9  A    between atoms: C_27  and  C_31
REMARK   10  A    between atoms: C_29  and  C_30
REMARK                            x       y       z     vdW  Elec       q    Type
REMARK                         _______ _______ _______ _____ _____    ______ ____
ROOT
ATOM      1  C   UNL     1       1.246   2.054   0.159  0.00  0.00    +0.140 A 
ATOM      2  C   UNL     1       2.292   1.759   1.010  0.00  0.00    +0.128 A 
ATOM      3  N   UNL     1       3.397   2.579   1.026  0.00  0.00    -0.276 N 
ATOM      4  C   UNL     1       3.452   3.662   0.228  0.00  0.00    +0.331 A 
ATOM      5  O   UNL     1       4.436   4.377   0.260  0.00  0.00    -0.246 OA
ATOM      6  N   UNL     1       2.441   3.968  -0.603  0.00  0.00    -0.273 N 
ATOM      7  H   UNL     1       2.507   4.778  -1.185  0.00  0.00    +0.173 HD
ATOM      8  C   UNL     1       1.339   3.195  -0.661  0.00  0.00    +0.277 A 
ATOM      9  O   UNL     1       0.427   3.481  -1.419  0.00  0.00    -0.266 OA
ENDROOT
BRANCH   1  10
ATOM     10  N   UNL     1       0.103   1.230   0.116  0.00  0.00    -0.260 N 
ATOM     11  C   UNL     1       0.204  -0.042  -0.317  0.00  0.00    +0.251 C 
ATOM     12  O   UNL     1       1.263  -0.454  -0.752  0.00  0.00    -0.270 OA
BRANCH  11  13
ATOM     13  C   UNL     1      -0.971  -0.937  -0.263  0.00  0.00    +0.040 A 
ATOM     14  C   UNL     1      -2.124  -0.625  -0.984  0.00  0.00    +0.013 A 
ATOM     15  C   UNL     1      -3.217  -1.464  -0.929  0.00  0.00    +0.004 A 
ATOM     16  C   UNL     1      -3.172  -2.614  -0.161  0.00  0.00    -0.050 A 
ATOM     17  C   UNL     1      -2.032  -2.930   0.556  0.00  0.00    +0.007 A 
ATOM     18  C   UNL     1      -0.930  -2.102   0.505  0.00  0.00    -0.038 A 
ATOM     19  C   UNL     1       0.313  -2.451   1.282  0.00  0.00    +0.044 C 
ATOM     20  C   UNL     1      -4.370  -3.527  -0.106  0.00  0.00    +0.044 C 
ENDBRANCH  11  13
BRANCH  10  21
ATOM     21  C   UNL     1      -1.197   1.760   0.536  0.00  0.00    +0.114 C 
BRANCH  21  23
ATOM     22  C   UNL     1      -2.709   2.145   2.488  0.00  0.00    +0.005 C 
ATOM     23  C   UNL     1      -1.351   1.592   2.049  0.00  0.00    +0.016 C 
ENDBRANCH  21  23
ENDBRANCH  10  21
ENDBRANCH   1  10
BRANCH   2  24
ATOM     24  N   UNL     1       2.233   0.657   1.828  0.00  0.00    -0.343 N 
ATOM     25  H   UNL     1       1.473   0.056   1.778  0.00  0.00    +0.144 HD
ATOM     26  H   UNL     1       2.952   0.479   2.455  0.00  0.00    +0.144 HD
ENDBRANCH   2  24
BRANCH   3  27
ATOM     27  C   UNL     1       4.516   2.276   1.920  0.00  0.00    +0.163 C 
BRANCH  27  28
ATOM     28  C   UNL     1       4.298   2.954   3.247  0.00  0.00    -0.028 A 
ATOM     29  C   UNL     1       4.783   4.231   3.459  0.00  0.00    +0.005 A 
ATOM     30  C   UNL     1       4.578   4.856   4.675  0.00  0.00    +0.000 A 
ATOM     31  C   UNL     1       3.897   4.199   5.683  0.00  0.00    +0.000 A 
ATOM     32  C   UNL     1       3.416   2.921   5.473  0.00  0.00    +0.000 A 
ATOM     33  C   UNL     1       3.616   2.298   4.255  0.00  0.00    +0.005 A 
ENDBRANCH  27  28
ENDBRANCH   3  27
TORSDOF 7
