REMARK  Name = ZINC39453242
REMARK  5 active torsions:
REMARK  status: ('A' for Active; 'I' for Inactive)
REMARK    1  A    between atoms: C_1  and  C_2
REMARK    2  A    between atoms: C_2  and  O_3
REMARK    3  A    between atoms: O_3  and  N_4
REMARK    4  A    between atoms: C_21  and  S_26
REMARK    5  A    between atoms: S_26  and  C_27
REMARK                            x       y       z     vdW  Elec       q    Type
REMARK                         _______ _______ _______ _____ _____    ______ ____
ROOT
ATOM      1  N   UNL     1      -1.431  -1.912   0.005  0.00  0.00    -0.138 N 
ATOM      2  C   UNL     1      -1.481  -2.576  -1.216  0.00  0.00    +0.149 A 
ATOM      3  C   UNL     1      -1.566  -3.952  -1.273  0.00  0.00    +0.085 A 
ATOM      4  C   UNL     1      -1.613  -4.738  -0.027  0.00  0.00    +0.100 A 
ATOM      5  C   UNL     1      -1.562  -4.034   1.205  0.00  0.00    +0.070 A 
ATOM      6  C   UNL     1      -1.462  -2.566   1.180  0.00  0.00    +0.293 A 
ATOM      7  O   UNL     1      -1.413  -1.942   2.224  0.00  0.00    -0.264 OA
ATOM      8  C   UNL     1      -1.600  -4.724   2.408  0.00  0.00    +0.026 A 
ATOM      9  C   UNL     1      -1.689  -6.124   2.356  0.00  0.00    +0.015 A 
ATOM     10  C   UNL     1      -1.740  -6.783   1.048  0.00  0.00    +0.073 A 
ATOM     11  N   UNL     1      -1.699  -6.054  -0.067  0.00  0.00    -0.245 NA
ATOM     12  C   UNL     1      -1.831  -8.186   1.006  0.00  0.00    +0.028 A 
ATOM     13  C   UNL     1      -1.867  -8.892   2.169  0.00  0.00    +0.003 A 
ATOM     14  C   UNL     1      -1.817  -8.265   3.410  0.00  0.00    +0.016 A 
ATOM     15  C   UNL     1      -1.730  -6.909   3.520  0.00  0.00    +0.027 A 
ATOM     16 BR   UNL     1      -1.664  -6.093   5.225  0.00  0.00    -0.050 Br
ATOM     17  N   UNL     1      -1.601  -4.591  -2.497  0.00  0.00    -0.328 N 
ATOM     18  C   UNL     1      -0.978  -3.923  -3.650  0.00  0.00    +0.136 C 
ATOM     19  C   UNL     1      -1.552  -2.505  -3.751  0.00  0.00    +0.114 C 
ATOM     20  C   UNL     1      -1.440  -1.824  -2.413  0.00  0.00    +0.187 C 
ATOM     21  O   UNL     1      -1.312  -0.617  -2.361  0.00  0.00    -0.290 OA
ATOM     22  H   UNL     1      -2.026  -5.457  -2.595  0.00  0.00    +0.147 HD
ENDROOT
BRANCH  18  23
ATOM     23  S   UNL     1       0.819  -3.840  -3.411  0.00  0.00    -0.142 S 
ATOM     24  C   UNL     1       1.137  -5.015  -2.066  0.00  0.00    +0.086 C 
ENDBRANCH  18  23
BRANCH   1  25
ATOM     25  O   UNL     1      -1.339  -0.499   0.012  0.00  0.00    -0.408 OA
BRANCH  25  27
ATOM     26  C   UNL     1      -0.019   1.526   0.010  0.00  0.00    +0.051 C 
ATOM     27  C   UNL     1       0.002  -0.004   0.002  0.00  0.00    +0.257 C 
ENDBRANCH  25  27
ENDBRANCH   1  25
TORSDOF 3
