REMARK  Name = ZINC24763818
REMARK  6 active torsions:
REMARK  status: ('A' for Active; 'I' for Inactive)
REMARK    1  A    between atoms: C_1  and  C_2
REMARK    2  A    between atoms: N_13  and  C_16
REMARK    3  A    between atoms: C_16  and  C_17
REMARK    4  A    between atoms: N_19  and  C_20
REMARK    5  A    between atoms: N_19  and  C_21
REMARK    6  A    between atoms: C_24  and  N_27
REMARK                            x       y       z     vdW  Elec       q    Type
REMARK                         _______ _______ _______ _____ _____    ______ ____
ROOT
ATOM      1  C   UNL     1       6.719  -0.099  -0.223  0.00  0.00    +0.008 C 
ATOM      2  C   UNL     1       5.275   0.333  -0.485  0.00  0.00    -0.009 C 
ATOM      3  C   UNL     1       4.322  -0.520   0.359  0.00  0.00    +0.008 C 
ATOM      4  C   UNL     1       2.878  -0.269  -0.075  0.00  0.00    +0.037 C 
ATOM      5  C   UNL     1       2.610   1.233  -0.054  0.00  0.00    -0.023 A 
ATOM      6  C   UNL     1       3.632   2.115  -0.060  0.00  0.00    -0.004 A 
ATOM      7  S   UNL     1       2.862   3.711  -0.030  0.00  0.00    -0.073 S 
ATOM      8  C   UNL     1       1.166   3.188  -0.009  0.00  0.00    +0.116 A 
ATOM      9  C   UNL     1       1.257   1.787  -0.026  0.00  0.00    +0.076 A 
ATOM     10  C   UNL     1       0.008   1.084  -0.013  0.00  0.00    +0.263 A 
ATOM     11  O   UNL     1      -0.018  -0.134  -0.026  0.00  0.00    -0.267 OA
ATOM     12  N   UNL     1      -1.137   1.793   0.007  0.00  0.00    -0.290 N 
ATOM     13  C   UNL     1      -1.127   3.151   0.026  0.00  0.00    +0.203 A 
ATOM     14  N   UNL     1      -0.004   3.819   0.015  0.00  0.00    -0.230 NA
ATOM     15  C   UNL     1       5.098   1.806  -0.088  0.00  0.00    +0.046 C 
ENDROOT
BRANCH  12  16
ATOM     16  C   UNL     1      -2.419   1.085   0.014  0.00  0.00    +0.222 C 
BRANCH  16  17
ATOM     17  C   UNL     1      -2.843   0.827   1.437  0.00  0.00    +0.239 C 
ATOM     18  O   UNL     1      -2.143   1.198   2.355  0.00  0.00    -0.273 OA
ATOM     19  N   UNL     1      -4.000   0.183   1.689  0.00  0.00    -0.273 N 
ATOM     20  C   UNL     1      -4.901  -0.163   0.587  0.00  0.00    +0.138 C 
BRANCH  19  21
ATOM     21  C   UNL     1      -4.340  -0.154   3.004  0.00  0.00    +0.036 A 
ATOM     22  C   UNL     1      -4.396  -1.488   3.387  0.00  0.00    +0.026 A 
ATOM     23  C   UNL     1      -4.728  -1.818   4.687  0.00  0.00    +0.034 A 
ATOM     24  C   UNL     1      -5.015  -0.822   5.603  0.00  0.00    +0.126 A 
ATOM     25  C   UNL     1      -4.965   0.506   5.222  0.00  0.00    +0.034 A 
ATOM     26  C   UNL     1      -4.629   0.843   3.926  0.00  0.00    +0.026 A 
BRANCH  24  27
ATOM     27  N   UNL     1      -5.375  -1.179   6.993  0.00  0.00    +0.056 N 
ATOM     28  O   UNL     1      -5.627  -0.303   7.801  0.00  0.00    -0.126 OA
ATOM     29  O   UNL     1      -5.419  -2.349   7.330  0.00  0.00    -0.126 OA
ENDBRANCH  24  27
ENDBRANCH  19  21
ENDBRANCH  16  17
ENDBRANCH  12  16
TORSDOF 4
