REMARK  Name = ZINC04386383
REMARK  6 active torsions:
REMARK  status: ('A' for Active; 'I' for Inactive)
REMARK    1  A    between atoms: C_1  and  C_2
REMARK    2  A    between atoms: N_9  and  C_10
REMARK    3  A    between atoms: N_11  and  C_21
REMARK    4  A    between atoms: N_14  and  C_17
REMARK    5  A    between atoms: C_17  and  C_18
REMARK    6  A    between atoms: C_18  and  C_20
REMARK                            x       y       z     vdW  Elec       q    Type
REMARK                         _______ _______ _______ _____ _____    ______ ____
ROOT
ATOM      1  C   UNL     1      -3.079   1.661   0.242  0.00  0.00    +0.065 C 
ATOM      2  C   UNL     1      -2.051   1.816   1.332  0.00  0.00    +0.035 A 
ATOM      3  C   UNL     1      -2.288   2.223   2.576  0.00  0.00    +0.116 A 
ATOM      4  N   UNL     1      -1.088   2.239   3.265  0.00  0.00    -0.277 N 
ATOM      5  C   UNL     1      -0.483   2.509   4.483  0.00  0.00    +0.157 A 
ATOM      6  C   UNL     1       0.875   2.241   4.315  0.00  0.00    +0.170 A 
ATOM      7  N   UNL     1       1.049   1.835   3.060  0.00  0.00    -0.193 NA
ATOM      8  C   UNL     1      -0.112   1.829   2.421  0.00  0.00    +0.218 A 
ATOM      9  N   UNL     1      -0.698   1.558   1.213  0.00  0.00    -0.317 N 
ATOM     10  C   UNL     1      -0.013   1.086   0.008  0.00  0.00    +0.152 C 
ATOM     11  N   UNL     1       1.730   2.429   5.389  0.00  0.00    -0.279 N 
ATOM     12  C   UNL     1       1.246   2.862   6.569  0.00  0.00    +0.334 A 
ATOM     13  O   UNL     1       2.010   3.021   7.501  0.00  0.00    -0.246 OA
ATOM     14  N   UNL     1      -0.061   3.123   6.740  0.00  0.00    -0.255 N 
ATOM     15  C   UNL     1      -0.942   2.959   5.732  0.00  0.00    +0.283 A 
ATOM     16  O   UNL     1      -2.125   3.200   5.903  0.00  0.00    -0.265 OA
ATOM     17  C   UNL     1       3.162   2.155   5.242  0.00  0.00    +0.155 C 
ENDROOT
BRANCH  14  18
ATOM     18  C   UNL     1      -0.537   3.592   8.044  0.00  0.00    +0.160 C 
BRANCH  18  19
ATOM     19  C   UNL     1      -0.915   2.408   8.896  0.00  0.00    -0.060 C 
ATOM     20  C   UNL     1      -0.050   1.907   9.743  0.00  0.00    +0.009 C 
ATOM     21  C   UNL     1      -2.289   1.800   8.775  0.00  0.00    +0.040 C 
ENDBRANCH  18  19
ENDBRANCH  14  18
TORSDOF 2
