REMARK  Name = ZINC04598858
REMARK  3 active torsions:
REMARK  status: ('A' for Active; 'I' for Inactive)
REMARK    1  A    between atoms: C_6  and  C_7
REMARK    2  A    between atoms: N_8  and  N_9
REMARK    3  A    between atoms: C_12  and  N_22
REMARK                            x       y       z     vdW  Elec       q    Type
REMARK                         _______ _______ _______ _____ _____    ______ ____
ROOT
ATOM      1  N   UNL     1       3.455   2.187  -0.019  0.00  0.00    -0.221 N 
ATOM      2  C   UNL     1       2.291   1.434  -0.012  0.00  0.00    +0.145 A 
ATOM      3  C   UNL     1       2.349   0.043  -0.020  0.00  0.00    +0.089 A 
ATOM      4  C   UNL     1       1.155  -0.670  -0.013  0.00  0.00    +0.128 A 
ATOM      5  N   UNL     1       0.002  -0.004   0.002  0.00  0.00    -0.199 NA
ATOM      6  C   UNL     1      -0.016   1.320   0.009  0.00  0.00    +0.221 A 
ATOM      7  N   UNL     1       1.101   2.032   0.003  0.00  0.00    -0.198 NA
ATOM      8  N   UNL     1      -1.234   1.977   0.019  0.00  0.00    -0.295 N 
ATOM      9  C   UNL     1      -2.064   1.565  -1.123  0.00  0.00    +0.136 C 
ATOM     10  C   UNL     1      -3.421   2.269  -1.040  0.00  0.00    +0.179 C 
ATOM     11  O   UNL     1      -3.217   3.684  -1.003  0.00  0.00    -0.377 OA
ATOM     12  C   UNL     1      -2.413   4.121   0.096  0.00  0.00    +0.179 C 
ATOM     13  C   UNL     1      -1.046   3.436   0.026  0.00  0.00    +0.136 C 
ATOM     14  H   UNL     1       4.318   1.744  -0.029  0.00  0.00    +0.176 HD
ENDROOT
BRANCH   4  15
ATOM     15  N   UNL     1       1.164  -2.057  -0.021  0.00  0.00    -0.311 N 
ATOM     16  C   UNL     1       1.917  -2.571  -1.173  0.00  0.00    +0.134 C 
ATOM     17  C   UNL     1       1.953  -4.101  -1.111  0.00  0.00    +0.178 C 
ATOM     18  O   UNL     1       0.615  -4.603  -1.070  0.00  0.00    -0.377 OA
ATOM     19  C   UNL     1      -0.147  -4.122   0.040  0.00  0.00    +0.178 C 
ATOM     20  C   UNL     1      -0.205  -2.593  -0.011  0.00  0.00    +0.134 C 
ENDBRANCH   4  15
BRANCH   1  22
ATOM     21  C   UNL     1       4.475   4.290  -0.017  0.00  0.00    +0.138 C 
ATOM     22  N   UNL     1       3.385   3.586  -0.011  0.00  0.00    -0.189 NA
BRANCH  21  28
ATOM     23  C   UNL     1       3.159   6.403   0.001  0.00  0.00    +0.011 A 
ATOM     24  C   UNL     1       3.097   7.781   0.014  0.00  0.00    +0.020 A 
ATOM     25  C   UNL     1       4.263   8.529   0.007  0.00  0.00    +0.041 A 
ATOM     26  C   UNL     1       5.497   7.901  -0.007  0.00  0.00    +0.020 A 
ATOM     27  C   UNL     1       5.572   6.524  -0.015  0.00  0.00    +0.011 A 
ATOM     28  C   UNL     1       4.401   5.763  -0.008  0.00  0.00    -0.005 A 
ATOM     29 CL   UNL     1       4.176  10.263   0.016  0.00  0.00    -0.084 Cl
ENDBRANCH  21  28
ENDBRANCH   1  22
TORSDOF 3
