REMARK  Name = ZINC16001040
REMARK  1 active torsions:
REMARK  status: ('A' for Active; 'I' for Inactive)
REMARK    1  A    between atoms: C_1  and  N_38
REMARK                            x       y       z     vdW  Elec       q    Type
REMARK                         _______ _______ _______ _____ _____    ______ ____
ROOT
ATOM      1  C   UNL     1       0.002  -0.004   0.002  0.00  0.00    -0.095 C 
ATOM      2  C   UNL     1       1.343   2.009   0.000  0.00  0.00    -0.055 C 
ATOM      3  C   UNL     1       2.228   1.182   0.936  0.00  0.00    -0.014 C 
ATOM      4  C   UNL     1       3.641   1.737   0.946  0.00  0.00    -0.001 C 
ATOM      5  C   UNL     1       3.617   3.191   1.424  0.00  0.00    +0.001 C 
ATOM      6  C   UNL     1       2.745   4.022   0.481  0.00  0.00    +0.012 C 
ATOM      7  C   UNL     1       1.319   3.466   0.477  0.00  0.00    +0.033 C 
ATOM      8  S   UNL     1       0.297   4.428  -0.681  0.00  0.00    -0.157 S 
ATOM      9  C   UNL     1      -1.226   3.441  -0.793  0.00  0.00    +0.033 C 
ATOM     10  C   UNL     1      -0.843   1.985  -1.084  0.00  0.00    -0.055 C 
ATOM     11  C   UNL     1      -2.122   1.145  -1.175  0.00  0.00    -0.014 C 
ATOM     12  C   UNL     1      -2.890   1.224   0.146  0.00  0.00    -0.001 C 
ATOM     13  C   UNL     1      -3.259   2.680   0.439  0.00  0.00    +0.001 C 
ATOM     14  C   UNL     1      -1.986   3.523   0.533  0.00  0.00    +0.012 C 
ATOM     15  N   UNL     1      -0.035   1.468   0.047  0.00  0.00    +0.383 N 
ATOM     16  H   UNL     1      -0.474   1.763   0.927  0.00  0.00    -0.081 HD
ENDROOT
TORSDOF 0
