REMARK  Name = ZINC09548759
REMARK  8 active torsions:
REMARK  status: ('A' for Active; 'I' for Inactive)
REMARK    1  A    between atoms: C_1  and  C_2
REMARK    2  A    between atoms: N_11  and  C_15
REMARK    3  A    between atoms: C_15  and  N_65
REMARK    4  A    between atoms: C_16  and  N_65
REMARK    5  A    between atoms: C_17  and  C_18
REMARK    6  A    between atoms: C_17  and  N_65
REMARK    7  A    between atoms: N_20  and  C_29
REMARK    8  A    between atoms: C_22  and  C_23
REMARK                            x       y       z     vdW  Elec       q    Type
REMARK                         _______ _______ _______ _____ _____    ______ ____
ROOT
ATOM      1  C   UNL     1       3.950   0.625  -1.570  0.00  0.00    -0.037 C 
ENDROOT
BRANCH   1   2
ATOM      2  C   UNL     1       4.330   0.359  -3.004  0.00  0.00    -0.018 A 
ATOM      3  C   UNL     1       5.459   0.776  -3.617  0.00  0.00    +0.116 A 
ATOM      4  N   UNL     1       5.424   0.333  -4.901  0.00  0.00    -0.239 N 
ATOM      5  N   UNL     1       4.232  -0.381  -5.081  0.00  0.00    -0.166 NA
ATOM      6  C   UNL     1       3.573  -0.372  -3.941  0.00  0.00    +0.094 A 
BRANCH   6   7
ATOM      7  C   UNL     1       2.261  -1.018  -3.687  0.00  0.00    +0.002 A 
ATOM      8  C   UNL     1       2.051  -1.736  -2.512  0.00  0.00    +0.010 A 
ATOM      9  C   UNL     1       0.827  -2.330  -2.279  0.00  0.00    +0.001 A 
ATOM     10  C   UNL     1      -0.186  -2.223  -3.215  0.00  0.00    +0.000 A 
ATOM     11  C   UNL     1       0.019  -1.516  -4.386  0.00  0.00    +0.001 A 
ATOM     12  C   UNL     1       1.237  -0.913  -4.627  0.00  0.00    +0.010 A 
ENDBRANCH   6   7
BRANCH   4  13
ATOM     13  C   UNL     1       6.408   0.550  -5.875  0.00  0.00    +0.065 A 
ATOM     14  C   UNL     1       7.545   1.283  -5.563  0.00  0.00    +0.028 A 
ATOM     15  C   UNL     1       8.515   1.492  -6.523  0.00  0.00    +0.002 A 
ATOM     16  C   UNL     1       8.350   0.980  -7.797  0.00  0.00    +0.000 A 
ATOM     17  C   UNL     1       7.217   0.254  -8.112  0.00  0.00    +0.002 A 
ATOM     18  C   UNL     1       6.245   0.038  -7.155  0.00  0.00    +0.028 A 
ENDBRANCH   4  13
ENDBRANCH   1   2
BRANCH   1  20
ATOM     19  C   UNL     1       3.449   2.975  -1.867  0.00  0.00    -0.093 C 
ATOM     20  N   UNL     1       2.884   1.648  -1.543  0.00  0.00    +0.391 N 
ATOM     21  H   UNL     1       2.173   1.408  -2.244  0.00  0.00    -0.079 HD
BRANCH  20  22
ATOM     22  C   UNL     1       2.249   1.682  -0.209  0.00  0.00    +0.043 C 
BRANCH  22  32
ATOM     23  C   UNL     1      -0.945   2.798  -3.100  0.00  0.00    +0.010 C 
ATOM     24  C   UNL     1      -1.992   2.450  -2.040  0.00  0.00    +0.018 C 
ATOM     25  C   UNL     1      -3.130   3.473  -2.093  0.00  0.00    +0.006 C 
ATOM     26  C   UNL     1      -4.167   3.137  -1.019  0.00  0.00    +0.000 C 
ATOM     27  C   UNL     1      -3.509   3.191   0.361  0.00  0.00    +0.003 C 
ATOM     28  C   UNL     1      -2.373   2.167   0.424  0.00  0.00    +0.035 C 
ATOM     29  C   UNL     1      -1.346   2.476  -0.659  0.00  0.00    +0.115 C 
ATOM     30  C   UNL     1      -0.201   1.491  -0.596  0.00  0.00    +0.245 C 
ATOM     31  O   UNL     1      -0.257   0.289  -0.743  0.00  0.00    -0.273 OA
ATOM     32  N   UNL     1       0.899   2.232  -0.346  0.00  0.00    -0.241 N 
ATOM     33  C   UNL     1       0.602   3.534  -0.240  0.00  0.00    +0.308 C 
ATOM     34  O   UNL     1       1.427   4.399  -0.018  0.00  0.00    -0.252 OA
ATOM     35  N   UNL     1      -0.712   3.777  -0.409  0.00  0.00    -0.285 N 
ATOM     36  H   UNL     1      -1.152   4.641  -0.375  0.00  0.00    +0.151 HD
ENDBRANCH  22  32
ENDBRANCH  20  22
ENDBRANCH   1  20
TORSDOF 6
