REMARK  Name = ZINC20978308
REMARK  5 active torsions:
REMARK  status: ('A' for Active; 'I' for Inactive)
REMARK    1  A    between atoms: C_1  and  C_2
REMARK    2  A    between atoms: N_8  and  S_9
REMARK    3  A    between atoms: S_9  and  C_12
REMARK    4  A    between atoms: C_15  and  C_17
REMARK    5  A    between atoms: C_19  and  C_22
REMARK                            x       y       z     vdW  Elec       q    Type
REMARK                         _______ _______ _______ _____ _____    ______ ____
ROOT
ATOM      1  S   UNL     1       1.801   2.165   4.556  0.00  0.00    +0.107 S 
ATOM      2  O   UNL     1       2.301   2.501   5.843  0.00  0.00    -0.146 OA
ATOM      3  O   UNL     1       1.982   0.878   3.980  0.00  0.00    -0.146 OA
ENDROOT
BRANCH   1  11
ATOM      4  C   UNL     1      -0.013   1.086   0.008  0.00  0.00    +0.063 C 
ATOM      5  C   UNL     1      -0.718   1.572   1.248  0.00  0.00    +0.015 A 
ATOM      6  C   UNL     1      -2.082   1.786   1.216  0.00  0.00    +0.021 A 
ATOM      7  C   UNL     1      -2.727   2.229   2.363  0.00  0.00    +0.005 A 
ATOM      8  C   UNL     1      -1.973   2.452   3.501  0.00  0.00    +0.048 A 
ATOM      9  C   UNL     1      -0.602   2.220   3.460  0.00  0.00    +0.153 A 
ATOM     10  N   UNL     1      -0.024   1.792   2.348  0.00  0.00    -0.343 N 
ATOM     11  N   UNL     1       0.168   2.439   4.596  0.00  0.00    -0.110 NA
ATOM     12  H   UNL     1       1.063   1.621   2.356  0.00  0.00    +0.167 HD
ENDBRANCH   1  11
BRANCH   1  13
ATOM     13  C   UNL     1       2.496   3.325   3.426  0.00  0.00    +0.150 A 
ATOM     14  C   UNL     1       2.962   4.578   3.671  0.00  0.00    +0.037 A 
ATOM     15  C   UNL     1       3.474   5.320   2.632  0.00  0.00    +0.021 A 
ATOM     16  C   UNL     1       3.482   4.762   1.366  0.00  0.00    +0.059 A 
ATOM     17  S   UNL     1       2.759   3.157   1.669  0.00  0.00    -0.065 S 
BRANCH  16  18
ATOM     18  C   UNL     1       3.962   5.339   0.102  0.00  0.00    +0.174 A 
ATOM     19  C   UNL     1       3.949   4.743  -1.135  0.00  0.00    +0.076 A 
ATOM     20  C   UNL     1       4.513   5.715  -1.983  0.00  0.00    +0.081 A 
ATOM     21  N   UNL     1       4.798   6.744  -1.235  0.00  0.00    -0.083 NA
ATOM     22  O   UNL     1       4.496   6.561  -0.079  0.00  0.00    -0.354 OA
ATOM     23  C   UNL     1       4.743   5.589  -3.467  0.00  0.00    +0.069 C 
ENDBRANCH  16  18
ENDBRANCH   1  13
TORSDOF 3
