REMARK  Name = ZINC13343990
REMARK  7 active torsions:
REMARK  status: ('A' for Active; 'I' for Inactive)
REMARK    1  A    between atoms: C_3  and  C_10
REMARK    2  A    between atoms: C_5  and  N_7
REMARK    3  A    between atoms: C_13  and  C_15
REMARK    4  A    between atoms: C_16  and  C_17
REMARK    5  A    between atoms: C_16  and  C_31
REMARK    6  A    between atoms: C_20  and  S_22
REMARK    7  A    between atoms: S_22  and  N_25
REMARK                            x       y       z     vdW  Elec       q    Type
REMARK                         _______ _______ _______ _____ _____    ______ ____
ROOT
ATOM      1  C   UNL     1       1.444   8.519  -0.070  0.00  0.00    +0.062 C 
ATOM      2  C   UNL     1       2.833   8.352   0.129  0.00  0.00    +0.080 C 
ENDROOT
BRANCH   1   6
ATOM      3  C   UNL     1      -0.056   5.325  -0.271  0.00  0.00    +0.136 A 
ATOM      4  C   UNL     1      -1.204   6.131  -0.322  0.00  0.00    +0.050 A 
ATOM      5  C   UNL     1      -0.792   7.430  -0.253  0.00  0.00    +0.050 A 
ATOM      6  C   UNL     1       0.621   7.412  -0.160  0.00  0.00    +0.129 A 
ATOM      7  O   UNL     1       1.022   6.121  -0.168  0.00  0.00    -0.455 OA
BRANCH   3  10
ATOM      8  C   UNL     1      -1.209   1.764  -0.466  0.00  0.00    +0.003 A 
ATOM      9  C   UNL     1      -1.237   3.140  -0.418  0.00  0.00    +0.012 A 
ATOM     10  C   UNL     1      -0.037   3.859  -0.316  0.00  0.00    +0.019 A 
ATOM     11  C   UNL     1       1.183   3.167  -0.257  0.00  0.00    +0.044 A 
ATOM     12  C   UNL     1       1.190   1.791  -0.300  0.00  0.00    +0.127 A 
ATOM     13  C   UNL     1      -0.001   1.089  -0.401  0.00  0.00    +0.033 A 
BRANCH  12  14
ATOM     14  N   UNL     1       2.475   1.058  -0.237  0.00  0.00    +0.056 N 
ATOM     15  O   UNL     1       2.485  -0.258  -0.278  0.00  0.00    -0.126 OA
ATOM     16  O   UNL     1       3.608   1.723  -0.141  0.00  0.00    -0.126 OA
ENDBRANCH  12  14
ENDBRANCH   3  10
ENDBRANCH   1   6
BRANCH   2  17
ATOM     17  C   UNL     1       3.647   9.466   0.336  0.00  0.00    +0.028 A 
ATOM     18  C   UNL     1       4.392   9.827   1.493  0.00  0.00    +0.018 A 
ATOM     19  C   UNL     1       5.101  10.965   1.429  0.00  0.00    +0.037 A 
ATOM     20  C   UNL     1       5.072  11.719   0.258  0.00  0.00    +0.143 A 
ATOM     21  S   UNL     1       4.029  10.803  -0.781  0.00  0.00    -0.068 S 
BRANCH  20  22
ATOM     22  S   UNL     1       5.902  13.234  -0.088  0.00  0.00    +0.067 S 
ATOM     23  O   UNL     1       5.163  13.877  -1.117  0.00  0.00    -0.152 OA
ATOM     24  O   UNL     1       6.157  13.852   1.166  0.00  0.00    -0.152 OA
BRANCH  22  25
ATOM     25  N   UNL     1       7.377  12.848  -0.734  0.00  0.00    -0.172 NA
ATOM     26  C   UNL     1       8.557  12.665   0.126  0.00  0.00    +0.137 C 
ATOM     27  C   UNL     1       9.215  11.326  -0.242  0.00  0.00    +0.177 C 
ATOM     28  O   UNL     1       9.446  11.289  -1.652  0.00  0.00    -0.377 OA
ATOM     29  C   UNL     1       8.256  11.349  -2.442  0.00  0.00    +0.177 C 
ATOM     30  C   UNL     1       7.548  12.684  -2.187  0.00  0.00    +0.137 C 
ENDBRANCH  22  25
ENDBRANCH  20  22
ENDBRANCH   2  17
BRANCH   2  31
ATOM     31  C   UNL     1       3.427   6.992   0.115  0.00  0.00    +0.388 C 
ATOM     32  O   UNL     1       3.679   6.430   1.161  0.00  0.00    -0.241 OA
ATOM     33  O   UNL     1       3.685   6.381  -1.057  0.00  0.00    -0.241 OA
ENDBRANCH   2  31
TORSDOF 7
