REMARK  Name = ZINC35780907
REMARK  12 active torsions:
REMARK  status: ('A' for Active; 'I' for Inactive)
REMARK    1  A    between atoms: C_1  and  C_2
REMARK    2  A    between atoms: N_8  and  C_9
REMARK    3  A    between atoms: C_10  and  C_20
REMARK    4  A    between atoms: C_11  and  C_14
REMARK    5  A    between atoms: C_20  and  N_21
REMARK    6  A    between atoms: N_21  and  C_22
REMARK    7  A    between atoms: N_21  and  C_29
REMARK    8  A    between atoms: C_22  and  C_23
REMARK    9  A    between atoms: C_29  and  C_30
REMARK   10  A    between atoms: C_30  and  C_32
REMARK   11  A    between atoms: C_30  and  O_39
REMARK   12  A    between atoms: C_32  and  N_33
REMARK                            x       y       z     vdW  Elec       q    Type
REMARK                         _______ _______ _______ _____ _____    ______ ____
ROOT
ATOM      1  C   UNL     1       2.023  -0.966   3.397  0.00  0.00    -0.035 C 
ENDROOT
BRANCH   1   3
ATOM      2  C   UNL     1       1.380   0.749   1.619  0.00  0.00    +0.222 A 
ATOM      3  C   UNL     1       1.469   0.349   2.912  0.00  0.00    +0.025 A 
ATOM      4  C   UNL     1       0.950   1.380   3.723  0.00  0.00    +0.117 A 
ATOM      5  N   UNL     1       0.567   2.359   2.937  0.00  0.00    -0.076 NA
ATOM      6  O   UNL     1       0.837   1.978   1.600  0.00  0.00    -0.339 OA
BRANCH   2  13
ATOM      7  C   UNL     1      -0.493  -0.884   0.556  0.00  0.00    +0.028 C 
ATOM      8  C   UNL     1       0.885  -0.963  -0.103  0.00  0.00    +0.073 C 
ATOM      9  C   UNL     1       0.758  -0.652  -1.597  0.00  0.00    +0.022 C 
ATOM     10  C   UNL     1       2.154  -0.596  -2.223  0.00  0.00    +0.003 C 
ATOM     11  C   UNL     1       2.965   0.521  -1.564  0.00  0.00    +0.019 C 
ATOM     12  C   UNL     1       3.117   0.224  -0.069  0.00  0.00    +0.108 C 
ATOM     13  N   UNL     1       1.783   0.022   0.514  0.00  0.00    -0.296 N 
ENDBRANCH   2  13
BRANCH   4  14
ATOM     14  C   UNL     1       0.854   1.361   5.205  0.00  0.00    +0.004 A 
ATOM     15  C   UNL     1       1.202   2.491   5.942  0.00  0.00    +0.010 A 
ATOM     16  C   UNL     1       1.111   2.468   7.319  0.00  0.00    +0.001 A 
ATOM     17  C   UNL     1       0.675   1.326   7.967  0.00  0.00    +0.000 A 
ATOM     18  C   UNL     1       0.328   0.202   7.240  0.00  0.00    +0.001 A 
ATOM     19  C   UNL     1       0.411   0.216   5.862  0.00  0.00    +0.010 A 
ENDBRANCH   4  14
ENDBRANCH   1   3
BRANCH   1  20
ATOM     20  N   UNL     1       3.487  -0.956   3.272  0.00  0.00    +0.386 N 
ATOM     21  H   UNL     1       3.742  -0.708   2.328  0.00  0.00    -0.081 HD
BRANCH  20  22
ATOM     22  C   UNL     1       4.051   0.027   4.207  0.00  0.00    -0.046 C 
BRANCH  22  23
ATOM     23  C   UNL     1       3.678  -0.358   5.640  0.00  0.00    +0.102 C 
ATOM     24  C   UNL     1       4.111   0.759   6.613  0.00  0.00    +0.032 C 
ATOM     25  C   UNL     1       4.631  -0.050   7.833  0.00  0.00    +0.030 C 
ATOM     26  C   UNL     1       5.242  -1.286   7.127  0.00  0.00    +0.160 C 
ATOM     27  O   UNL     1       4.368  -1.555   6.017  0.00  0.00    -0.378 OA
ENDBRANCH  22  23
ENDBRANCH  20  22
BRANCH  20  28
ATOM     28  C   UNL     1       4.014  -2.290   3.588  0.00  0.00    -0.045 C 
BRANCH  28  29
ATOM     29  C   UNL     1       5.536  -2.288   3.426  0.00  0.00    +0.112 C 
BRANCH  29  30
ATOM     30  O   UNL     1       5.872  -1.928   2.084  0.00  0.00    -0.392 OA
ATOM     31  H   UNL     1       5.514  -2.527   1.415  0.00  0.00    +0.210 HD
ENDBRANCH  29  30
BRANCH  29  32
ATOM     32  C   UNL     1       6.083  -3.684   3.731  0.00  0.00    +0.114 C 
BRANCH  32  33
ATOM     33  N   UNL     1       7.549  -3.663   3.654  0.00  0.00    -0.296 NA
ATOM     34  C   UNL     1       8.088  -5.020   3.482  0.00  0.00    +0.112 C 
ATOM     35  C   UNL     1       9.611  -4.946   3.348  0.00  0.00    +0.175 C 
ATOM     36  O   UNL     1      10.155  -4.289   4.496  0.00  0.00    -0.377 OA
ATOM     37  C   UNL     1       9.652  -2.965   4.693  0.00  0.00    +0.175 C 
ATOM     38  C   UNL     1       8.130  -3.019   4.841  0.00  0.00    +0.112 C 
ENDBRANCH  32  33
ENDBRANCH  29  32
ENDBRANCH  28  29
ENDBRANCH  20  28
ENDBRANCH   1  20
TORSDOF 11
