REMARK  Name = ZINC57642125
REMARK  13 active torsions:
REMARK  status: ('A' for Active; 'I' for Inactive)
REMARK    1  A    between atoms: C_1  and  C_2
REMARK    2  A    between atoms: C_2  and  C_3
REMARK    3  A    between atoms: C_3  and  C_5
REMARK    4  A    between atoms: C_3  and  N_18
REMARK    5  A    between atoms: N_9  and  C_10
REMARK    6  A    between atoms: C_10  and  C_11
REMARK    7  A    between atoms: C_11  and  C_12
REMARK    8  A    between atoms: N_18  and  C_19
REMARK    9  A    between atoms: N_18  and  C_27
REMARK   10  A    between atoms: C_19  and  C_20
REMARK   11  A    between atoms: C_27  and  C_28
REMARK   12  A    between atoms: C_33  and  C_41
REMARK   13  A    between atoms: C_34  and  C_40
REMARK                            x       y       z     vdW  Elec       q    Type
REMARK                         _______ _______ _______ _____ _____    ______ ____
ROOT
ATOM      1  N   UNL     1      -2.477  -0.259  -0.205  0.00  0.00    -0.284 NA
ENDROOT
BRANCH   1   2
ATOM      2  C   UNL     1      -2.203  -1.000   1.033  0.00  0.00    +0.127 C 
BRANCH   2   3
ATOM      3  C   UNL     1      -3.458  -1.072   1.864  0.00  0.00    +0.168 A 
ATOM      4  N   UNL     1      -4.647  -1.443   1.455  0.00  0.00    -0.112 NA
ATOM      5  N   UNL     1      -5.453  -1.371   2.457  0.00  0.00    -0.023 NA
ATOM      6  N   UNL     1      -4.809  -0.963   3.495  0.00  0.00    -0.044 NA
ATOM      7  N   UNL     1      -3.575  -0.772   3.171  0.00  0.00    -0.227 N 
BRANCH   7   8
ATOM      8  C   UNL     1      -2.504  -0.313   4.058  0.00  0.00    +0.152 C 
BRANCH   8   9
ATOM      9  C   UNL     1      -2.630   1.197   4.271  0.00  0.00    +0.058 C 
BRANCH   9  10
ATOM     10  C   UNL     1      -1.620   1.645   5.295  0.00  0.00    -0.046 A 
ATOM     11  C   UNL     1      -1.897   1.513   6.643  0.00  0.00    +0.004 A 
ATOM     12  C   UNL     1      -0.971   1.925   7.583  0.00  0.00    +0.000 A 
ATOM     13  C   UNL     1       0.233   2.468   7.175  0.00  0.00    +0.000 A 
ATOM     14  C   UNL     1       0.510   2.600   5.828  0.00  0.00    +0.000 A 
ATOM     15  C   UNL     1      -0.414   2.184   4.888  0.00  0.00    +0.004 A 
ENDBRANCH   9  10
ENDBRANCH   8   9
ENDBRANCH   7   8
ENDBRANCH   2   3
BRANCH   2  17
ATOM     16  C   UNL     1      -0.416  -2.345  -0.079  0.00  0.00    +0.006 C 
ATOM     17  C   UNL     1      -1.737  -2.416   0.688  0.00  0.00    +0.023 C 
ENDBRANCH   2  17
ENDBRANCH   1   2
BRANCH   1  18
ATOM     18  C   UNL     1      -3.728  -0.715  -0.826  0.00  0.00    +0.120 C 
BRANCH  18  19
ATOM     19  C   UNL     1      -3.781  -0.240  -2.255  0.00  0.00    -0.033 A 
ATOM     20  C   UNL     1      -4.352   0.983  -2.556  0.00  0.00    +0.008 A 
ATOM     21  C   UNL     1      -4.401   1.419  -3.866  0.00  0.00    +0.038 A 
ATOM     22  C   UNL     1      -3.880   0.631  -4.878  0.00  0.00    +0.123 A 
ATOM     23  C   UNL     1      -3.309  -0.594  -4.576  0.00  0.00    +0.038 A 
ATOM     24  C   UNL     1      -3.256  -1.026  -3.264  0.00  0.00    +0.008 A 
ATOM     25  F   UNL     1      -3.928   1.057  -6.159  0.00  0.00    -0.205 F 
ENDBRANCH  18  19
ENDBRANCH   1  18
BRANCH   1  26
ATOM     26  C   UNL     1      -2.510   1.189   0.043  0.00  0.00    +0.126 C 
BRANCH  26  27
ATOM     27  C   UNL     1      -1.115   1.749  -0.066  0.00  0.00    +0.031 A 
ATOM     28  C   UNL     1      -0.696   2.294  -1.234  0.00  0.00    +0.020 A 
ATOM     29  C   UNL     1       0.665   2.830  -1.307  0.00  0.00    -0.001 A 
ATOM     30  C   UNL     1       1.154   3.404  -2.485  0.00  0.00    +0.010 A 
ATOM     31  C   UNL     1       2.428   3.896  -2.521  0.00  0.00    +0.004 A 
ATOM     32  C   UNL     1       3.242   3.831  -1.398  0.00  0.00    -0.046 A 
ATOM     33  C   UNL     1       2.781   3.269  -0.227  0.00  0.00    -0.024 A 
ATOM     34  C   UNL     1       1.487   2.763  -0.167  0.00  0.00    +0.052 A 
ATOM     35  N   UNL     1       1.000   2.196   0.992  0.00  0.00    -0.322 N 
ATOM     36  H   UNL     1       1.567   2.150   1.777  0.00  0.00    +0.169 HD
ATOM     37  C   UNL     1      -0.253   1.711   1.051  0.00  0.00    +0.254 A 
ATOM     38  O   UNL     1      -0.652   1.222   2.094  0.00  0.00    -0.268 OA
ATOM     39  C   UNL     1       3.676   3.204   0.984  0.00  0.00    +0.046 C 
ATOM     40  C   UNL     1       4.644   4.379  -1.460  0.00  0.00    +0.044 C 
ENDBRANCH  26  27
ENDBRANCH   1  26
TORSDOF 10
