REMARK  Name = ZINC26758510
REMARK  3 active torsions:
REMARK  status: ('A' for Active; 'I' for Inactive)
REMARK    1  A    between atoms: C_4  and  N_7
REMARK    2  A    between atoms: N_12  and  C_13
REMARK    3  A    between atoms: C_13  and  C_14
REMARK                            x       y       z     vdW  Elec       q    Type
REMARK                         _______ _______ _______ _____ _____    ______ ____
ROOT
ATOM      1  N   UNL     1       3.624  -0.652  -0.037  0.00  0.00    -0.181 N 
ATOM      2  C   UNL     1       3.918  -1.830   0.567  0.00  0.00    +0.240 A 
ATOM      3  N   UNL     1       5.175  -2.102   0.291  0.00  0.00    -0.092 NA
ATOM      4  N   UNL     1       5.685  -1.178  -0.440  0.00  0.00    -0.021 NA
ATOM      5  N   UNL     1       4.809  -0.266  -0.689  0.00  0.00    -0.038 NA
ATOM      6  N   UNL     1       3.058  -2.601   1.329  0.00  0.00    -0.312 N 
ATOM      7  H   UNL     1       2.144  -2.309   1.473  0.00  0.00    +0.149 HD
ENDROOT
BRANCH   1  11
ATOM      8  C   UNL     1      -0.017   1.379   0.010  0.00  0.00    +0.000 A 
ATOM      9  C   UNL     1       1.170   2.089   0.002  0.00  0.00    +0.002 A 
ATOM     10  C   UNL     1       2.377   1.419  -0.013  0.00  0.00    +0.028 A 
ATOM     11  C   UNL     1       2.399   0.031  -0.021  0.00  0.00    +0.071 A 
ATOM     12  C   UNL     1       1.207  -0.680  -0.013  0.00  0.00    +0.028 A 
ATOM     13  C   UNL     1       0.002  -0.004   0.002  0.00  0.00    +0.002 A 
ENDBRANCH   1  11
BRANCH   6  14
ATOM     14  C   UNL     1       3.528  -3.857   1.918  0.00  0.00    +0.111 C 
BRANCH  14  15
ATOM     15  C   UNL     1       2.389  -4.508   2.706  0.00  0.00    +0.048 C 
ATOM     16  C   UNL     1       2.845  -5.867   3.244  0.00  0.00    +0.047 C 
ATOM     17  C   UNL     1       1.848  -6.372   4.256  0.00  0.00    -0.005 A 
ATOM     18  C   UNL     1       1.856  -7.718   4.585  0.00  0.00    +0.007 A 
ATOM     19  C   UNL     1       0.959  -8.215   5.509  0.00  0.00    +0.000 A 
ATOM     20  C   UNL     1       0.047  -7.368   6.112  0.00  0.00    +0.004 A 
ATOM     21  C   UNL     1       0.033  -6.027   5.787  0.00  0.00    +0.046 A 
ATOM     22  C   UNL     1       0.934  -5.523   4.854  0.00  0.00    +0.124 A 
ATOM     23  O   UNL     1       0.882  -4.199   4.553  0.00  0.00    -0.491 OA
ATOM     24  C   UNL     1       2.011  -3.620   3.898  0.00  0.00    +0.234 C 
ENDBRANCH  14  15
ENDBRANCH   6  14
TORSDOF 3
