REMARK  Name = ZINC39678803
REMARK  11 active torsions:
REMARK  status: ('A' for Active; 'I' for Inactive)
REMARK    1  A    between atoms: C_1  and  C_2
REMARK    2  A    between atoms: C_2  and  C_3
REMARK    3  A    between atoms: C_2  and  O_4
REMARK    4  A    between atoms: O_4  and  C_5
REMARK    5  A    between atoms: C_5  and  C_7
REMARK    6  A    between atoms: C_7  and  N_8
REMARK    7  A    between atoms: C_9  and  C_11
REMARK    8  A    between atoms: C_22  and  C_24
REMARK    9  A    between atoms: C_30  and  O_32
REMARK   10  A    between atoms: O_32  and  C_33
REMARK   11  A    between atoms: C_33  and  C_34
REMARK                            x       y       z     vdW  Elec       q    Type
REMARK                         _______ _______ _______ _____ _____    ______ ____
ROOT
ATOM      1  C   UNL     1      -1.066  -1.955   6.873  0.00  0.00    +0.100 C 
ATOM      2  C   UNL     1      -2.173  -2.931   6.414  0.00  0.00    +0.121 C 
ATOM      3  N   UNL     1      -1.762  -4.247   6.957  0.00  0.00    -0.300 N 
ATOM      4  C   UNL     1      -1.222  -3.937   8.303  0.00  0.00    +0.115 C 
ATOM      5  C   UNL     1      -0.447  -2.618   8.116  0.00  0.00    -0.004 C 
ATOM      6  C   UNL     1      -0.626  -1.721   9.337  0.00  0.00    -0.010 C 
ATOM      7  C   UNL     1       0.049  -2.374  10.547  0.00  0.00    -0.082 C 
ATOM      8  N   UNL     1       1.476  -2.572  10.266  0.00  0.00    +0.379 N 
ATOM      9  C   UNL     1       1.640  -3.509   9.148  0.00  0.00    -0.082 C 
ATOM     10  C   UNL     1       1.033  -2.904   7.879  0.00  0.00    -0.010 C 
ATOM     11  C   UNL     1      -1.857  -5.452   6.363  0.00  0.00    +0.219 C 
ATOM     12  O   UNL     1      -1.474  -6.446   6.943  0.00  0.00    -0.275 OA
ATOM     13  H   UNL     1       1.896  -1.687  10.025  0.00  0.00    -0.086 HD
ATOM     14  H   UNL     1       1.930  -2.945  11.085  0.00  0.00    -0.086 HD
ENDROOT
BRANCH  11  15
ATOM     15  C   UNL     1      -2.441  -5.566   4.978  0.00  0.00    +0.078 C 
ATOM     16  C   UNL     1      -3.878  -5.040   4.986  0.00  0.00    +0.032 C 
ATOM     17  C   UNL     1      -4.456  -5.125   3.570  0.00  0.00    +0.112 C 
ATOM     18  N   UNL     1      -4.321  -6.505   3.085  0.00  0.00    -0.267 N 
ATOM     19  C   UNL     1      -2.995  -7.139   3.119  0.00  0.00    +0.112 C 
ATOM     20  C   UNL     1      -2.434  -7.032   4.540  0.00  0.00    +0.032 C 
ATOM     21  C   UNL     1      -5.392  -7.178   2.619  0.00  0.00    +0.403 C 
ATOM     22  O   UNL     1      -6.482  -6.643   2.596  0.00  0.00    -0.226 OA
BRANCH  21  23
ATOM     23  O   UNL     1      -5.253  -8.442   2.178  0.00  0.00    -0.445 OA
BRANCH  23  24
ATOM     24  C   UNL     1      -6.430  -9.095   1.698  0.00  0.00    +0.269 C 
BRANCH  24  25
ATOM     25  C   UNL     1      -6.083 -10.491   1.250  0.00  0.00    -0.010 A 
ATOM     26  C   UNL     1      -5.695 -10.722  -0.057  0.00  0.00    +0.007 A 
ATOM     27  C   UNL     1      -5.377 -12.003  -0.467  0.00  0.00    +0.000 A 
ATOM     28  C   UNL     1      -5.446 -13.053   0.429  0.00  0.00    +0.000 A 
ATOM     29  C   UNL     1      -5.833 -12.822   1.736  0.00  0.00    +0.000 A 
ATOM     30  C   UNL     1      -6.147 -11.541   2.147  0.00  0.00    +0.007 A 
ENDBRANCH  24  25
ENDBRANCH  23  24
ENDBRANCH  21  23
ENDBRANCH  11  15
BRANCH   1  32
ATOM     31  N   UNL     1       0.673  -0.646   5.699  0.00  0.00    -0.305 N 
ATOM     32  C   UNL     1      -0.029  -1.793   5.793  0.00  0.00    +0.219 C 
ATOM     33  O   UNL     1       0.175  -2.694   5.007  0.00  0.00    -0.275 OA
ATOM     34  H   UNL     1       0.510   0.075   6.327  0.00  0.00    +0.149 HD
BRANCH  31  35
ATOM     35  C   UNL     1       1.682  -0.488   4.649  0.00  0.00    +0.224 C 
BRANCH  35  36
ATOM     36  C   UNL     1       2.317   0.874   4.763  0.00  0.00    +0.325 C 
ATOM     37  O   UNL     1       1.963   1.634   5.633  0.00  0.00    -0.249 OA
BRANCH  36  38
ATOM     38  O   UNL     1       3.276   1.242   3.899  0.00  0.00    -0.461 OA
BRANCH  38  40
ATOM     39  C   UNL     1       5.037   2.470   5.008  0.00  0.00    +0.052 C 
ATOM     40  C   UNL     1       3.834   2.547   4.066  0.00  0.00    +0.170 C 
ATOM     41  C   UNL     1       4.284   3.087   2.707  0.00  0.00    +0.052 C 
ENDBRANCH  38  40
ENDBRANCH  36  38
ENDBRANCH  35  36
ENDBRANCH  31  35
ENDBRANCH   1  32
TORSDOF 9
