REMARK  Name = ZINC04690220
REMARK  3 active torsions:
REMARK  status: ('A' for Active; 'I' for Inactive)
REMARK    1  A    between atoms: C_2  and  C_21
REMARK    2  A    between atoms: N_7  and  C_8
REMARK    3  A    between atoms: C_8  and  C_17
REMARK                            x       y       z     vdW  Elec       q    Type
REMARK                         _______ _______ _______ _____ _____    ______ ____
ROOT
ATOM      1  C   UNL     1      -5.168   1.710  -0.725  0.00  0.00    +0.037 A 
ATOM      2  C   UNL     1      -4.679   2.527  -1.736  0.00  0.00    +0.072 A 
ATOM      3  C   UNL     1      -3.362   2.937  -1.696  0.00  0.00    +0.096 A 
ATOM      4  C   UNL     1      -2.994   1.786   0.270  0.00  0.00    +0.117 A 
ATOM      5  C   UNL     1      -4.311   1.335   0.294  0.00  0.00    +0.079 A 
ATOM      6 CL   UNL     1      -4.869   0.316   1.583  0.00  0.00    -0.080 Cl
ATOM      7  N   UNL     1      -2.120   1.417   1.287  0.00  0.00    -0.291 N 
ATOM      8  H   UNL     1      -2.429   0.847   2.009  0.00  0.00    +0.150 HD
ATOM      9  N   UNL     1      -2.492   2.593  -0.709  0.00  0.00    -0.348 N 
ATOM     10  H   UNL     1      -1.519   2.921  -0.700  0.00  0.00    +0.167 HD
ENDROOT
BRANCH   7  11
ATOM     11  C   UNL     1      -0.733   1.888   1.268  0.00  0.00    +0.301 C 
ATOM     12  C   UNL     1      -0.681   3.394   1.351  0.00  0.00    +0.276 C 
ATOM     13  O   UNL     1      -1.147   4.185   0.559  0.00  0.00    -0.270 OA
ATOM     14  N   UNL     1       0.003   3.687   2.507  0.00  0.00    -0.246 N 
ATOM     15  C   UNL     1       0.387   4.945   3.155  0.00  0.00    +0.127 C 
ATOM     16  C   UNL     1       1.162   4.773   4.467  0.00  0.00    +0.096 C 
ATOM     17  S   UNL     1       1.240   2.950   4.604  0.00  0.00    -0.089 S 
ATOM     18  C   UNL     1       0.360   2.509   3.117  0.00  0.00    +0.161 C 
ATOM     19  N   UNL     1      -0.022   1.444   2.473  0.00  0.00    -0.219 NA
BRANCH  11  20
ATOM     20  C   UNL     1      -0.017   1.395   0.010  0.00  0.00    +0.440 C 
ATOM     21  F   UNL     1       0.002  -0.004   0.002  0.00  0.00    -0.166 F 
ATOM     22  F   UNL     1       1.296   1.879  -0.000  0.00  0.00    -0.166 F 
ATOM     23  F   UNL     1      -0.694   1.858  -1.124  0.00  0.00    -0.166 F 
ENDBRANCH  11  20
ENDBRANCH   7  11
BRANCH   2  24
ATOM     24  C   UNL     1      -5.577   2.961  -2.866  0.00  0.00    +0.419 C 
ATOM     25  F   UNL     1      -6.209   4.162  -2.525  0.00  0.00    -0.166 F 
ATOM     26  F   UNL     1      -4.814   3.147  -4.023  0.00  0.00    -0.166 F 
ATOM     27  F   UNL     1      -6.543   1.976  -3.099  0.00  0.00    -0.166 F 
ENDBRANCH   2  24
TORSDOF 3
