REMARK  Name = ZINC09123659
REMARK  13 active torsions:
REMARK  status: ('A' for Active; 'I' for Inactive)
REMARK    1  A    between atoms: C_1  and  C_2
REMARK    2  A    between atoms: C_2  and  O_3
REMARK    3  A    between atoms: O_3  and  C_4
REMARK    4  A    between atoms: C_7  and  C_10
REMARK    5  A    between atoms: C_13  and  C_14
REMARK    6  A    between atoms: C_13  and  O_24
REMARK    7  A    between atoms: C_17  and  O_20
REMARK    8  A    between atoms: O_20  and  C_21
REMARK    9  A    between atoms: C_21  and  C_22
REMARK   10  A    between atoms: C_21  and  C_23
REMARK   11  A    between atoms: N_29  and  C_30
REMARK   12  A    between atoms: C_30  and  C_31
REMARK   13  A    between atoms: C_31  and  N_70
REMARK                            x       y       z     vdW  Elec       q    Type
REMARK                         _______ _______ _______ _____ _____    ______ ____
ROOT
ATOM      1  C   UNL     1       0.564   2.599  -0.759  0.00  0.00    +0.144 C 
ATOM      2  C   UNL     1      -0.936   2.778  -0.798  0.00  0.00    +0.071 C 
ATOM      3  C   UNL     1      -1.642   3.934  -0.525  0.00  0.00    +0.133 C 
ATOM      4  C   UNL     1      -1.468   1.535  -1.174  0.00  0.00    +0.249 C 
ATOM      5  O   UNL     1      -2.649   1.278  -1.319  0.00  0.00    -0.282 OA
ATOM      6  C   UNL     1      -0.339   0.585  -1.360  0.00  0.00    +0.288 C 
ATOM      7  O   UNL     1      -0.455  -0.579  -1.685  0.00  0.00    -0.266 OA
ATOM      8  N   UNL     1       0.830   1.204  -1.123  0.00  0.00    -0.285 N 
ENDROOT
BRANCH   1  12
ATOM      9  C   UNL     1       2.425   5.226  -3.570  0.00  0.00    +0.121 A 
ATOM     10  C   UNL     1       2.438   5.533  -2.217  0.00  0.00    +0.046 A 
ATOM     11  C   UNL     1       1.836   4.683  -1.310  0.00  0.00    +0.009 A 
ATOM     12  C   UNL     1       1.220   3.525  -1.750  0.00  0.00    -0.022 A 
ATOM     13  C   UNL     1       1.210   3.214  -3.097  0.00  0.00    +0.009 A 
ATOM     14  C   UNL     1       1.807   4.064  -4.008  0.00  0.00    +0.046 A 
BRANCH   9  15
ATOM     15  O   UNL     1       3.017   6.061  -4.463  0.00  0.00    -0.492 OA
BRANCH  15  17
ATOM     16  C   UNL     1       3.677   6.736  -6.688  0.00  0.00    +0.048 C 
ATOM     17  C   UNL     1       2.964   5.681  -5.840  0.00  0.00    +0.225 C 
ENDBRANCH  15  17
ENDBRANCH   9  15
ENDBRANCH   1  12
BRANCH   3  18
ATOM     18  C   UNL     1      -3.112   3.904  -0.475  0.00  0.00    +0.017 A 
ATOM     19  C   UNL     1      -3.858   4.841  -1.200  0.00  0.00    +0.015 A 
ATOM     20  C   UNL     1      -5.233   4.806  -1.154  0.00  0.00    +0.046 A 
ATOM     21  C   UNL     1      -5.881   3.848  -0.381  0.00  0.00    +0.121 A 
ATOM     22  C   UNL     1      -5.144   2.919   0.345  0.00  0.00    +0.046 A 
ATOM     23  C   UNL     1      -3.769   2.942   0.301  0.00  0.00    +0.015 A 
BRANCH  21  24
ATOM     24  O   UNL     1      -7.237   3.821  -0.334  0.00  0.00    -0.489 OA
BRANCH  24  25
ATOM     25  C   UNL     1      -7.837   2.876   0.554  0.00  0.00    +0.167 C 
ATOM     26  C   UNL     1      -9.222   3.375   0.970  0.00  0.00    +0.051 C 
ATOM     27  C   UNL     1      -7.972   1.526  -0.153  0.00  0.00    +0.051 C 
ENDBRANCH  24  25
ENDBRANCH  21  24
ENDBRANCH   3  18
BRANCH   3  28
ATOM     28  O   UNL     1      -0.982   5.091  -0.304  0.00  0.00    -0.506 OA
ATOM     29  H   UNL     1      -1.641   5.821  -0.123  0.00  0.00    +0.292 HD
ENDBRANCH   3  28
BRANCH   8  30
ATOM     30  C   UNL     1       2.155   0.586  -1.214  0.00  0.00    +0.090 C 
BRANCH  30  31
ATOM     31  C   UNL     1       2.697   0.749  -2.635  0.00  0.00    -0.059 C 
BRANCH  31  37
ATOM     32  C   UNL     1       5.003   0.855  -1.901  0.00  0.00    -0.050 C 
ATOM     33  C   UNL     1       6.356   0.142  -1.977  0.00  0.00    +0.141 C 
ATOM     34  O   UNL     1       6.764   0.051  -3.345  0.00  0.00    -0.383 OA
ATOM     35  C   UNL     1       5.836  -0.649  -4.177  0.00  0.00    +0.141 C 
ATOM     36  C   UNL     1       4.478   0.055  -4.123  0.00  0.00    -0.050 C 
ATOM     37  N   UNL     1       4.026   0.104  -2.717  0.00  0.00    +0.384 N 
ATOM     38  H   UNL     1       3.954  -0.854  -2.356  0.00  0.00    -0.082 HD
ENDBRANCH  31  37
ENDBRANCH  30  31
ENDBRANCH   8  30
TORSDOF 10
