REMARK  Name = ZINC35514052
REMARK  7 active torsions:
REMARK  status: ('A' for Active; 'I' for Inactive)
REMARK    1  A    between atoms: C_1  and  C_2
REMARK    2  A    between atoms: C_2  and  O_3
REMARK    3  A    between atoms: O_3  and  C_4
REMARK    4  A    between atoms: C_4  and  C_6
REMARK    5  A    between atoms: C_7  and  C_35
REMARK    6  A    between atoms: C_12  and  C_28
REMARK    7  A    between atoms: C_32  and  O_34
REMARK                            x       y       z     vdW  Elec       q    Type
REMARK                         _______ _______ _______ _____ _____    ______ ____
ROOT
ATOM      1  C   UNL     1      -2.840  -2.416   0.016  0.00  0.00    +0.120 A 
ATOM      2  C   UNL     1      -3.233  -3.748   0.018  0.00  0.00    +0.062 A 
ATOM      3  N   UNL     1      -4.522  -3.973   0.029  0.00  0.00    -0.229 NA
ATOM      4  C   UNL     1      -5.396  -2.982   0.036  0.00  0.00    +0.169 A 
ATOM      5  S   UNL     1      -4.430  -1.604   0.036  0.00  0.00    -0.045 S 
ATOM      6  N   UNL     1      -6.776  -3.059   0.047  0.00  0.00    -0.232 N 
ATOM      7  C   UNL     1      -7.706  -1.918   0.049  0.00  0.00    +0.152 C 
ATOM      8  C   UNL     1      -9.077  -2.510   0.064  0.00  0.00    +0.072 A 
ATOM      9  C   UNL     1     -10.401  -1.881   0.082  0.00  0.00    +0.199 A 
ATOM     10  O   UNL     1     -10.575  -0.687  -0.089  0.00  0.00    -0.287 OA
ATOM     11  C   UNL     1     -11.510  -2.837   0.328  0.00  0.00    +0.066 A 
ATOM     12  C   UNL     1     -12.802  -2.372   0.572  0.00  0.00    +0.035 A 
ATOM     13  C   UNL     1     -13.818  -3.273   0.803  0.00  0.00    +0.042 A 
ATOM     14  C   UNL     1     -13.554  -4.637   0.795  0.00  0.00    +0.023 A 
ATOM     15  C   UNL     1     -12.283  -5.107   0.555  0.00  0.00    +0.048 A 
ATOM     16  C   UNL     1     -11.238  -4.215   0.314  0.00  0.00    +0.140 A 
ATOM     17  O   UNL     1     -10.001  -4.705   0.070  0.00  0.00    -0.450 OA
ATOM     18  C   UNL     1      -8.943  -3.870   0.065  0.00  0.00    +0.199 A 
ATOM     19  C   UNL     1      -7.506  -4.193   0.051  0.00  0.00    +0.289 C 
ATOM     20  O   UNL     1      -7.046  -5.317   0.046  0.00  0.00    -0.266 OA
ATOM     21 CL   UNL     1     -15.430  -2.704   1.107  0.00  0.00    -0.084 Cl
ATOM     22  C   UNL     1      -2.231  -4.873   0.009  0.00  0.00    +0.067 C 
ENDROOT
BRANCH   7  23
ATOM     23  C   UNL     1      -7.511  -1.086  -1.192  0.00  0.00    -0.019 A 
ATOM     24  C   UNL     1      -7.261  -1.702  -2.405  0.00  0.00    +0.006 A 
ATOM     25  C   UNL     1      -7.081  -0.941  -3.545  0.00  0.00    +0.004 A 
ATOM     26  C   UNL     1      -7.152   0.437  -3.476  0.00  0.00    +0.045 A 
ATOM     27  C   UNL     1      -7.403   1.057  -2.261  0.00  0.00    +0.117 A 
ATOM     28  C   UNL     1      -7.588   0.291  -1.119  0.00  0.00    +0.051 A 
BRANCH  27  29
ATOM     29  O   UNL     1      -7.472   2.413  -2.190  0.00  0.00    -0.507 OA
ATOM     30  H   UNL     1      -8.360   2.769  -2.331  0.00  0.00    +0.292 HD
ENDBRANCH  27  29
ENDBRANCH   7  23
BRANCH   1  31
ATOM     31  C   UNL     1      -1.497  -1.839   0.006  0.00  0.00    +0.348 C 
ATOM     32  O   UNL     1      -0.522  -2.567  -0.007  0.00  0.00    -0.244 OA
BRANCH  31  33
ATOM     33  O   UNL     1      -1.339  -0.499   0.012  0.00  0.00    -0.461 OA
BRANCH  33  35
ATOM     34  C   UNL     1      -0.019   1.526   0.010  0.00  0.00    +0.048 C 
ATOM     35  C   UNL     1       0.002  -0.004   0.002  0.00  0.00    +0.229 C 
ENDBRANCH  33  35
ENDBRANCH  31  33
ENDBRANCH   1  31
TORSDOF 5
