REMARK  Name = ZINC22434969
REMARK  6 active torsions:
REMARK  status: ('A' for Active; 'I' for Inactive)
REMARK    1  A    between atoms: C_1  and  C_2
REMARK    2  A    between atoms: C_5  and  N_9
REMARK    3  A    between atoms: C_6  and  C_8
REMARK    4  A    between atoms: C_10  and  C_14
REMARK    5  A    between atoms: C_14  and  N_20
REMARK    6  A    between atoms: C_21  and  C_23
REMARK                            x       y       z     vdW  Elec       q    Type
REMARK                         _______ _______ _______ _____ _____    ______ ____
ROOT
ATOM      1  N   UNL     1       3.250  -1.847   2.530  0.00  0.00    -0.195 N 
ATOM      2  C   UNL     1       3.062  -0.516   2.396  0.00  0.00    +0.180 A 
ATOM      3  N   UNL     1       3.097   0.003   3.595  0.00  0.00    -0.111 NA
ATOM      4  N   UNL     1       3.284  -0.910   4.479  0.00  0.00    -0.023 NA
ATOM      5  N   UNL     1       3.391  -2.063   3.912  0.00  0.00    -0.039 NA
ENDROOT
BRANCH   1  10
ATOM      6  C   UNL     1       3.432  -5.735  -1.602  0.00  0.00    +0.044 C 
ATOM      7  C   UNL     1       3.384  -4.702  -0.505  0.00  0.00    -0.050 A 
ATOM      8  C   UNL     1       2.279  -3.880  -0.380  0.00  0.00    +0.005 A 
ATOM      9  C   UNL     1       2.230  -2.936   0.627  0.00  0.00    +0.028 A 
ATOM     10  C   UNL     1       3.295  -2.807   1.508  0.00  0.00    +0.072 A 
ATOM     11  C   UNL     1       4.402  -3.634   1.380  0.00  0.00    -0.025 A 
ATOM     12  C   UNL     1       4.444  -4.580   0.374  0.00  0.00    +0.008 A 
ATOM     13  C   UNL     1       5.558  -3.502   2.338  0.00  0.00    +0.046 C 
ENDBRANCH   1  10
BRANCH   2  14
ATOM     14  C   UNL     1       2.858   0.233   1.104  0.00  0.00    +0.096 C 
ATOM     15  C   UNL     1       1.360   0.374   0.828  0.00  0.00    +0.034 C 
ATOM     16  C   UNL     1       1.153   1.133  -0.484  0.00  0.00    +0.003 C 
ATOM     17  C   UNL     1       1.784   2.523  -0.374  0.00  0.00    +0.000 C 
ATOM     18  C   UNL     1       3.282   2.381  -0.098  0.00  0.00    +0.003 C 
ATOM     19  C   UNL     1       3.490   1.622   1.214  0.00  0.00    +0.034 C 
BRANCH  14  20
ATOM     20  N   UNL     1       3.490  -0.505   0.007  0.00  0.00    -0.303 N 
ATOM     21  C   UNL     1       4.825  -0.690  -0.001  0.00  0.00    +0.211 C 
ATOM     22  O   UNL     1       5.492  -0.328   0.945  0.00  0.00    -0.276 OA
ATOM     23  C   UNL     1       5.488  -1.345  -1.184  0.00  0.00    +0.109 C 
ATOM     24  H   UNL     1       2.874  -0.909  -0.810  0.00  0.00    +0.150 HD
ENDBRANCH  14  20
ENDBRANCH   2  14
TORSDOF 3
