REMARK  Name = ZINC54201900
REMARK  3 active torsions:
REMARK  status: ('A' for Active; 'I' for Inactive)
REMARK    1  A    between atoms: C_7  and  C_11
REMARK    2  A    between atoms: N_12  and  N_13
REMARK    3  A    between atoms: C_16  and  C_19
REMARK                            x       y       z     vdW  Elec       q    Type
REMARK                         _______ _______ _______ _____ _____    ______ ____
ROOT
ATOM      1  N   UNL     1      -1.115  -1.772   0.102  0.00  0.00    -0.215 N 
ATOM      2  C   UNL     1      -2.466  -1.569   0.325  0.00  0.00    +0.178 A 
ATOM      3  N   UNL     1      -3.146  -0.437   0.370  0.00  0.00    -0.224 NA
ATOM      4  C   UNL     1      -4.451  -0.428   0.597  0.00  0.00    +0.080 A 
ATOM      5  C   UNL     1      -5.107  -1.611   0.789  0.00  0.00    +0.077 A 
ATOM      6  S   UNL     1      -3.756  -2.771   0.621  0.00  0.00    -0.059 S 
ATOM      7  H   UNL     1      -0.529  -1.013  -0.045  0.00  0.00    +0.176 HD
ENDROOT
BRANCH   4   8
ATOM      8  C   UNL     1      -5.193   0.856   0.644  0.00  0.00    +0.001 A 
ATOM      9  C   UNL     1      -6.565   0.861   0.889  0.00  0.00    +0.011 A 
ATOM     10  C   UNL     1      -7.251   2.058   0.932  0.00  0.00    +0.016 A 
ATOM     11  C   UNL     1      -6.579   3.251   0.731  0.00  0.00    +0.018 A 
ATOM     12  C   UNL     1      -5.217   3.251   0.487  0.00  0.00    +0.016 A 
ATOM     13  C   UNL     1      -4.520   2.060   0.448  0.00  0.00    +0.011 A 
ATOM     14 BR   UNL     1      -7.526   4.887   0.791  0.00  0.00    -0.050 Br
ENDBRANCH   4   8
BRANCH   1  16
ATOM     15  C   UNL     1       0.687  -3.258  -0.015  0.00  0.00    +0.140 C 
ATOM     16  N   UNL     1      -0.595  -3.072   0.090  0.00  0.00    -0.188 NA
BRANCH  15  23
ATOM     17  C   UNL     1       5.003  -2.444  -1.613  0.00  0.00    +0.001 A 
ATOM     18  C   UNL     1       5.490  -1.203  -1.225  0.00  0.00    +0.002 A 
ATOM     19  C   UNL     1       4.724  -0.358  -0.453  0.00  0.00    +0.026 A 
ATOM     20  C   UNL     1       3.449  -0.751  -0.056  0.00  0.00    +0.047 A 
ATOM     21  C   UNL     1       2.962  -2.007  -0.451  0.00  0.00    +0.008 A 
ATOM     22  C   UNL     1       3.753  -2.847  -1.233  0.00  0.00    +0.010 A 
ATOM     23  C   UNL     1       1.609  -2.118   0.121  0.00  0.00    +0.020 A 
ATOM     24  C   UNL     1       1.379  -0.963   0.800  0.00  0.00    +0.093 A 
ATOM     25  N   UNL     1       2.467  -0.145   0.699  0.00  0.00    -0.360 N 
ATOM     26  H   UNL     1       2.539   0.734   1.101  0.00  0.00    +0.165 HD
ENDBRANCH  15  23
ENDBRANCH   1  16
TORSDOF 3
