REMARK  Name = ZINC16739748
REMARK  9 active torsions:
REMARK  status: ('A' for Active; 'I' for Inactive)
REMARK    1  A    between atoms: C_1  and  C_2
REMARK    2  A    between atoms: C_5  and  N_8
REMARK    3  A    between atoms: C_11  and  C_28
REMARK    4  A    between atoms: C_15  and  C_16
REMARK    5  A    between atoms: C_15  and  C_18
REMARK    6  A    between atoms: N_20  and  C_21
REMARK    7  A    between atoms: C_21  and  C_22
REMARK    8  A    between atoms: C_28  and  C_29
REMARK    9  A    between atoms: C_33  and  N_35
REMARK                            x       y       z     vdW  Elec       q    Type
REMARK                         _______ _______ _______ _____ _____    ______ ____
ROOT
ATOM      1  N   UNL     1       5.195   4.731  -2.463  0.00  0.00    -0.232 N 
ATOM      2  C   UNL     1       5.247   3.676  -1.668  0.00  0.00    +0.238 C 
ATOM      3  O   UNL     1       6.274   3.325  -1.127  0.00  0.00    -0.274 OA
ATOM      4  C   UNL     1       3.936   2.930  -1.473  0.00  0.00    +0.143 C 
ATOM      5  S   UNL     1       2.824   3.943  -2.526  0.00  0.00    -0.095 S 
ATOM      6  C   UNL     1       4.035   5.135  -3.078  0.00  0.00    +0.098 C 
ATOM      7  C   UNL     1       3.847   6.221  -3.934  0.00  0.00    +0.141 C 
ENDROOT
BRANCH   1  12
ATOM      8  C   UNL     1       9.944   7.703  -3.369  0.00  0.00    +0.044 C 
ATOM      9  C   UNL     1       8.682   6.913  -3.129  0.00  0.00    -0.050 A 
ATOM     10  C   UNL     1       7.657   7.462  -2.381  0.00  0.00    +0.005 A 
ATOM     11  C   UNL     1       6.500   6.742  -2.158  0.00  0.00    +0.024 A 
ATOM     12  C   UNL     1       6.367   5.464  -2.687  0.00  0.00    +0.042 A 
ATOM     13  C   UNL     1       7.401   4.914  -3.432  0.00  0.00    +0.024 A 
ATOM     14  C   UNL     1       8.553   5.641  -3.656  0.00  0.00    +0.005 A 
ENDBRANCH   1  12
BRANCH   7  15
ATOM     15  C   UNL     1       5.000   6.973  -4.425  0.00  0.00    +0.257 C 
ATOM     16  O   UNL     1       5.296   8.038  -3.913  0.00  0.00    -0.269 OA
ATOM     17  N   UNL     1       5.737   6.488  -5.444  0.00  0.00    -0.307 N 
ATOM     18  H   UNL     1       5.543   5.610  -5.808  0.00  0.00    +0.149 HD
BRANCH  17  19
ATOM     19  C   UNL     1       6.830   7.287  -6.003  0.00  0.00    +0.139 C 
BRANCH  19  20
ATOM     20  C   UNL     1       7.381   6.600  -7.225  0.00  0.00    -0.030 A 
ATOM     21  C   UNL     1       8.351   5.624  -7.091  0.00  0.00    +0.005 A 
ATOM     22  C   UNL     1       8.853   4.990  -8.212  0.00  0.00    +0.000 A 
ATOM     23  C   UNL     1       8.392   5.338  -9.468  0.00  0.00    +0.000 A 
ATOM     24  C   UNL     1       7.426   6.318  -9.602  0.00  0.00    +0.000 A 
ATOM     25  C   UNL     1       6.921   6.949  -8.481  0.00  0.00    +0.005 A 
ENDBRANCH  19  20
ENDBRANCH  17  19
ENDBRANCH   7  15
BRANCH   7  26
ATOM     26  C   UNL     1       2.524   6.599  -4.331  0.00  0.00    +0.107 C 
ATOM     27  N   UNL     1       1.474   6.899  -4.646  0.00  0.00    -0.191 NA
ENDBRANCH   7  26
BRANCH   4  28
ATOM     28  C   UNL     1       3.493   2.960  -0.009  0.00  0.00    +0.059 C 
BRANCH  28  29
ATOM     29  C   UNL     1       2.260   2.109   0.160  0.00  0.00    -0.044 A 
ATOM     30  C   UNL     1       1.006   2.672   0.010  0.00  0.00    +0.004 A 
ATOM     31  C   UNL     1      -0.124   1.892   0.166  0.00  0.00    +0.002 A 
ATOM     32  C   UNL     1      -0.001   0.549   0.472  0.00  0.00    +0.033 A 
ATOM     33  C   UNL     1       1.253  -0.013   0.622  0.00  0.00    +0.126 A 
ATOM     34  C   UNL     1       2.384   0.767   0.466  0.00  0.00    +0.036 A 
BRANCH  33  35
ATOM     35  N   UNL     1       1.385  -1.451   0.950  0.00  0.00    +0.056 N 
ATOM     36  O   UNL     1       0.389  -2.138   1.087  0.00  0.00    -0.126 OA
ATOM     37  O   UNL     1       2.490  -1.946   1.082  0.00  0.00    -0.126 OA
ENDBRANCH  33  35
ENDBRANCH  28  29
ENDBRANCH   4  28
TORSDOF 8
