REMARK  Name = ZINC01890283
REMARK  4 active torsions:
REMARK  status: ('A' for Active; 'I' for Inactive)
REMARK    1  A    between atoms: C_12  and  C_36
REMARK    2  A    between atoms: C_14  and  C_26
REMARK    3  A    between atoms: C_26  and  C_28
REMARK    4  A    between atoms: C_36  and  C_38
REMARK                            x       y       z     vdW  Elec       q    Type
REMARK                         _______ _______ _______ _____ _____    ______ ____
ROOT
ATOM      1  C   UNL     1       0.114   1.635  -0.140  0.00  0.00    +0.001 A 
ATOM      2  C   UNL     1       1.327   2.303  -0.145  0.00  0.00    +0.002 A 
ATOM      3  C   UNL     1       2.517   1.596  -0.119  0.00  0.00    +0.024 A 
ATOM      4  C   UNL     1       2.489   0.219  -0.093  0.00  0.00    +0.038 A 
ATOM      5  C   UNL     1       1.258  -0.470  -0.102  0.00  0.00    -0.004 A 
ATOM      6  C   UNL     1       0.072   0.254  -0.117  0.00  0.00    +0.010 A 
ATOM      7  C   UNL     1       1.274  -1.945  -0.120  0.00  0.00    +0.007 C 
ATOM      8  C   UNL     1       2.369  -2.625   0.207  0.00  0.00    -0.003 C 
ATOM      9  C   UNL     1       3.625  -1.903   0.612  0.00  0.00    +0.117 C 
ATOM     10  N   UNL     1       3.626  -0.577  -0.046  0.00  0.00    -0.311 N 
ATOM     11  C   UNL     1       4.946  -0.359  -0.643  0.00  0.00    +0.158 C 
ATOM     12  C   UNL     1       5.406  -1.789  -1.046  0.00  0.00    +0.110 C 
ATOM     13  C   UNL     1       4.879  -2.638   0.143  0.00  0.00    +0.108 C 
ATOM     14  C   UNL     1       5.897  -2.789   1.220  0.00  0.00    -0.008 A 
ATOM     15  C   UNL     1       6.561  -1.865   1.998  0.00  0.00    +0.006 A 
ATOM     16  C   UNL     1       7.468  -2.357   2.930  0.00  0.00    +0.000 A 
ATOM     17  C   UNL     1       7.693  -3.711   3.068  0.00  0.00    +0.002 A 
ATOM     18  C   UNL     1       7.030  -4.648   2.291  0.00  0.00    +0.023 A 
ATOM     19  C   UNL     1       6.117  -4.167   1.352  0.00  0.00    +0.038 A 
ATOM     20  N   UNL     1       5.327  -4.869   0.457  0.00  0.00    -0.284 N 
ATOM     21  C   UNL     1       4.564  -4.046  -0.297  0.00  0.00    +0.231 C 
ATOM     22  O   UNL     1       3.778  -4.376  -1.159  0.00  0.00    -0.274 OA
ATOM     23  H   UNL     1       5.322  -5.835   0.379  0.00  0.00    +0.155 HD
ENDROOT
BRANCH  12  24
ATOM     24  C   UNL     1       4.766  -2.216  -2.343  0.00  0.00    +0.171 C 
ATOM     25  O   UNL     1       3.648  -1.837  -2.621  0.00  0.00    -0.292 OA
BRANCH  24  26
ATOM     26  C   UNL     1       5.498  -3.090  -3.270  0.00  0.00    +0.036 A 
ATOM     27  C   UNL     1       6.787  -3.534  -2.950  0.00  0.00    +0.014 A 
ATOM     28  C   UNL     1       7.466  -4.353  -3.825  0.00  0.00    +0.021 A 
ATOM     29  C   UNL     1       6.878  -4.739  -5.019  0.00  0.00    +0.042 A 
ATOM     30  C   UNL     1       5.604  -4.305  -5.344  0.00  0.00    +0.040 A 
ATOM     31  C   UNL     1       4.908  -3.489  -4.476  0.00  0.00    +0.053 A 
ATOM     32 CL   UNL     1       3.308  -2.951  -4.881  0.00  0.00    -0.083 Cl
ATOM     33 CL   UNL     1       7.744  -5.771  -6.114  0.00  0.00    -0.083 Cl
ENDBRANCH  24  26
ENDBRANCH  12  24
BRANCH  11  34
ATOM     34  C   UNL     1       4.840   0.529  -1.856  0.00  0.00    +0.191 C 
ATOM     35  O   UNL     1       3.754   0.752  -2.352  0.00  0.00    -0.289 OA
BRANCH  34  36
ATOM     36  C   UNL     1       6.003   1.102  -2.416  0.00  0.00    +0.056 A 
ATOM     37  C   UNL     1       6.124   1.944  -3.517  0.00  0.00    +0.019 A 
ATOM     38  C   UNL     1       7.400   2.342  -3.825  0.00  0.00    +0.008 A 
ATOM     39  C   UNL     1       8.432   1.902  -3.059  0.00  0.00    +0.046 A 
ATOM     40  S   UNL     1       7.700   0.940  -1.892  0.00  0.00    -0.094 S 
ENDBRANCH  34  36
ENDBRANCH  11  34
TORSDOF 4
