REMARK  Name = ZINC39965308
REMARK  12 active torsions:
REMARK  status: ('A' for Active; 'I' for Inactive)
REMARK    1  A    between atoms: C_1  and  C_2
REMARK    2  A    between atoms: C_2  and  O_3
REMARK    3  A    between atoms: O_3  and  C_4
REMARK    4  A    between atoms: C_4  and  C_6
REMARK    5  A    between atoms: C_10  and  N_11
REMARK    6  A    between atoms: C_12  and  C_14
REMARK    7  A    between atoms: C_14  and  N_15
REMARK    8  A    between atoms: N_18  and  C_21
REMARK    9  A    between atoms: C_21  and  C_22
REMARK   10  A    between atoms: C_23  and  C_29
REMARK   11  A    between atoms: N_25  and  C_28
REMARK   12  A    between atoms: C_26  and  C_27
REMARK                            x       y       z     vdW  Elec       q    Type
REMARK                         _______ _______ _______ _____ _____    ______ ____
ROOT
ATOM      1  N   UNL     1      -0.603  -2.454  -3.921  0.00  0.00    -0.278 N 
ATOM      2  C   UNL     1      -1.118  -2.781  -5.122  0.00  0.00    +0.232 C 
ATOM      3  O   UNL     1      -0.397  -3.224  -5.991  0.00  0.00    -0.274 OA
ATOM      4  H   UNL     1      -1.180  -2.100  -3.226  0.00  0.00    +0.155 HD
ENDROOT
BRANCH   1   9
ATOM      5  C   UNL     1       1.449  -2.344  -2.516  0.00  0.00    +0.091 A 
ATOM      6  C   UNL     1       2.885  -2.621  -2.515  0.00  0.00    -0.021 A 
ATOM      7  C   UNL     1       3.349  -3.116  -3.676  0.00  0.00    -0.004 A 
ATOM      8  S   UNL     1       1.922  -3.210  -4.726  0.00  0.00    -0.077 S 
ATOM      9  C   UNL     1       0.751  -2.623  -3.678  0.00  0.00    +0.086 A 
ATOM     10  C   UNL     1       4.830  -3.378  -3.621  0.00  0.00    +0.043 C 
ATOM     11  C   UNL     1       5.324  -2.577  -2.396  0.00  0.00    +0.010 C 
ATOM     12  C   UNL     1       4.048  -2.505  -1.532  0.00  0.00    +0.037 C 
BRANCH   5  13
ATOM     13  C   UNL     1       0.776  -1.800  -1.335  0.00  0.00    +0.342 C 
ATOM     14  O   UNL     1       0.312  -2.552  -0.499  0.00  0.00    -0.245 OA
BRANCH  13  15
ATOM     15  O   UNL     1       0.671  -0.465  -1.174  0.00  0.00    -0.461 OA
BRANCH  15  17
ATOM     16  C   UNL     1      -0.019   1.526   0.010  0.00  0.00    +0.048 C 
ATOM     17  C   UNL     1       0.002  -0.004   0.002  0.00  0.00    +0.229 C 
ENDBRANCH  15  17
ENDBRANCH  13  15
ENDBRANCH   5  13
ENDBRANCH   1   9
BRANCH   2  18
ATOM     18  C   UNL     1      -2.590  -2.597  -5.387  0.00  0.00    +0.180 C 
BRANCH  18  19
ATOM     19  N   UNL     1      -2.899  -3.023  -6.758  0.00  0.00    -0.298 NA
ATOM     20  C   UNL     1      -2.698  -4.471  -6.918  0.00  0.00    +0.066 C 
ATOM     21  C   UNL     1      -2.972  -4.863  -8.371  0.00  0.00    -0.063 C 
ATOM     22  N   UNL     1      -4.350  -4.501  -8.725  0.00  0.00    +0.384 N 
ATOM     23  C   UNL     1      -4.528  -3.049  -8.585  0.00  0.00    -0.063 C 
ATOM     24  C   UNL     1      -4.268  -2.642  -7.133  0.00  0.00    +0.066 C 
ATOM     25  H   UNL     1      -4.992  -4.979  -8.111  0.00  0.00    -0.081 HD
BRANCH  22  26
ATOM     26  C   UNL     1      -4.618  -4.894 -10.115  0.00  0.00    -0.039 C 
BRANCH  26  27
ATOM     27  C   UNL     1      -6.067  -4.635 -10.440  0.00  0.00    -0.021 A 
ATOM     28  C   UNL     1      -7.123  -5.535 -10.266  0.00  0.00    +0.062 A 
ATOM     29  N   UNL     1      -8.226  -4.951 -10.659  0.00  0.00    -0.176 NA
ATOM     30  N   UNL     1      -7.906  -3.659 -11.097  0.00  0.00    -0.271 N 
ATOM     31  C   UNL     1      -6.576  -3.488 -10.947  0.00  0.00    +0.037 A 
ATOM     32  C   UNL     1      -5.797  -2.244 -11.288  0.00  0.00    +0.065 C 
ATOM     33  C   UNL     1      -8.850  -2.668 -11.619  0.00  0.00    +0.172 C 
ATOM     34  C   UNL     1      -7.011  -6.934  -9.719  0.00  0.00    +0.068 C 
ENDBRANCH  26  27
ENDBRANCH  22  26
ENDBRANCH  18  19
ENDBRANCH   2  18
TORSDOF 8
