REMARK  Name = ZINC09587072
REMARK  9 active torsions:
REMARK  status: ('A' for Active; 'I' for Inactive)
REMARK    1  A    between atoms: C_1  and  C_2
REMARK    2  A    between atoms: C_2  and  C_3
REMARK    3  A    between atoms: C_2  and  C_4
REMARK    4  A    between atoms: C_2  and  N_55
REMARK    5  A    between atoms: C_4  and  N_5
REMARK    6  A    between atoms: C_6  and  C_8
REMARK    7  A    between atoms: C_11  and  N_14
REMARK    8  A    between atoms: N_14  and  S_15
REMARK    9  A    between atoms: S_15  and  C_18
REMARK                            x       y       z     vdW  Elec       q    Type
REMARK                         _______ _______ _______ _____ _____    ______ ____
ROOT
ATOM      1  C   UNL     1       0.710   1.933  -0.117  0.00  0.00    +0.037 A 
ATOM      2  C   UNL     1       0.584   3.272   0.265  0.00  0.00    +0.015 A 
ATOM      3  C   UNL     1      -0.638   3.759   0.669  0.00  0.00    +0.025 A 
ATOM      4  C   UNL     1      -1.746   2.917   0.709  0.00  0.00    +0.048 A 
ATOM      5  C   UNL     1      -1.623   1.582   0.335  0.00  0.00    +0.025 A 
ATOM      6  C   UNL     1      -0.405   1.090  -0.076  0.00  0.00    +0.015 A 
ENDROOT
BRANCH   1   8
ATOM      7  N   UNL     1       3.089   2.224  -0.600  0.00  0.00    -0.313 N 
ATOM      8  C   UNL     1       2.017   1.409  -0.556  0.00  0.00    +0.244 C 
ATOM      9  O   UNL     1       2.126   0.243  -0.883  0.00  0.00    -0.270 OA
ATOM     10  H   UNL     1       3.002   3.154  -0.339  0.00  0.00    +0.149 HD
BRANCH   7  11
ATOM     11  C   UNL     1       4.386   1.705  -1.042  0.00  0.00    +0.092 C 
BRANCH  11  13
ATOM     12  C   UNL     1       5.599   3.441   0.283  0.00  0.00    -0.008 C 
ATOM     13  C   UNL     1       5.396   2.852  -1.114  0.00  0.00    -0.055 C 
ATOM     14  C   UNL     1       6.731   2.323  -1.643  0.00  0.00    -0.008 C 
BRANCH  13  20
ATOM     15  C   UNL     1       4.529   3.329  -3.323  0.00  0.00    -0.078 C 
ATOM     16  C   UNL     1       3.873   4.410  -4.184  0.00  0.00    -0.019 C 
ATOM     17  C   UNL     1       4.851   5.575  -4.365  0.00  0.00    -0.004 C 
ATOM     18  C   UNL     1       5.249   6.114  -2.988  0.00  0.00    -0.019 C 
ATOM     19  C   UNL     1       5.865   4.983  -2.162  0.00  0.00    -0.078 C 
ATOM     20  N   UNL     1       4.866   3.905  -2.004  0.00  0.00    +0.384 N 
ATOM     21  H   UNL     1       4.015   4.298  -1.585  0.00  0.00    -0.081 HD
ENDBRANCH  13  20
ENDBRANCH  11  13
ENDBRANCH   7  11
ENDBRANCH   1   8
BRANCH   4  22
ATOM     22  N   UNL     1      -2.978   3.411   1.123  0.00  0.00    -0.216 N 
ATOM     23  H   UNL     1      -3.778   3.209   0.613  0.00  0.00    +0.174 HD
BRANCH  22  24
ATOM     24  S   UNL     1      -3.080   4.345   2.486  0.00  0.00    +0.074 S 
ATOM     25  O   UNL     1      -2.123   5.386   2.338  0.00  0.00    -0.150 OA
ATOM     26  O   UNL     1      -4.461   4.604   2.699  0.00  0.00    -0.150 OA
BRANCH  24  27
ATOM     27  C   UNL     1      -2.539   3.353   3.839  0.00  0.00    +0.135 A 
ATOM     28  C   UNL     1      -1.384   3.675   4.528  0.00  0.00    +0.058 A 
ATOM     29  C   UNL     1      -1.000   2.893   5.567  0.00  0.00    +0.081 A 
ATOM     30  S   UNL     1      -2.280   1.650   5.588  0.00  0.00    -0.063 S 
ATOM     31  C   UNL     1      -3.246   2.259   4.216  0.00  0.00    +0.106 A 
ATOM     32 CL   UNL     1      -4.711   1.618   3.540  0.00  0.00    -0.074 Cl
ATOM     33 CL   UNL     1       0.384   3.056   6.604  0.00  0.00    -0.076 Cl
ENDBRANCH  24  27
ENDBRANCH  22  24
ENDBRANCH   4  22
TORSDOF 7
