REMARK  Name = ZINC49542074
REMARK  8 active torsions:
REMARK  status: ('A' for Active; 'I' for Inactive)
REMARK    1  A    between atoms: C_1  and  C_2
REMARK    2  A    between atoms: C_2  and  C_4
REMARK    3  A    between atoms: C_2  and  O_20
REMARK    4  A    between atoms: C_9  and  N_10
REMARK    5  A    between atoms: N_10  and  C_11
REMARK    6  A    between atoms: C_11  and  C_12
REMARK    7  A    between atoms: C_15  and  O_19
REMARK    8  A    between atoms: C_17  and  O_18
REMARK                            x       y       z     vdW  Elec       q    Type
REMARK                         _______ _______ _______ _____ _____    ______ ____
ROOT
ATOM      1  N   UNL     1       2.834  -0.270   0.062  0.00  0.00    -0.339 N 
ATOM      2  H   UNL     1       2.366   0.052  -0.725  0.00  0.00    +0.146 HD
ENDROOT
BRANCH   1   8
ATOM      3  C   UNL     1       0.731  -0.503   1.223  0.00  0.00    +0.001 A 
ATOM      4  C   UNL     1       0.023  -0.853   2.356  0.00  0.00    +0.008 A 
ATOM      5  C   UNL     1       0.691  -1.311   3.477  0.00  0.00    +0.000 A 
ATOM      6  C   UNL     1       2.070  -1.420   3.467  0.00  0.00    +0.002 A 
ATOM      7  C   UNL     1       2.784  -1.073   2.338  0.00  0.00    +0.023 A 
ATOM      8  C   UNL     1       2.115  -0.617   1.208  0.00  0.00    +0.033 A 
BRANCH   3  10
ATOM      9  C   UNL     1      -0.019   1.526   0.010  0.00  0.00    +0.043 C 
ATOM     10  C   UNL     1       0.002  -0.004   0.002  0.00  0.00    +0.143 C 
BRANCH  10  11
ATOM     11  O   UNL     1      -1.339  -0.499   0.012  0.00  0.00    -0.387 OA
ATOM     12  H   UNL     1      -1.868  -0.216  -0.746  0.00  0.00    +0.210 HD
ENDBRANCH  10  11
ENDBRANCH   3  10
ENDBRANCH   1   8
BRANCH   1  13
ATOM     13  C   UNL     1       4.294  -0.391   0.048  0.00  0.00    +0.140 C 
BRANCH  13  14
ATOM     14  C   UNL     1       4.821   0.044  -1.295  0.00  0.00    +0.011 A 
ATOM     15  C   UNL     1       5.156  -0.903  -2.244  0.00  0.00    +0.012 A 
ATOM     16  C   UNL     1       5.640  -0.508  -3.477  0.00  0.00    +0.046 A 
ATOM     17  C   UNL     1       5.790   0.842  -3.764  0.00  0.00    +0.120 A 
ATOM     18  C   UNL     1       5.455   1.793  -2.813  0.00  0.00    +0.091 A 
ATOM     19  C   UNL     1       4.965   1.394  -1.579  0.00  0.00    +0.125 A 
BRANCH  19  20
ATOM     20  O   UNL     1       4.630   2.325  -0.647  0.00  0.00    -0.506 OA
ATOM     21  H   UNL     1       5.357   2.573  -0.061  0.00  0.00    +0.292 HD
ENDBRANCH  19  20
BRANCH  17  22
ATOM     22  O   UNL     1       6.267   1.230  -4.976  0.00  0.00    -0.507 OA
ATOM     23  H   UNL     1       5.580   1.367  -5.643  0.00  0.00    +0.292 HD
ENDBRANCH  17  22
ENDBRANCH  13  14
ENDBRANCH   1  13
TORSDOF 7
