REMARK  Name = ZINC09579984
REMARK  5 active torsions:
REMARK  status: ('A' for Active; 'I' for Inactive)
REMARK    1  A    between atoms: C_3  and  C_6
REMARK    2  A    between atoms: C_9  and  C_29
REMARK    3  A    between atoms: C_12  and  C_14
REMARK    4  A    between atoms: C_14  and  N_15
REMARK    5  A    between atoms: C_21  and  N_26
REMARK                            x       y       z     vdW  Elec       q    Type
REMARK                         _______ _______ _______ _____ _____    ______ ____
ROOT
ATOM      1  C   UNL     1      -2.522   1.240   0.021  0.00  0.00    +0.173 C 
ATOM      2  C   UNL     1      -3.487   2.442   0.033  0.00  0.00    +0.090 C 
ATOM      3  C   UNL     1      -2.571   3.645   0.035  0.00  0.00    +0.069 C 
ATOM      4  N   UNL     1      -1.345   3.252   0.032  0.00  0.00    -0.181 NA
ATOM      5  N   UNL     1      -1.191   1.867   0.018  0.00  0.00    -0.181 N 
ATOM      6  C   UNL     1      -0.014   1.209   0.009  0.00  0.00    +0.253 C 
ATOM      7  O   UNL     1       0.002  -0.004   0.002  0.00  0.00    -0.272 OA
ENDROOT
BRANCH   3   8
ATOM      8  C   UNL     1      -3.014   5.051   0.046  0.00  0.00    -0.002 A 
ATOM      9  C   UNL     1      -4.377   5.358   0.049  0.00  0.00    +0.011 A 
ATOM     10  C   UNL     1      -4.784   6.676   0.063  0.00  0.00    +0.020 A 
ATOM     11  C   UNL     1      -3.845   7.694   0.065  0.00  0.00    +0.041 A 
ATOM     12  C   UNL     1      -2.493   7.397   0.057  0.00  0.00    +0.020 A 
ATOM     13  C   UNL     1      -2.072   6.083   0.048  0.00  0.00    +0.011 A 
ATOM     14 CL   UNL     1      -4.366   9.350   0.076  0.00  0.00    -0.084 Cl
ENDBRANCH   3   8
BRANCH   1  17
ATOM     15  C   UNL     1      -3.280  -1.223   2.655  0.00  0.00    +0.041 A 
ATOM     16  C   UNL     1      -3.339  -0.790   1.311  0.00  0.00    +0.046 A 
ATOM     17  C   UNL     1      -2.709   0.397   1.256  0.00  0.00    +0.128 A 
ATOM     18  O   UNL     1      -2.270   0.702   2.488  0.00  0.00    -0.466 OA
ATOM     19  C   UNL     1      -2.619  -0.275   3.342  0.00  0.00    +0.195 A 
ENDBRANCH   1  17
BRANCH   6  20
ATOM     20  C   UNL     1       1.280   1.980   0.001  0.00  0.00    +0.214 C 
BRANCH  20  21
ATOM     21  N   UNL     1       2.407   1.043  -0.015  0.00  0.00    -0.225 N 
ATOM     22  C   UNL     1       3.006   0.555   1.086  0.00  0.00    +0.254 C 
ATOM     23  O   UNL     1       2.704   0.817   2.232  0.00  0.00    -0.270 OA
ATOM     24  C   UNL     1       4.092  -0.356   0.666  0.00  0.00    +0.050 A 
ATOM     25  C   UNL     1       5.023  -1.128   1.342  0.00  0.00    +0.016 A 
ATOM     26  C   UNL     1       5.935  -1.888   0.626  0.00  0.00    +0.033 A 
ATOM     27  C   UNL     1       5.922  -1.880  -0.756  0.00  0.00    +0.127 A 
ATOM     28  C   UNL     1       4.996  -1.113  -1.446  0.00  0.00    +0.046 A 
ATOM     29  C   UNL     1       4.078  -0.348  -0.744  0.00  0.00    +0.052 A 
ATOM     30  C   UNL     1       2.981   0.563  -1.133  0.00  0.00    +0.254 C 
ATOM     31  O   UNL     1       2.654   0.832  -2.271  0.00  0.00    -0.270 OA
BRANCH  27  32
ATOM     32  N   UNL     1       6.903  -2.698  -1.504  0.00  0.00    +0.056 N 
ATOM     33  O   UNL     1       6.895  -2.695  -2.722  0.00  0.00    -0.126 OA
ATOM     34  O   UNL     1       7.718  -3.374  -0.903  0.00  0.00    -0.126 OA
ENDBRANCH  27  32
ENDBRANCH  20  21
ENDBRANCH   6  20
TORSDOF 5
