REMARK  Name = ZINC63479087
REMARK  4 active torsions:
REMARK  status: ('A' for Active; 'I' for Inactive)
REMARK    1  A    between atoms: C_10  and  C_16
REMARK    2  A    between atoms: N_18  and  C_19
REMARK    3  A    between atoms: C_19  and  C_20
REMARK    4  A    between atoms: C_20  and  C_21
REMARK                            x       y       z     vdW  Elec       q    Type
REMARK                         _______ _______ _______ _____ _____    ______ ____
ROOT
ATOM      1  C   UNL     1      -0.016   1.359   0.009  0.00  0.00    +0.001 A 
ATOM      2  C   UNL     1       1.170   2.086   0.002  0.00  0.00    +0.002 A 
ATOM      3  C   UNL     1       2.378   1.455  -0.013  0.00  0.00    +0.024 A 
ATOM      4  C   UNL     1       2.439   0.052  -0.021  0.00  0.00    +0.042 A 
ATOM      5  N   UNL     1       3.627  -0.568  -0.036  0.00  0.00    -0.281 N 
ATOM      6  C   UNL     1       3.773  -1.877  -0.045  0.00  0.00    +0.249 C 
ATOM      7  O   UNL     1       4.895  -2.361  -0.059  0.00  0.00    -0.270 OA
ATOM      8  C   UNL     1       2.576  -2.777  -0.038  0.00  0.00    +0.049 C 
ATOM      9  C   UNL     1       2.566  -4.124  -0.044  0.00  0.00    +0.011 C 
ATOM     10  C   UNL     1       1.193  -4.759  -0.033  0.00  0.00    +0.160 C 
ATOM     11  S   UNL     1       0.104  -3.282  -0.015  0.00  0.00    -0.107 S 
ATOM     12  C   UNL     1       1.276  -2.091  -0.021  0.00  0.00    +0.030 C 
ATOM     13  C   UNL     1       1.229  -0.687  -0.013  0.00  0.00    +0.010 A 
ATOM     14  C   UNL     1       0.002  -0.004   0.002  0.00  0.00    +0.011 A 
ATOM     15  H   UNL     1       4.427  -0.020  -0.041  0.00  0.00    +0.155 HD
ENDROOT
BRANCH  10  16
ATOM     16  C   UNL     1       0.994  -5.594   1.206  0.00  0.00    +0.230 C 
ATOM     17  O   UNL     1       1.486  -5.245   2.258  0.00  0.00    -0.274 OA
ATOM     18  N   UNL     1       0.269  -6.728   1.145  0.00  0.00    -0.314 N 
ATOM     19  H   UNL     1      -0.125  -7.008   0.303  0.00  0.00    +0.149 HD
BRANCH  18  20
ATOM     20  C   UNL     1       0.075  -7.539   2.349  0.00  0.00    +0.109 C 
BRANCH  20  21
ATOM     21  C   UNL     1      -0.779  -8.762   2.008  0.00  0.00    +0.054 C 
BRANCH  21  22
ATOM     22  C   UNL     1      -0.978  -9.597   3.247  0.00  0.00    -0.046 A 
ATOM     23  C   UNL     1      -0.075 -10.596   3.560  0.00  0.00    +0.005 A 
ATOM     24  C   UNL     1      -0.258 -11.361   4.696  0.00  0.00    +0.020 A 
ATOM     25  C   UNL     1      -1.344 -11.128   5.520  0.00  0.00    +0.041 A 
ATOM     26  C   UNL     1      -2.248 -10.128   5.206  0.00  0.00    +0.020 A 
ATOM     27  C   UNL     1      -2.061  -9.360   4.073  0.00  0.00    +0.005 A 
ATOM     28 CL   UNL     1      -1.574 -12.090   6.947  0.00  0.00    -0.084 Cl
ENDBRANCH  21  22
ENDBRANCH  20  21
ENDBRANCH  18  20
ENDBRANCH  10  16
TORSDOF 4
