REMARK  Name = ZINC19808228
REMARK  6 active torsions:
REMARK  status: ('A' for Active; 'I' for Inactive)
REMARK    1  A    between atoms: C_1  and  C_2
REMARK    2  A    between atoms: C_2  and  C_25
REMARK    3  A    between atoms: N_3  and  N_4
REMARK    4  A    between atoms: C_5  and  C_7
REMARK    5  A    between atoms: C_8  and  C_18
REMARK    6  A    between atoms: C_18  and  N_19
REMARK                            x       y       z     vdW  Elec       q    Type
REMARK                         _______ _______ _______ _____ _____    ______ ____
ROOT
ATOM      1  C   UNL     1      -0.439   5.547  -0.052  0.00  0.00    +0.154 A 
ATOM      2  C   UNL     1       0.812   6.108  -0.040  0.00  0.00    +0.079 A 
ATOM      3  N   UNL     1       1.675   5.100   0.080  0.00  0.00    -0.135 NA
ATOM      4  N   UNL     1       1.032   3.989   0.145  0.00  0.00    -0.058 NA
ATOM      5  N   UNL     1      -0.237   4.194   0.075  0.00  0.00    -0.183 N 
ATOM      6  C   UNL     1      -1.232   3.214   0.114  0.00  0.00    +0.241 A 
ATOM      7  C   UNL     1      -1.010   1.765   0.135  0.00  0.00    +0.206 A 
ATOM      8  N   UNL     1      -2.171   1.172   0.176  0.00  0.00    -0.032 NA
ATOM      9  O   UNL     1      -3.171   2.175   0.177  0.00  0.00    -0.239 OA
ATOM     10  N   UNL     1      -2.517   3.432   0.133  0.00  0.00    -0.027 NA
ATOM     11  N   UNL     1       0.228   1.132   0.120  0.00  0.00    -0.337 N 
ATOM     12  H   UNL     1       0.284   0.033   0.139  0.00  0.00    +0.144 HD
ATOM     13  H   UNL     1       1.151   1.729   0.089  0.00  0.00    +0.144 HD
ENDROOT
BRANCH   1  15
ATOM     14  N   UNL     1      -2.382   6.648   0.936  0.00  0.00    -0.201 N 
ATOM     15  C   UNL     1      -1.727   6.247  -0.171  0.00  0.00    +0.284 C 
ATOM     16  O   UNL     1      -2.201   6.464  -1.270  0.00  0.00    -0.267 OA
ATOM     17  H   UNL     1      -1.915   6.526   1.925  0.00  0.00    +0.178 HD
BRANCH  14  20
ATOM     18  C   UNL     1      -3.716   7.294   3.258  0.00  0.00    +0.068 C 
ATOM     19  C   UNL     1      -4.334   7.501   1.899  0.00  0.00    +0.063 C 
ATOM     20  N   UNL     1      -3.657   7.218   0.829  0.00  0.00    -0.184 NA
BRANCH  19  21
ATOM     21  C   UNL     1      -5.708   8.024   1.786  0.00  0.00    -0.002 A 
ATOM     22  C   UNL     1      -6.441   8.324   2.937  0.00  0.00    +0.011 A 
ATOM     23  C   UNL     1      -7.723   8.819   2.824  0.00  0.00    +0.016 A 
ATOM     24  C   UNL     1      -8.288   9.008   1.574  0.00  0.00    +0.018 A 
ATOM     25  C   UNL     1      -7.569   8.707   0.429  0.00  0.00    +0.016 A 
ATOM     26  C   UNL     1      -6.284   8.217   0.528  0.00  0.00    +0.011 A 
ATOM     27 BR   UNL     1     -10.050   9.679   1.428  0.00  0.00    -0.050 Br
ENDBRANCH  19  21
ENDBRANCH  14  20
ENDBRANCH   1  15
BRANCH   2  28
ATOM     28  C   UNL     1       1.145   7.574  -0.148  0.00  0.00    -0.018 C 
BRANCH  28  29
ATOM     29  N   UNL     1       1.312   7.936  -1.562  0.00  0.00    +0.383 N 
ATOM     30  C   UNL     1       2.480   7.263  -2.143  0.00  0.00    -0.078 C 
ATOM     31  C   UNL     1       2.539   7.546  -3.646  0.00  0.00    -0.019 C 
ATOM     32  C   UNL     1       2.632   9.058  -3.872  0.00  0.00    -0.004 C 
ATOM     33  C   UNL     1       1.428   9.739  -3.216  0.00  0.00    -0.019 C 
ATOM     34  C   UNL     1       1.401   9.393  -1.725  0.00  0.00    -0.078 C 
ATOM     35  H   UNL     1       0.421   7.591  -2.108  0.00  0.00    -0.081 HD
ENDBRANCH  28  29
ENDBRANCH   2  28
TORSDOF 5
