REMARK  Name = ZINC21808492
REMARK  9 active torsions:
REMARK  status: ('A' for Active; 'I' for Inactive)
REMARK    1  A    between atoms: C_1  and  C_2
REMARK    2  A    between atoms: C_7  and  C_36
REMARK    3  A    between atoms: N_9  and  C_10
REMARK    4  A    between atoms: C_10  and  C_11
REMARK    5  A    between atoms: C_11  and  C_12
REMARK    6  A    between atoms: C_12  and  N_13
REMARK    7  A    between atoms: C_22  and  C_23
REMARK    8  A    between atoms: C_22  and  C_24
REMARK    9  A    between atoms: N_26  and  C_27
REMARK                            x       y       z     vdW  Elec       q    Type
REMARK                         _______ _______ _______ _____ _____    ______ ____
ROOT
ATOM      1  N   UNL     1       0.271   0.973   1.029  0.00  0.00    -0.281 N 
ATOM      2  C   UNL     1       1.399   1.722   1.057  0.00  0.00    +0.264 C 
ATOM      3  O   UNL     1       1.362   2.938   1.087  0.00  0.00    -0.268 OA
ATOM      4  C   UNL     1       2.669   0.986   1.050  0.00  0.00    +0.106 A 
ATOM      5  C   UNL     1       3.946   1.418   1.252  0.00  0.00    +0.048 A 
ATOM      6  C   UNL     1       4.774   0.305   1.161  0.00  0.00    +0.038 A 
ATOM      7  C   UNL     1       4.001  -0.835   0.897  0.00  0.00    +0.057 A 
ATOM      8  N   UNL     1       2.695  -0.386   0.823  0.00  0.00    -0.333 N 
ATOM      9  C   UNL     1       1.475  -1.149   0.548  0.00  0.00    +0.157 C 
ATOM     10  C   UNL     1       0.294  -0.469   1.241  0.00  0.00    +0.128 C 
ATOM     11  C   UNL     1      -1.006  -1.069   0.700  0.00  0.00    +0.043 C 
ATOM     12  C   UNL     1       4.713  -2.038   0.784  0.00  0.00    +0.034 A 
ATOM     13  C   UNL     1       6.055  -2.048   0.926  0.00  0.00    +0.048 A 
ATOM     14  S   UNL     1       6.428  -0.331   1.238  0.00  0.00    -0.095 S 
ENDROOT
BRANCH  10  15
ATOM     15  C   UNL     1       0.376  -0.742   2.721  0.00  0.00    +0.238 C 
ATOM     16  O   UNL     1      -0.195  -1.702   3.193  0.00  0.00    -0.273 OA
ATOM     17  N   UNL     1       1.083   0.081   3.520  0.00  0.00    -0.311 N 
ATOM     18  H   UNL     1       1.600   0.953   3.092  0.00  0.00    +0.149 HD
BRANCH  17  19
ATOM     19  C   UNL     1       1.162  -0.184   4.958  0.00  0.00    +0.073 C 
ATOM     20  C   UNL     1      -0.056   0.424   5.657  0.00  0.00    +0.022 C 
ATOM     21  C   UNL     1       0.027   0.147   7.160  0.00  0.00    +0.002 C 
ATOM     22  C   UNL     1       1.304   0.773   7.724  0.00  0.00    +0.000 C 
ATOM     23  C   UNL     1       2.522   0.166   7.025  0.00  0.00    +0.002 C 
ATOM     24  C   UNL     1       2.439   0.443   5.523  0.00  0.00    +0.022 C 
ENDBRANCH  17  19
ENDBRANCH  10  15
BRANCH   1  25
ATOM     25  C   UNL     1      -1.011   1.632   0.770  0.00  0.00    +0.107 C 
BRANCH  25  26
ATOM     26  C   UNL     1      -1.638   2.067   2.096  0.00  0.00    +0.000 C 
BRANCH  26  27
ATOM     27  C   UNL     1      -2.977   2.756   1.826  0.00  0.00    -0.077 C 
BRANCH  27  34
ATOM     28  C   UNL     1      -5.756   2.401   2.085  0.00  0.00    -0.013 C 
ATOM     29  C   UNL     1      -5.028   3.477   2.892  0.00  0.00    -0.071 C 
ATOM     30  C   UNL     1      -5.719   3.655   4.246  0.00  0.00    -0.016 C 
ATOM     31  C   UNL     1      -4.974   4.718   5.057  0.00  0.00    -0.003 C 
ATOM     32  C   UNL     1      -3.512   4.294   5.221  0.00  0.00    -0.016 C 
ATOM     33  C   UNL     1      -2.885   4.097   3.839  0.00  0.00    -0.071 C 
ATOM     34  N   UNL     1      -3.633   3.070   3.103  0.00  0.00    +0.383 N 
ATOM     35  C   UNL     1      -2.934   5.416   3.065  0.00  0.00    -0.013 C 
ATOM     36  H   UNL     1      -3.639   2.156   3.715  0.00  0.00    -0.081 HD
ENDBRANCH  27  34
ENDBRANCH  26  27
ENDBRANCH  25  26
ENDBRANCH   1  25
TORSDOF 6
