REMARK  Name = ZINC20150767
REMARK  10 active torsions:
REMARK  status: ('A' for Active; 'I' for Inactive)
REMARK    1  A    between atoms: C_1  and  O_2
REMARK    2  A    between atoms: O_2  and  C_3
REMARK    3  A    between atoms: C_3  and  C_5
REMARK    4  A    between atoms: C_5  and  C_35
REMARK    5  A    between atoms: C_10  and  C_13
REMARK    6  A    between atoms: C_16  and  O_19
REMARK    7  A    between atoms: N_22  and  C_25
REMARK    8  A    between atoms: C_35  and  C_36
REMARK    9  A    between atoms: C_36  and  S_37
REMARK   10  A    between atoms: S_37  and  C_38
REMARK                            x       y       z     vdW  Elec       q    Type
REMARK                         _______ _______ _______ _____ _____    ______ ____
ROOT
ATOM      1  C   UNL     1      -1.870   2.498  -0.630  0.00  0.00    +0.130 C 
ATOM      2  C   UNL     1      -1.272   2.995   0.691  0.00  0.00    +0.120 C 
ATOM      3  C   UNL     1      -0.749   1.584   1.181  0.00  0.00    +0.111 C 
ATOM      4  C   UNL     1      -0.013   1.086   0.008  0.00  0.00    +0.097 C 
ATOM      5  N   UNL     1      -0.786   1.607  -1.167  0.00  0.00    -0.293 NA
ATOM      6  C   UNL     1      -0.529   1.837   2.588  0.00  0.00    +0.232 C 
ATOM      7  O   UNL     1       0.349   1.388   3.293  0.00  0.00    -0.274 OA
ATOM      8  N   UNL     1      -1.536   2.699   2.945  0.00  0.00    -0.210 N 
ATOM      9  C   UNL     1      -2.179   3.237   1.866  0.00  0.00    +0.232 C 
ATOM     10  O   UNL     1      -3.256   3.793   1.858  0.00  0.00    -0.274 OA
ATOM     11  H   UNL     1      -1.239   0.776  -1.729  0.00  0.00    +0.124 HD
ENDROOT
BRANCH   8  12
ATOM     12  C   UNL     1      -1.869   2.995   4.276  0.00  0.00    +0.048 A 
ATOM     13  C   UNL     1      -2.899   3.883   4.552  0.00  0.00    +0.028 A 
ATOM     14  C   UNL     1      -3.230   4.173   5.862  0.00  0.00    +0.051 A 
ATOM     15  C   UNL     1      -2.528   3.586   6.904  0.00  0.00    +0.162 A 
ATOM     16  C   UNL     1      -1.494   2.698   6.630  0.00  0.00    +0.164 A 
ATOM     17  C   UNL     1      -1.165   2.405   5.316  0.00  0.00    +0.073 A 
ATOM     18  O   UNL     1      -0.799   2.105   7.639  0.00  0.00    -0.485 OA
ATOM     19  C   UNL     1      -0.909   2.704   8.935  0.00  0.00    +0.270 C 
ATOM     20  C   UNL     1      -2.392   2.998   9.204  0.00  0.00    +0.270 C 
ATOM     21  O   UNL     1      -2.863   3.889   8.188  0.00  0.00    -0.485 OA
ENDBRANCH   8  12
BRANCH   4  22
ATOM     22  C   UNL     1       1.392   1.631  -0.003  0.00  0.00    -0.029 A 
ATOM     23  C   UNL     1       1.627   2.926  -0.427  0.00  0.00    +0.009 A 
ATOM     24  C   UNL     1       2.913   3.430  -0.432  0.00  0.00    +0.046 A 
ATOM     25  C   UNL     1       3.971   2.631  -0.022  0.00  0.00    +0.117 A 
ATOM     26  C   UNL     1       3.734   1.330   0.398  0.00  0.00    +0.046 A 
ATOM     27  C   UNL     1       2.445   0.833   0.407  0.00  0.00    +0.009 A 
BRANCH  25  28
ATOM     28  O   UNL     1       5.239   3.122  -0.033  0.00  0.00    -0.507 OA
ATOM     29  H   UNL     1       6.077   2.489   0.292  0.00  0.00    +0.292 HD
ENDBRANCH  25  28
ENDBRANCH   4  22
BRANCH   1  30
ATOM     30  C   UNL     1      -3.135   1.715  -0.384  0.00  0.00    +0.328 C 
ATOM     31  O   UNL     1      -3.784   1.916   0.615  0.00  0.00    -0.249 OA
BRANCH  30  33
ATOM     32  C   UNL     1      -4.766   0.081  -0.971  0.00  0.00    +0.280 C 
ATOM     33  O   UNL     1      -3.539   0.796  -1.274  0.00  0.00    -0.467 OA
ENDBRANCH  30  33
ENDBRANCH   1  30
BRANCH   1  34
ATOM     34  C   UNL     1      -2.135   3.667  -1.581  0.00  0.00    +0.045 C 
BRANCH  34  35
ATOM     35  C   UNL     1      -2.731   3.138  -2.887  0.00  0.00    +0.071 C 
BRANCH  35  36
ATOM     36  S   UNL     1      -3.045   4.525  -4.013  0.00  0.00    -0.164 S 
ATOM     37  C   UNL     1      -3.740   3.740  -5.493  0.00  0.00    +0.084 C 
ENDBRANCH  35  36
ENDBRANCH  34  35
ENDBRANCH   1  34
TORSDOF 8
