REMARK  Name = ZINC07001316
REMARK  8 active torsions:
REMARK  status: ('A' for Active; 'I' for Inactive)
REMARK    1  A    between atoms: C_1  and  C_2
REMARK    2  A    between atoms: C_2  and  O_3
REMARK    3  A    between atoms: O_3  and  C_4
REMARK    4  A    between atoms: C_4  and  C_6
REMARK    5  A    between atoms: C_7  and  C_29
REMARK    6  A    between atoms: C_11  and  N_16
REMARK    7  A    between atoms: C_13  and  C_15
REMARK    8  A    between atoms: C_22  and  C_24
REMARK                            x       y       z     vdW  Elec       q    Type
REMARK                         _______ _______ _______ _____ _____    ______ ____
ROOT
ATOM      1  C   UNL     1       1.251   4.671   0.730  0.00  0.00    +0.112 A 
ATOM      2  C   UNL     1       1.410   5.686  -0.163  0.00  0.00    +0.119 A 
ATOM      3  O   UNL     1       1.509   6.852   0.489  0.00  0.00    -0.441 OA
ATOM      4  C   UNL     1       1.424   6.679   1.819  0.00  0.00    +0.233 A 
ATOM      5  C   UNL     1       1.251   5.309   2.059  0.00  0.00    +0.094 A 
ATOM      6  C   UNL     1       1.128   4.861   3.378  0.00  0.00    +0.137 A 
ATOM      7  N   UNL     1       1.177   5.761   4.357  0.00  0.00    -0.217 NA
ATOM      8  C   UNL     1       1.337   7.044   4.090  0.00  0.00    +0.132 A 
ATOM      9  N   UNL     1       1.465   7.504   2.863  0.00  0.00    -0.197 NA
ATOM     10  C   UNL     1       1.386   8.020   5.237  0.00  0.00    +0.088 C 
ATOM     11  C   UNL     1       1.466   5.523  -1.660  0.00  0.00    +0.087 C 
ENDROOT
BRANCH   6  12
ATOM     12  N   UNL     1       0.960   3.516   3.658  0.00  0.00    -0.312 N 
ATOM     13  C   UNL     1      -0.356   3.264   4.262  0.00  0.00    +0.125 C 
ATOM     14  C   UNL     1      -0.575   1.753   4.389  0.00  0.00    +0.127 C 
ATOM     15  N   UNL     1       0.565   1.176   5.118  0.00  0.00    -0.292 N 
ATOM     16  C   UNL     1       1.923   1.496   4.654  0.00  0.00    +0.127 C 
ATOM     17  C   UNL     1       2.043   3.018   4.516  0.00  0.00    +0.125 C 
ATOM     18  C   UNL     1       0.369   0.374   6.184  0.00  0.00    +0.282 C 
ATOM     19  O   UNL     1       1.318   0.008   6.852  0.00  0.00    -0.267 OA
BRANCH  18  20
ATOM     20  C   UNL     1      -0.987  -0.058   6.537  0.00  0.00    +0.189 A 
ATOM     21  C   UNL     1      -1.342  -0.744   7.663  0.00  0.00    +0.054 A 
ATOM     22  C   UNL     1      -2.730  -0.945   7.592  0.00  0.00    +0.042 A 
ATOM     23  C   UNL     1      -3.155  -0.380   6.441  0.00  0.00    +0.196 A 
ATOM     24  O   UNL     1      -2.103   0.159   5.811  0.00  0.00    -0.458 OA
ENDBRANCH  18  20
ENDBRANCH   6  12
BRANCH   1  25
ATOM     25  C   UNL     1       1.104   3.240   0.432  0.00  0.00    +0.343 C 
ATOM     26  O   UNL     1       2.091   2.540   0.307  0.00  0.00    -0.245 OA
BRANCH  25  27
ATOM     27  O   UNL     1      -0.125   2.702   0.296  0.00  0.00    -0.461 OA
BRANCH  27  29
ATOM     28  C   UNL     1      -1.659   0.856  -0.115  0.00  0.00    +0.048 C 
ATOM     29  C   UNL     1      -0.194   1.282   0.002  0.00  0.00    +0.229 C 
ENDBRANCH  27  29
ENDBRANCH  25  27
ENDBRANCH   1  25
TORSDOF 5
