REMARK  Name = ZINC20703852
REMARK  7 active torsions:
REMARK  status: ('A' for Active; 'I' for Inactive)
REMARK    1  A    between atoms: C_4  and  C_7
REMARK    2  A    between atoms: C_7  and  O_8
REMARK    3  A    between atoms: O_8  and  C_9
REMARK    4  A    between atoms: C_12  and  C_15
REMARK    5  A    between atoms: C_26  and  C_31
REMARK    6  A    between atoms: N_33  and  C_34
REMARK    7  A    between atoms: C_34  and  C_35
REMARK                            x       y       z     vdW  Elec       q    Type
REMARK                         _______ _______ _______ _____ _____    ______ ____
ROOT
ATOM      1  C   UNL     1      -3.787   2.335  10.507  0.00  0.00    +0.105 C 
ATOM      2  C   UNL     1      -3.763   0.864  10.932  0.00  0.00    +0.029 C 
ATOM      3  C   UNL     1      -3.171   0.808  12.371  0.00  0.00    +0.033 C 
ATOM      4  C   UNL     1      -1.673   0.855  12.136  0.00  0.00    -0.030 C 
ATOM      5  C   UNL     1      -1.394   0.485  10.921  0.00  0.00    -0.023 C 
ATOM      6  C   UNL     1      -2.651   0.117  10.170  0.00  0.00    +0.049 C 
ATOM      7  C   UNL     1      -2.562   0.516   8.730  0.00  0.00    -0.019 A 
ATOM      8  C   UNL     1      -1.772  -0.241   7.883  0.00  0.00    +0.019 A 
ATOM      9  C   UNL     1      -1.660   0.095   6.534  0.00  0.00    +0.037 A 
ATOM     10  C   UNL     1      -2.345   1.206   6.031  0.00  0.00    +0.015 A 
ATOM     11  C   UNL     1      -3.135   1.954   6.873  0.00  0.00    +0.024 A 
ATOM     12  C   UNL     1      -3.242   1.614   8.219  0.00  0.00    +0.031 A 
ATOM     13  N   UNL     1      -4.019   2.409   9.061  0.00  0.00    -0.336 N 
ATOM     14  H   UNL     1      -4.792   3.081   8.661  0.00  0.00    +0.147 HD
ENDROOT
BRANCH   1  18
ATOM     15  C   UNL     1      -0.044   4.163  11.458  0.00  0.00    +0.121 A 
ATOM     16  C   UNL     1      -0.228   3.560  10.222  0.00  0.00    +0.046 A 
ATOM     17  C   UNL     1      -1.439   2.969   9.917  0.00  0.00    +0.009 A 
ATOM     18  C   UNL     1      -2.467   2.980  10.842  0.00  0.00    -0.027 A 
ATOM     19  C   UNL     1      -2.288   3.586  12.072  0.00  0.00    +0.009 A 
ATOM     20  C   UNL     1      -1.076   4.172  12.384  0.00  0.00    +0.046 A 
BRANCH  15  21
ATOM     21  O   UNL     1       1.147   4.745  11.760  0.00  0.00    -0.487 OA
BRANCH  21  22
ATOM     22  C   UNL     1       1.265   5.348  13.050  0.00  0.00    +0.264 C 
BRANCH  22  26
ATOM     23  C   UNL     1       5.172   7.019  13.488  0.00  0.00    +0.000 A 
ATOM     24  C   UNL     1       4.146   7.786  12.969  0.00  0.00    +0.000 A 
ATOM     25  C   UNL     1       2.882   7.245  12.827  0.00  0.00    +0.007 A 
ATOM     26  C   UNL     1       2.644   5.937  13.205  0.00  0.00    -0.010 A 
ATOM     27  C   UNL     1       3.668   5.171  13.729  0.00  0.00    +0.007 A 
ATOM     28  C   UNL     1       4.934   5.711  13.866  0.00  0.00    +0.000 A 
ENDBRANCH  22  26
ENDBRANCH  21  22
ENDBRANCH  15  21
ENDBRANCH   1  18
BRANCH   9  29
ATOM     29  C   UNL     1      -0.816  -0.718   5.638  0.00  0.00    +0.244 C 
ATOM     30  O   UNL     1      -0.216  -1.681   6.077  0.00  0.00    -0.270 OA
ATOM     31  N   UNL     1      -0.708  -0.393   4.335  0.00  0.00    -0.309 N 
ATOM     32  H   UNL     1      -1.250   0.478   3.938  0.00  0.00    +0.149 HD
BRANCH  31  33
ATOM     33  C   UNL     1       0.131  -1.200   3.446  0.00  0.00    +0.136 C 
BRANCH  33  34
ATOM     34  C   UNL     1       0.080  -0.621   2.031  0.00  0.00    +0.135 C 
ATOM     35  C   UNL     1       0.960  -1.457   1.066  0.00  0.00    +0.035 C 
ATOM     36  C   UNL     1       0.309  -1.161  -0.307  0.00  0.00    +0.031 C 
ATOM     37  C   UNL     1      -1.112  -0.679   0.045  0.00  0.00    +0.160 C 
ATOM     38  O   UNL     1      -1.247  -0.753   1.474  0.00  0.00    -0.375 OA
ENDBRANCH  33  34
ENDBRANCH  31  33
ENDBRANCH   9  29
TORSDOF 7
