REMARK  Name = ZINC04472989
REMARK  6 active torsions:
REMARK  status: ('A' for Active; 'I' for Inactive)
REMARK    1  A    between atoms: C_1  and  C_2
REMARK    2  A    between atoms: C_4  and  C_21
REMARK    3  A    between atoms: N_5  and  N_11
REMARK    4  A    between atoms: C_8  and  C_9
REMARK    5  A    between atoms: C_12  and  C_13
REMARK    6  A    between atoms: C_16  and  N_18
REMARK                            x       y       z     vdW  Elec       q    Type
REMARK                         _______ _______ _______ _____ _____    ______ ____
ROOT
ATOM      1  C   UNL     1       2.863   7.777  -0.055  0.00  0.00    +0.045 C 
ATOM      2  C   UNL     1       3.071   6.285  -0.066  0.00  0.00    -0.026 A 
ATOM      3  C   UNL     1       4.357   5.749  -0.113  0.00  0.00    +0.028 A 
ATOM      4  C   UNL     1       4.535   4.402  -0.117  0.00  0.00    +0.044 A 
ATOM      5  N   UNL     1       3.477   3.554  -0.085  0.00  0.00    -0.200 N 
ATOM      6  C   UNL     1       2.215   4.020  -0.039  0.00  0.00    +0.289 A 
ATOM      7  O   UNL     1       1.277   3.241  -0.006  0.00  0.00    -0.264 OA
ATOM      8  C   UNL     1       1.979   5.418  -0.028  0.00  0.00    +0.121 A 
ATOM      9  C   UNL     1       5.932   3.841  -0.163  0.00  0.00    +0.066 C 
ENDROOT
BRANCH   8  10
ATOM     10  C   UNL     1       0.643   5.931   0.022  0.00  0.00    +0.105 C 
ATOM     11  N   UNL     1      -0.417   6.338   0.061  0.00  0.00    -0.191 NA
ENDBRANCH   8  10
BRANCH   5  12
ATOM     12  N   UNL     1       3.702   2.172  -0.096  0.00  0.00    -0.171 NA
ATOM     13  C   UNL     1       3.382   1.467  -1.144  0.00  0.00    +0.148 C 
BRANCH  13  14
ATOM     14  C   UNL     1       2.935   2.137  -2.367  0.00  0.00    +0.034 A 
ATOM     15  C   UNL     1       2.436   1.581  -3.535  0.00  0.00    +0.019 A 
ATOM     16  C   UNL     1       2.084   2.425  -4.560  0.00  0.00    +0.041 A 
ATOM     17  C   UNL     1       2.223   3.768  -4.395  0.00  0.00    +0.164 A 
ATOM     18  S   UNL     1       2.888   3.882  -2.743  0.00  0.00    -0.064 S 
BRANCH  17  19
ATOM     19  N   UNL     1       1.909   4.858  -5.347  0.00  0.00    +0.063 N 
ATOM     20  O   UNL     1       1.406   4.599  -6.426  0.00  0.00    -0.126 OA
ATOM     21  O   UNL     1       2.154   6.014  -5.052  0.00  0.00    -0.126 OA
ENDBRANCH  17  19
ENDBRANCH  13  14
ENDBRANCH   5  12
TORSDOF 4
