REMARK  Name = ZINC03840503
REMARK  11 active torsions:
REMARK  status: ('A' for Active; 'I' for Inactive)
REMARK    1  A    between atoms: C_1  and  C_2
REMARK    2  A    between atoms: N_9  and  C_10
REMARK    3  A    between atoms: C_10  and  C_11
REMARK    4  A    between atoms: C_14  and  C_37
REMARK    5  A    between atoms: C_17  and  O_36
REMARK    6  A    between atoms: C_19  and  C_23
REMARK    7  A    between atoms: C_23  and  C_25
REMARK    8  A    between atoms: C_23  and  C_26
REMARK    9  A    between atoms: N_28  and  C_29
REMARK   10  A    between atoms: C_29  and  C_30
REMARK   11  A    between atoms: C_30  and  N_73
REMARK                            x       y       z     vdW  Elec       q    Type
REMARK                         _______ _______ _______ _____ _____    ______ ____
ROOT
ATOM      1  C   UNL     1      -1.449   3.106   0.396  0.00  0.00    +0.014 C 
ATOM      2  C   UNL     1      -0.098   3.647   0.868  0.00  0.00    +0.042 C 
ATOM      3  C   UNL     1      -0.217   5.139   1.141  0.00  0.00    +0.057 A 
ATOM      4  C   UNL     1       0.777   5.982   0.762  0.00  0.00    +0.015 A 
ATOM      5  S   UNL     1       0.173   7.561   1.294  0.00  0.00    -0.057 S 
ATOM      6  C   UNL     1      -1.328   6.999   1.967  0.00  0.00    +0.159 A 
ATOM      7  N   UNL     1      -1.261   5.702   1.746  0.00  0.00    -0.229 NA
ATOM      8  N   UNL     1      -2.336   7.728   2.578  0.00  0.00    -0.320 N 
ATOM      9  C   UNL     1       2.048   5.637   0.070  0.00  0.00    +0.051 C 
ATOM     10  C   UNL     1       2.265   4.113   0.148  0.00  0.00    -0.022 C 
ATOM     11  C   UNL     1       0.958   3.406  -0.219  0.00  0.00    +0.033 C 
ATOM     12  C   UNL     1       1.184   1.893  -0.311  0.00  0.00    +0.123 C 
ATOM     13  C   UNL     1       2.263   1.583  -1.346  0.00  0.00    +0.029 C 
ATOM     14  C   UNL     1       3.572   2.247  -0.909  0.00  0.00    +0.007 C 
ATOM     15  C   UNL     1       3.360   3.759  -0.863  0.00  0.00    +0.008 C 
ATOM     16  C   UNL     1       2.694   3.717   1.563  0.00  0.00    +0.012 C 
ATOM     17  H   UNL     1      -3.128   7.277   2.911  0.00  0.00    +0.148 HD
ENDROOT
BRANCH  13  18
ATOM     18  C   UNL     1       2.466   0.069  -1.438  0.00  0.00    +0.077 C 
ATOM     19  C   UNL     1       3.033  -0.451  -0.116  0.00  0.00    +0.017 C 
BRANCH  18  20
ATOM     20  C   UNL     1       3.429  -0.242  -2.555  0.00  0.00    +0.216 C 
ATOM     21  O   UNL     1       3.831   0.648  -3.274  0.00  0.00    -0.276 OA
ATOM     22  N   UNL     1       3.843  -1.509  -2.754  0.00  0.00    -0.317 N 
ATOM     23  H   UNL     1       3.521  -2.220  -2.179  0.00  0.00    +0.149 HD
BRANCH  22  24
ATOM     24  C   UNL     1       4.779  -1.811  -3.840  0.00  0.00    +0.085 C 
BRANCH  24  25
ATOM     25  C   UNL     1       5.085  -3.310  -3.847  0.00  0.00    -0.060 C 
BRANCH  25  31
ATOM     26  C   UNL     1       5.401  -3.383  -6.248  0.00  0.00    -0.050 C 
ATOM     27  C   UNL     1       6.430  -3.653  -7.349  0.00  0.00    +0.141 C 
ATOM     28  O   UNL     1       6.928  -4.987  -7.212  0.00  0.00    -0.383 OA
ATOM     29  C   UNL     1       7.542  -5.245  -5.946  0.00  0.00    +0.141 C 
ATOM     30  C   UNL     1       6.524  -4.992  -4.831  0.00  0.00    -0.050 C 
ATOM     31  N   UNL     1       6.045  -3.597  -4.935  0.00  0.00    +0.384 N 
ATOM     32  H   UNL     1       6.847  -2.961  -4.848  0.00  0.00    -0.082 HD
ENDBRANCH  25  31
ENDBRANCH  24  25
ENDBRANCH  22  24
ENDBRANCH  18  20
ENDBRANCH  13  18
BRANCH  12  33
ATOM     33  O   UNL     1      -0.035   1.255  -0.693  0.00  0.00    -0.391 OA
ATOM     34  H   UNL     1       0.043   0.299  -0.820  0.00  0.00    +0.210 HD
ENDBRANCH  12  33
BRANCH   8  35
ATOM     35  C   UNL     1      -2.206   9.180   2.722  0.00  0.00    +0.130 C 
BRANCH  35  36
ATOM     36  C   UNL     1      -3.428   9.728   3.414  0.00  0.00    -0.016 C 
ATOM     37  C   UNL     1      -3.297  10.448   4.501  0.00  0.00    +0.005 C 
ENDBRANCH  35  36
ENDBRANCH   8  35
TORSDOF 8
