REMARK  Name = ZINC48749112
REMARK  8 active torsions:
REMARK  status: ('A' for Active; 'I' for Inactive)
REMARK    1  A    between atoms: C_1  and  C_2
REMARK    2  A    between atoms: N_5  and  C_11
REMARK    3  A    between atoms: C_7  and  C_10
REMARK    4  A    between atoms: C_14  and  C_18
REMARK    5  A    between atoms: C_18  and  N_19
REMARK    6  A    between atoms: N_19  and  C_20
REMARK    7  A    between atoms: C_20  and  C_21
REMARK    8  A    between atoms: C_24  and  C_27
REMARK                            x       y       z     vdW  Elec       q    Type
REMARK                         _______ _______ _______ _____ _____    ______ ____
ROOT
ATOM      1  C   UNL     1       2.795   0.528  -2.199  0.00  0.00    +0.066 A 
ATOM      2  C   UNL     1       2.817   1.915  -2.236  0.00  0.00    +0.026 A 
ATOM      3  C   UNL     1       3.462   2.567  -3.270  0.00  0.00    +0.004 A 
ATOM      4  C   UNL     1       4.085   1.840  -4.267  0.00  0.00    -0.062 A 
ATOM      5  C   UNL     1       4.065   0.457  -4.235  0.00  0.00    +0.042 A 
ATOM      6  C   UNL     1       3.427  -0.202  -3.200  0.00  0.00    +0.144 A 
ATOM      7  F   UNL     1       3.412  -1.552  -3.165  0.00  0.00    -0.204 F 
ENDROOT
BRANCH   1  11
ATOM      8  C   UNL     1      -0.019   1.526   0.010  0.00  0.00    +0.039 C 
ATOM      9  C   UNL     1       0.002  -0.004   0.002  0.00  0.00    +0.133 C 
ATOM     10  C   UNL     1       0.722  -0.499  -1.258  0.00  0.00    +0.136 C 
ATOM     11  N   UNL     1       2.143  -0.135  -1.154  0.00  0.00    -0.323 N 
ATOM     12  C   UNL     1       2.860  -0.488   0.082  0.00  0.00    +0.136 C 
ATOM     13  C   UNL     1       2.036   0.007   1.277  0.00  0.00    +0.133 C 
ATOM     14  O   UNL     1       0.695  -0.479   1.159  0.00  0.00    -0.371 OA
ATOM     15  C   UNL     1       2.656  -0.513   2.575  0.00  0.00    +0.039 C 
ENDBRANCH   1  11
BRANCH   4  16
ATOM     16  C   UNL     1       4.786   2.555  -5.393  0.00  0.00    -0.046 C 
BRANCH  16  17
ATOM     17  N   UNL     1       6.189   2.788  -5.026  0.00  0.00    +0.384 N 
ATOM     18  H   UNL     1       6.229   3.354  -4.191  0.00  0.00    -0.085 HD
ATOM     19  H   UNL     1       6.644   1.904  -4.854  0.00  0.00    -0.085 HD
BRANCH  17  20
ATOM     20  C   UNL     1       6.873   3.486  -6.123  0.00  0.00    -0.046 C 
BRANCH  20  21
ATOM     21  C   UNL     1       8.313   3.725  -5.746  0.00  0.00    -0.064 A 
ATOM     22  C   UNL     1       8.668   4.888  -5.086  0.00  0.00    +0.003 A 
ATOM     23  C   UNL     1       9.984   5.113  -4.738  0.00  0.00    +0.019 A 
ATOM     24  C   UNL     1      10.958   4.164  -5.054  0.00  0.00    +0.052 A 
ATOM     25  C   UNL     1      10.593   2.992  -5.720  0.00  0.00    +0.019 A 
ATOM     26  C   UNL     1       9.273   2.778  -6.057  0.00  0.00    +0.003 A 
BRANCH  24  27
ATOM     27  C   UNL     1      12.326   4.391  -4.696  0.00  0.00    +0.099 C 
ATOM     28  N   UNL     1      13.411   4.572  -4.413  0.00  0.00    -0.191 NA
ENDBRANCH  24  27
ENDBRANCH  20  21
ENDBRANCH  17  20
ENDBRANCH  16  17
ENDBRANCH   4  16
TORSDOF 6
