REMARK  Name = ZINC06165863
REMARK  12 active torsions:
REMARK  status: ('A' for Active; 'I' for Inactive)
REMARK    1  A    between atoms: C_1  and  N_2
REMARK    2  A    between atoms: N_2  and  C_3
REMARK    3  A    between atoms: N_2  and  S_4
REMARK    4  A    between atoms: S_4  and  C_7
REMARK    5  A    between atoms: C_10  and  C_13
REMARK    6  A    between atoms: C_13  and  C_15
REMARK    7  A    between atoms: C_16  and  O_35
REMARK    8  A    between atoms: N_19  and  C_27
REMARK    9  A    between atoms: C_20  and  C_22
REMARK   10  A    between atoms: C_27  and  C_28
REMARK   11  A    between atoms: C_28  and  C_29
REMARK   12  A    between atoms: C_29  and  N_64
REMARK                            x       y       z     vdW  Elec       q    Type
REMARK                         _______ _______ _______ _____ _____    ______ ____
ROOT
ATOM      1  C   UNL     1      -3.721   1.808   0.081  0.00  0.00    +0.072 C 
ATOM      2  C   UNL     1      -4.985   1.331   0.162  0.00  0.00    +0.188 C 
ATOM      3  C   UNL     1      -5.930   2.466   0.221  0.00  0.00    +0.282 C 
ATOM      4  O   UNL     1      -7.138   2.365   0.301  0.00  0.00    -0.267 OA
ATOM      5  N   UNL     1      -5.254   3.629   0.169  0.00  0.00    -0.283 N 
ATOM      6  C   UNL     1      -3.824   3.316   0.077  0.00  0.00    +0.151 C 
ENDROOT
BRANCH   6   7
ATOM      7  C   UNL     1      -3.091   3.888   1.264  0.00  0.00    +0.015 A 
ATOM      8  C   UNL     1      -1.899   4.532   1.301  0.00  0.00    +0.013 A 
ATOM      9  C   UNL     1      -1.417   4.980   2.517  0.00  0.00    +0.008 A 
ATOM     10  C   UNL     1      -2.146   4.752   3.637  0.00  0.00    +0.045 A 
ATOM     11  S   UNL     1      -3.565   3.888   2.985  0.00  0.00    -0.099 S 
ENDBRANCH   6   7
BRANCH   1  12
ATOM     12  C   UNL     1      -2.490   1.016   0.007  0.00  0.00    +0.195 C 
ATOM     13  O   UNL     1      -2.151   0.328   0.951  0.00  0.00    -0.287 OA
BRANCH  12  17
ATOM     14  C   UNL     1      -0.109   1.116  -3.510  0.00  0.00    +0.105 A 
ATOM     15  C   UNL     1       0.318   0.394  -2.410  0.00  0.00    +0.029 A 
ATOM     16  C   UNL     1      -0.448   0.360  -1.264  0.00  0.00    +0.013 A 
ATOM     17  C   UNL     1      -1.660   1.053  -1.217  0.00  0.00    +0.022 A 
ATOM     18  C   UNL     1      -2.082   1.784  -2.329  0.00  0.00    +0.013 A 
ATOM     19  C   UNL     1      -1.306   1.810  -3.469  0.00  0.00    +0.029 A 
BRANCH  14  20
ATOM     20  S   UNL     1       0.876   1.154  -4.971  0.00  0.00    +0.060 S 
ATOM     21  O   UNL     1       0.525   2.342  -5.667  0.00  0.00    -0.153 OA
ATOM     22  O   UNL     1       2.210   0.872  -4.568  0.00  0.00    -0.153 OA
BRANCH  20  24
ATOM     23  C   UNL     1      -0.682   0.076  -6.901  0.00  0.00    +0.131 C 
ATOM     24  N   UNL     1       0.391  -0.113  -5.921  0.00  0.00    -0.183 NA
ATOM     25  C   UNL     1       1.034  -1.422  -5.782  0.00  0.00    +0.131 C 
ENDBRANCH  20  24
ENDBRANCH  14  20
ENDBRANCH  12  17
ENDBRANCH   1  12
BRANCH   2  26
ATOM     26  O   UNL     1      -5.328   0.023   0.186  0.00  0.00    -0.502 OA
ATOM     27  H   UNL     1      -6.323  -0.059   0.248  0.00  0.00    +0.292 HD
ENDBRANCH   2  26
BRANCH   5  28
ATOM     28  C   UNL     1      -5.843   4.970   0.197  0.00  0.00    +0.107 C 
BRANCH  28  29
ATOM     29  C   UNL     1      -6.143   5.426  -1.232  0.00  0.00    +0.000 C 
BRANCH  29  30
ATOM     30  C   UNL     1      -6.758   6.826  -1.203  0.00  0.00    -0.077 C 
BRANCH  30  36
ATOM     31  C   UNL     1      -5.803   7.451  -3.340  0.00  0.00    -0.050 C 
ATOM     32  C   UNL     1      -6.150   7.848  -4.777  0.00  0.00    +0.141 C 
ATOM     33  O   UNL     1      -6.957   9.029  -4.759  0.00  0.00    -0.383 OA
ATOM     34  C   UNL     1      -8.175   8.882  -4.023  0.00  0.00    +0.141 C 
ATOM     35  C   UNL     1      -7.849   8.495  -2.578  0.00  0.00    -0.050 C 
ATOM     36  N   UNL     1      -7.060   7.245  -2.589  0.00  0.00    +0.383 N 
ATOM     37  H   UNL     1      -7.607   6.508  -3.049  0.00  0.00    -0.082 HD
ENDBRANCH  30  36
ENDBRANCH  29  30
ENDBRANCH  28  29
ENDBRANCH   5  28
TORSDOF 10
