REMARK  Name = ZINC64343361
REMARK  6 active torsions:
REMARK  status: ('A' for Active; 'I' for Inactive)
REMARK    1  A    between atoms: C_1  and  C_2
REMARK    2  A    between atoms: C_7  and  C_15
REMARK    3  A    between atoms: C_13  and  C_14
REMARK    4  A    between atoms: C_17  and  C_24
REMARK    5  A    between atoms: C_18  and  C_23
REMARK    6  A    between atoms: C_24  and  C_26
REMARK                            x       y       z     vdW  Elec       q    Type
REMARK                         _______ _______ _______ _____ _____    ______ ____
ROOT
ATOM      1  C   UNL     1       1.860   1.484  -0.382  0.00  0.00    +0.044 C 
ATOM      2  C   UNL     1       1.575   0.004  -0.379  0.00  0.00    -0.046 A 
ATOM      3  C   UNL     1       1.823  -0.728  -1.541  0.00  0.00    +0.004 A 
ATOM      4  C   UNL     1       1.586  -2.064  -1.599  0.00  0.00    +0.010 A 
ATOM      5  C   UNL     1       1.061  -2.740  -0.412  0.00  0.00    -0.007 A 
ATOM      6  C   UNL     1       0.808  -4.080  -0.424  0.00  0.00    -0.003 C 
ATOM      7  C   UNL     1       0.266  -4.696   0.850  0.00  0.00    +0.123 C 
ATOM      8  C   UNL     1       0.050  -3.776   2.030  0.00  0.00    +0.226 C 
ATOM      9  O   UNL     1      -0.383  -4.218   3.078  0.00  0.00    -0.275 OA
ATOM     10  N   UNL     1       0.333  -2.489   1.919  0.00  0.00    -0.284 N 
ATOM     11  C   UNL     1       0.810  -1.942   0.801  0.00  0.00    +0.043 A 
ATOM     12  C   UNL     1       1.094  -0.565   0.757  0.00  0.00    -0.026 A 
ATOM     13  C   UNL     1       0.856   0.287   1.977  0.00  0.00    +0.046 C 
ATOM     14  H   UNL     1       0.187  -1.915   2.688  0.00  0.00    +0.155 HD
ENDROOT
BRANCH   7  15
ATOM     15  C   UNL     1       1.233  -5.798   1.287  0.00  0.00    +0.125 C 
ATOM     16  C   UNL     1       1.069  -6.967   0.337  0.00  0.00    +0.033 C 
ATOM     17  C   UNL     1       2.165  -7.383  -0.345  0.00  0.00    +0.017 C 
ATOM     18  N   UNL     1       3.370  -6.769  -0.180  0.00  0.00    -0.273 N 
ATOM     19  C   UNL     1       3.570  -5.734   0.645  0.00  0.00    +0.304 C 
ATOM     20  O   UNL     1       4.683  -5.253   0.725  0.00  0.00    -0.253 OA
ATOM     21  N   UNL     1       2.578  -5.208   1.390  0.00  0.00    -0.291 N 
ATOM     22  C   UNL     1       2.048  -8.542  -1.301  0.00  0.00    +0.061 C 
ATOM     23  H   UNL     1       4.126  -7.101  -0.689  0.00  0.00    +0.156 HD
ATOM     24  H   UNL     1       2.747  -4.457   1.980  0.00  0.00    +0.151 HD
BRANCH  16  25
ATOM     25  C   UNL     1      -0.174  -7.599   0.169  0.00  0.00    +0.159 C 
ATOM     26  O   UNL     1      -0.310  -8.457  -0.680  0.00  0.00    -0.293 OA
ATOM     27  C   UNL     1      -1.340  -7.211   1.041  0.00  0.00    +0.091 C 
ENDBRANCH  16  25
ENDBRANCH   7  15
TORSDOF 2
