REMARK  Name = ZINC12246751
REMARK  5 active torsions:
REMARK  status: ('A' for Active; 'I' for Inactive)
REMARK    1  A    between atoms: C_5  and  C_7
REMARK    2  A    between atoms: C_7  and  N_8
REMARK    3  A    between atoms: C_19  and  N_64
REMARK    4  A    between atoms: C_23  and  C_24
REMARK    5  A    between atoms: C_23  and  N_64
REMARK                            x       y       z     vdW  Elec       q    Type
REMARK                         _______ _______ _______ _____ _____    ______ ____
ROOT
ATOM      1  N   UNL     1     -10.189   4.659   7.190  0.00  0.00    -0.293 N 
ATOM      2  C   UNL     1      -9.689   3.932   8.218  0.00  0.00    +0.203 A 
ATOM      3  N   UNL     1      -8.609   3.190   8.112  0.00  0.00    -0.230 NA
ATOM      4  C   UNL     1      -7.997   3.167   6.932  0.00  0.00    +0.116 A 
ATOM      5  C   UNL     1      -8.440   3.889   5.802  0.00  0.00    +0.076 A 
ATOM      6  C   UNL     1      -9.623   4.687   5.961  0.00  0.00    +0.263 A 
ATOM      7  O   UNL     1     -10.087   5.347   5.047  0.00  0.00    -0.267 OA
ATOM      8  C   UNL     1      -7.645   3.742   4.596  0.00  0.00    -0.023 A 
ATOM      9  C   UNL     1      -6.564   2.932   4.677  0.00  0.00    -0.006 A 
ATOM     10  S   UNL     1      -6.556   2.332   6.348  0.00  0.00    -0.073 S 
ATOM     11  C   UNL     1      -5.586   2.612   3.588  0.00  0.00    +0.027 C 
ATOM     12  C   UNL     1      -5.772   3.630   2.453  0.00  0.00    -0.067 C 
ATOM     13  C   UNL     1      -7.267   3.746   2.139  0.00  0.00    -0.011 C 
ATOM     14  C   UNL     1      -7.986   4.452   3.288  0.00  0.00    +0.035 C 
ENDROOT
BRANCH  12  15
ATOM     15  N   UNL     1      -5.056   3.167   1.250  0.00  0.00    +0.381 N 
ATOM     16  H   UNL     1      -5.495   3.574   0.416  0.00  0.00    -0.086 HD
ATOM     17  H   UNL     1      -5.108   2.143   1.198  0.00  0.00    -0.086 HD
BRANCH  15  18
ATOM     18  C   UNL     1      -3.641   3.580   1.305  0.00  0.00    -0.078 C 
BRANCH  18  19
ATOM     19  C   UNL     1      -2.925   3.086   0.047  0.00  0.00    -0.022 C 
ATOM     20  C   UNL     1      -1.490   3.616   0.036  0.00  0.00    -0.009 C 
ATOM     21  C   UNL     1      -0.773   3.123  -1.223  0.00  0.00    +0.007 C 
ATOM     22  C   UNL     1      -0.753   1.593  -1.232  0.00  0.00    -0.010 C 
ATOM     23  C   UNL     1      -0.013   1.086   0.008  0.00  0.00    +0.007 C 
ATOM     24  C   UNL     1      -0.729   1.579   1.267  0.00  0.00    -0.010 C 
ATOM     25  C   UNL     1      -0.750   3.109   1.275  0.00  0.00    +0.007 C 
ATOM     26  C   UNL     1      -2.164   1.050   1.278  0.00  0.00    +0.007 C 
ATOM     27  C   UNL     1      -2.904   1.556   0.038  0.00  0.00    -0.009 C 
ATOM     28  C   UNL     1      -2.188   1.063  -1.221  0.00  0.00    +0.007 C 
ENDBRANCH  18  19
ENDBRANCH  15  18
ENDBRANCH  12  15
BRANCH   1  29
ATOM     29  C   UNL     1     -11.399   5.453   7.420  0.00  0.00    +0.181 C 
BRANCH  29  34
ATOM     30  C   UNL     1     -14.377   3.178   7.822  0.00  0.00    +0.003 A 
ATOM     31  C   UNL     1     -14.805   3.123   6.504  0.00  0.00    +0.020 A 
ATOM     32  C   UNL     1     -14.107   3.826   5.540  0.00  0.00    +0.111 A 
ATOM     33  N   UNL     1     -13.052   4.548   5.863  0.00  0.00    -0.258 NA
ATOM     34  C   UNL     1     -12.614   4.619   7.105  0.00  0.00    +0.061 A 
ATOM     35  C   UNL     1     -13.260   3.942   8.122  0.00  0.00    +0.025 A 
ENDBRANCH  29  34
ENDBRANCH   1  29
TORSDOF 5
