REMARK  Name = ZINC62777818
REMARK  3 active torsions:
REMARK  status: ('A' for Active; 'I' for Inactive)
REMARK    1  A    between atoms: C_5  and  C_7
REMARK    2  A    between atoms: C_8  and  C_14
REMARK    3  A    between atoms: C_12  and  N_13
REMARK                            x       y       z     vdW  Elec       q    Type
REMARK                         _______ _______ _______ _____ _____    ______ ____
ROOT
ATOM      1  C   UNL     1       1.247  -2.163  -0.023  0.00  0.00    +0.052 A 
ATOM      2  C   UNL     1       1.268  -3.012   1.114  0.00  0.00    +0.120 A 
ATOM      3  N   UNL     1       1.289  -4.258   0.693  0.00  0.00    -0.170 NA
ATOM      4  N   UNL     1       1.282  -4.263  -0.707  0.00  0.00    -0.263 N 
ATOM      5  H   UNL     1       1.293  -5.052  -1.271  0.00  0.00    +0.190 HD
ATOM      6  C   UNL     1       1.250  -2.977  -1.141  0.00  0.00    +0.120 A 
ENDROOT
BRANCH   1  11
ATOM      7  C   UNL     1      -0.017   1.376   0.010  0.00  0.00    +0.001 A 
ATOM      8  C   UNL     1       1.170   2.087   0.002  0.00  0.00    +0.001 A 
ATOM      9  C   UNL     1       2.382   1.421  -0.013  0.00  0.00    +0.020 A 
ATOM     10  C   UNL     1       2.414   0.040  -0.021  0.00  0.00    +0.049 A 
ATOM     11  C   UNL     1       1.220  -0.682  -0.014  0.00  0.00    +0.006 A 
ATOM     12  C   UNL     1       0.002  -0.004   0.002  0.00  0.00    +0.010 A 
ATOM     13 CL   UNL     1       3.936  -0.795  -0.042  0.00  0.00    -0.083 Cl
ENDBRANCH   1  11
BRANCH   2  14
ATOM     14  C   UNL     1       1.268  -2.573   2.526  0.00  0.00    +0.086 A 
ATOM     15  C   UNL     1       1.920  -3.179   3.563  0.00  0.00    +0.051 A 
ATOM     16  C   UNL     1       1.657  -2.445   4.720  0.00  0.00    +0.135 A 
ATOM     17  N   UNL     1       0.882  -1.438   4.409  0.00  0.00    -0.182 NA
ATOM     18  N   UNL     1       0.622  -1.485   3.033  0.00  0.00    -0.275 N 
ATOM     19  H   UNL     1       0.078  -0.857   2.532  0.00  0.00    +0.189 HD
ENDBRANCH   2  14
BRANCH   6  20
ATOM     20  N   UNL     1       1.229  -2.556  -2.463  0.00  0.00    -0.343 N 
ATOM     21  H   UNL     1       1.209  -1.608  -2.671  0.00  0.00    +0.144 HD
ATOM     22  H   UNL     1       1.233  -3.209  -3.180  0.00  0.00    +0.144 HD
ENDBRANCH   6  20
TORSDOF 3
