REMARK  Name = ZINC39940013
REMARK  12 active torsions:
REMARK  status: ('A' for Active; 'I' for Inactive)
REMARK    1  A    between atoms: C_1  and  C_2
REMARK    2  A    between atoms: C_4  and  C_18
REMARK    3  A    between atoms: C_5  and  C_17
REMARK    4  A    between atoms: N_7  and  C_8
REMARK    5  A    between atoms: C_8  and  C_9
REMARK    6  A    between atoms: C_18  and  N_19
REMARK    7  A    between atoms: N_19  and  C_20
REMARK    8  A    between atoms: C_20  and  C_21
REMARK    9  A    between atoms: C_21  and  C_22
REMARK   10  A    between atoms: C_22  and  C_23
REMARK   11  A    between atoms: C_24  and  C_30
REMARK   12  A    between atoms: C_25  and  N_29
REMARK                            x       y       z     vdW  Elec       q    Type
REMARK                         _______ _______ _______ _____ _____    ______ ____
ROOT
ATOM      1  C   UNL     1      -2.498  -0.332  -0.959  0.00  0.00    -0.048 C 
ENDROOT
BRANCH   1   4
ATOM      2  C   UNL     1      -0.019   1.526   0.010  0.00  0.00    +0.030 C 
ATOM      3  C   UNL     1       0.002  -0.004   0.002  0.00  0.00    +0.099 C 
ATOM      4  C   UNL     1      -1.407  -0.553   0.057  0.00  0.00    -0.051 C 
ATOM      5  C   UNL     1      -1.497  -1.261   1.165  0.00  0.00    +0.015 C 
ATOM      6  N   UNL     1      -0.311  -1.258   1.871  0.00  0.00    -0.281 N 
ATOM      7  N   UNL     1       0.644  -0.519   1.228  0.00  0.00    -0.218 NA
ATOM      8  C   UNL     1      -2.743  -1.985   1.607  0.00  0.00    +0.061 C 
ATOM      9  H   UNL     1      -0.172  -1.720   2.713  0.00  0.00    +0.166 HD
BRANCH   7  10
ATOM     10  C   UNL     1       1.119   0.583   2.076  0.00  0.00    +0.144 C 
BRANCH  10  11
ATOM     11  C   UNL     1       1.874   0.022   3.253  0.00  0.00    +0.005 A 
ATOM     12  C   UNL     1       1.202  -0.289   4.422  0.00  0.00    +0.047 A 
ATOM     13  C   UNL     1       1.896  -0.804   5.502  0.00  0.00    +0.020 A 
ATOM     14  C   UNL     1       3.260  -1.008   5.414  0.00  0.00    +0.003 A 
ATOM     15  C   UNL     1       3.932  -0.699   4.246  0.00  0.00    +0.020 A 
ATOM     16  C   UNL     1       3.238  -0.189   3.163  0.00  0.00    +0.047 A 
ATOM     17 CL   UNL     1       4.080   0.193   1.694  0.00  0.00    -0.083 Cl
ATOM     18 CL   UNL     1      -0.511  -0.031   4.534  0.00  0.00    -0.083 Cl
ENDBRANCH  10  11
ENDBRANCH   7  10
ENDBRANCH   1   4
BRANCH   1  19
ATOM     19  N   UNL     1      -3.188   0.932  -0.668  0.00  0.00    +0.382 N 
ATOM     20  H   UNL     1      -3.592   0.890   0.255  0.00  0.00    -0.085 HD
ATOM     21  H   UNL     1      -2.528   1.694  -0.712  0.00  0.00    -0.085 HD
BRANCH  19  22
ATOM     22  C   UNL     1      -4.252   1.148  -1.659  0.00  0.00    -0.082 C 
BRANCH  22  23
ATOM     23  C   UNL     1      -4.971   2.464  -1.356  0.00  0.00    -0.013 C 
BRANCH  23  24
ATOM     24  C   UNL     1      -6.078   2.689  -2.388  0.00  0.00    +0.057 C 
BRANCH  24  25
ATOM     25  C   UNL     1      -6.787   3.986  -2.090  0.00  0.00    +0.082 A 
ATOM     26  C   UNL     1      -6.436   5.258  -2.599  0.00  0.00    +0.113 A 
ATOM     27  C   UNL     1      -7.346   6.171  -2.074  0.00  0.00    +0.129 A 
ATOM     28  N   UNL     1      -8.198   5.477  -1.290  0.00  0.00    -0.263 N 
ATOM     29  N   UNL     1      -7.831   4.127  -1.323  0.00  0.00    -0.176 NA
ATOM     30  H   UNL     1      -8.941   5.851  -0.791  0.00  0.00    +0.190 HD
BRANCH  27  31
ATOM     31  N   UNL     1      -7.373   7.532  -2.311  0.00  0.00    -0.342 N 
ATOM     32  H   UNL     1      -6.711   7.936  -2.894  0.00  0.00    +0.144 HD
ATOM     33  H   UNL     1      -8.053   8.084  -1.893  0.00  0.00    +0.144 HD
ENDBRANCH  27  31
BRANCH  26  34
ATOM     34  C   UNL     1      -5.351   5.551  -3.486  0.00  0.00    +0.104 C 
ATOM     35  N   UNL     1      -4.489   5.783  -4.189  0.00  0.00    -0.191 NA
ENDBRANCH  26  34
ENDBRANCH  24  25
ENDBRANCH  23  24
ENDBRANCH  22  23
ENDBRANCH  19  22
ENDBRANCH   1  19
TORSDOF 10
