REMARK  Name = ZINC63141964
REMARK  6 active torsions:
REMARK  status: ('A' for Active; 'I' for Inactive)
REMARK    1  A    between atoms: C_4  and  C_7
REMARK    2  A    between atoms: C_7  and  C_8
REMARK    3  A    between atoms: C_8  and  C_9
REMARK    4  A    between atoms: N_28  and  C_31
REMARK    5  A    between atoms: C_31  and  C_32
REMARK    6  A    between atoms: C_32  and  C_33
REMARK                            x       y       z     vdW  Elec       q    Type
REMARK                         _______ _______ _______ _____ _____    ______ ____
ROOT
ATOM      1  C   UNL     1       5.507  -1.710   1.381  0.00  0.00    +0.104 C 
ATOM      2  C   UNL     1       6.032  -1.824   2.812  0.00  0.00    +0.127 C 
ATOM      3  C   UNL     1       5.191  -2.910   3.480  0.00  0.00    -0.034 C 
ATOM      4  C   UNL     1       4.565  -2.337   4.498  0.00  0.00    -0.001 A 
ATOM      5  C   UNL     1       3.648  -2.878   5.515  0.00  0.00    +0.010 A 
ATOM      6  C   UNL     1       3.178  -1.992   6.431  0.00  0.00    +0.001 A 
ATOM      7  C   UNL     1       3.524  -0.637   6.439  0.00  0.00    +0.002 A 
ATOM      8  C   UNL     1       4.361  -0.054   5.544  0.00  0.00    +0.026 A 
ATOM      9  C   UNL     1       4.921  -0.886   4.531  0.00  0.00    +0.043 A 
ATOM     10  N   UNL     1       5.761  -0.589   3.559  0.00  0.00    -0.376 N 
ATOM     11  C   UNL     1       5.162  -4.314   2.941  0.00  0.00    +0.065 C 
ATOM     12  C   UNL     1       5.109  -4.284   1.436  0.00  0.00    +0.167 C 
ATOM     13  N   UNL     1       5.310  -3.016   0.769  0.00  0.00    -0.283 N 
ATOM     14  C   UNL     1       5.260  -3.061  -0.603  0.00  0.00    +0.234 C 
ATOM     15  O   UNL     1       5.481  -2.078  -1.278  0.00  0.00    -0.274 OA
ATOM     16  C   UNL     1       4.918  -4.395  -1.232  0.00  0.00    +0.203 C 
ATOM     17  N   UNL     1       3.796  -4.990  -0.483  0.00  0.00    -0.291 N 
ATOM     18  C   UNL     1       3.885  -4.963   0.874  0.00  0.00    +0.237 C 
ATOM     19  O   UNL     1       3.035  -5.454   1.586  0.00  0.00    -0.274 OA
ATOM     20  H   UNL     1       6.135   0.284   3.363  0.00  0.00    +0.160 HD
ENDROOT
BRANCH   1  21
ATOM     21  C   UNL     1       4.171  -0.963   1.399  0.00  0.00    +0.029 C 
BRANCH  21  22
ATOM     22  C   UNL     1       3.711  -0.707  -0.038  0.00  0.00    +0.037 C 
BRANCH  22  26
ATOM     23  C   UNL     1      -0.017   1.378   0.010  0.00  0.00    +0.000 A 
ATOM     24  C   UNL     1       1.171   2.086   0.002  0.00  0.00    +0.000 A 
ATOM     25  C   UNL     1       2.377   1.411  -0.013  0.00  0.00    +0.003 A 
ATOM     26  C   UNL     1       2.396   0.029  -0.020  0.00  0.00    -0.047 A 
ATOM     27  C   UNL     1       1.208  -0.679  -0.012  0.00  0.00    +0.003 A 
ATOM     28  C   UNL     1       0.002  -0.004   0.002  0.00  0.00    +0.000 A 
ENDBRANCH  22  26
ENDBRANCH  21  22
ENDBRANCH   1  21
BRANCH  17  29
ATOM     29  C   UNL     1       2.643  -5.582  -1.167  0.00  0.00    +0.113 C 
BRANCH  29  30
ATOM     30  C   UNL     1       2.909  -7.067  -1.423  0.00  0.00    +0.054 C 
BRANCH  30  31
ATOM     31  C   UNL     1       1.723  -7.675  -2.127  0.00  0.00    -0.046 A 
ATOM     32  C   UNL     1       0.687  -8.219  -1.390  0.00  0.00    +0.005 A 
ATOM     33  C   UNL     1      -0.401  -8.777  -2.035  0.00  0.00    +0.020 A 
ATOM     34  C   UNL     1      -0.453  -8.791  -3.417  0.00  0.00    +0.041 A 
ATOM     35  C   UNL     1       0.584  -8.246  -4.154  0.00  0.00    +0.020 A 
ATOM     36  C   UNL     1       1.669  -7.684  -3.508  0.00  0.00    +0.005 A 
ATOM     37 CL   UNL     1      -1.819  -9.492  -4.228  0.00  0.00    -0.084 Cl
ENDBRANCH  30  31
ENDBRANCH  29  30
ENDBRANCH  17  29
TORSDOF 6
