REMARK  Name = ZINC25079797
REMARK  12 active torsions:
REMARK  status: ('A' for Active; 'I' for Inactive)
REMARK    1  A    between atoms: C_1  and  C_2
REMARK    2  A    between atoms: N_5  and  C_8
REMARK    3  A    between atoms: C_8  and  C_10
REMARK    4  A    between atoms: C_8  and  C_31
REMARK    5  A    between atoms: C_10  and  N_11
REMARK    6  A    between atoms: C_12  and  C_14
REMARK    7  A    between atoms: C_14  and  C_16
REMARK    8  A    between atoms: C_14  and  N_17
REMARK    9  A    between atoms: N_17  and  S_18
REMARK   10  A    between atoms: S_18  and  C_21
REMARK   11  A    between atoms: C_24  and  N_27
REMARK   12  A    between atoms: C_28  and  C_30
REMARK                            x       y       z     vdW  Elec       q    Type
REMARK                         _______ _______ _______ _____ _____    ______ ____
ROOT
ATOM      1  N   UNL     1      -4.552   5.140   5.474  0.00  0.00    -0.315 N 
ATOM      2  C   UNL     1      -5.386   4.412   4.705  0.00  0.00    +0.231 C 
ATOM      3  O   UNL     1      -5.748   3.315   5.074  0.00  0.00    -0.274 OA
ATOM      4  H   UNL     1      -4.223   6.135   5.139  0.00  0.00    +0.149 HD
ENDROOT
BRANCH   2   5
ATOM      5  C   UNL     1      -5.868   4.961   3.387  0.00  0.00    +0.159 C 
ATOM      6  C   UNL     1      -6.630   6.266   3.626  0.00  0.00    +0.035 C 
BRANCH   5   7
ATOM      7  N   UNL     1      -6.755   3.986   2.748  0.00  0.00    -0.178 NA
ATOM      8  H   UNL     1      -7.297   3.251   3.360  0.00  0.00    +0.149 HD
BRANCH   7   9
ATOM      9  S   UNL     1      -6.758   3.825   1.099  0.00  0.00    +0.059 S 
ATOM     10  O   UNL     1      -6.865   5.137   0.563  0.00  0.00    -0.153 OA
ATOM     11  O   UNL     1      -7.690   2.798   0.793  0.00  0.00    -0.153 OA
BRANCH   9  12
ATOM     12  C   UNL     1      -5.170   3.220   0.633  0.00  0.00    +0.105 A 
ATOM     13  C   UNL     1      -4.945   1.857   0.561  0.00  0.00    +0.030 A 
ATOM     14  C   UNL     1      -3.702   1.379   0.195  0.00  0.00    +0.025 A 
ATOM     15  C   UNL     1      -2.677   2.269  -0.101  0.00  0.00    +0.033 A 
ATOM     16  C   UNL     1      -2.905   3.637  -0.021  0.00  0.00    +0.025 A 
ATOM     17  C   UNL     1      -4.152   4.108   0.339  0.00  0.00    +0.030 A 
BRANCH  15  18
ATOM     18  N   UNL     1      -1.417   1.788  -0.472  0.00  0.00    -0.286 N 
ATOM     19  C   UNL     1      -0.665   2.478  -1.353  0.00  0.00    +0.214 C 
ATOM     20  O   UNL     1      -1.116   3.466  -1.892  0.00  0.00    -0.276 OA
ATOM     21  C   UNL     1       0.735   2.020  -1.669  0.00  0.00    +0.109 C 
ATOM     22  H   UNL     1      -1.039   0.848  -0.044  0.00  0.00    +0.155 HD
ENDBRANCH  15  18
ENDBRANCH   9  12
ENDBRANCH   7   9
ENDBRANCH   5   7
ENDBRANCH   2   5
BRANCH   1  23
ATOM     23  C   UNL     1      -4.084   4.607   6.755  0.00  0.00    +0.094 C 
BRANCH  23  24
ATOM     24  C   UNL     1      -3.157   5.624   7.423  0.00  0.00    -0.013 C 
BRANCH  24  29
ATOM     25  C   UNL     1      -5.879  10.450   8.829  0.00  0.00    +0.007 C 
ATOM     26  C   UNL     1      -5.174   9.093   8.899  0.00  0.00    -0.018 C 
ATOM     27  C   UNL     1      -3.753   9.226   8.345  0.00  0.00    -0.015 C 
ATOM     28  C   UNL     1      -3.074   7.854   8.361  0.00  0.00    -0.078 C 
ATOM     29  N   UNL     1      -3.851   6.913   7.544  0.00  0.00    +0.386 N 
ATOM     30  C   UNL     1      -5.205   6.734   8.084  0.00  0.00    -0.078 C 
ATOM     31  C   UNL     1      -5.947   8.072   8.059  0.00  0.00    -0.015 C 
ATOM     32  H   UNL     1      -3.946   7.344   6.537  0.00  0.00    -0.081 HD
ENDBRANCH  24  29
BRANCH  24  33
ATOM     33  C   UNL     1      -2.773   5.130   8.794  0.00  0.00    -0.022 A 
ATOM     34  C   UNL     1      -1.583   4.643   9.224  0.00  0.00    +0.009 A 
ATOM     35  C   UNL     1      -1.458   4.244  10.541  0.00  0.00    +0.008 A 
ATOM     36  C   UNL     1      -2.529   4.353  11.365  0.00  0.00    +0.045 A 
ATOM     37  S   UNL     1      -3.764   5.042  10.276  0.00  0.00    -0.103 S 
ENDBRANCH  24  33
ENDBRANCH  23  24
ENDBRANCH   1  23
TORSDOF 9
