REMARK  Name = ZINC20568905
REMARK  11 active torsions:
REMARK  status: ('A' for Active; 'I' for Inactive)
REMARK    1  A    between atoms: C_1  and  C_2
REMARK    2  A    between atoms: C_2  and  C_3
REMARK    3  A    between atoms: C_3  and  C_4
REMARK    4  A    between atoms: C_6  and  C_9
REMARK    5  A    between atoms: N_11  and  N_12
REMARK    6  A    between atoms: C_13  and  C_14
REMARK    7  A    between atoms: C_13  and  C_15
REMARK    8  A    between atoms: C_18  and  N_21
REMARK    9  A    between atoms: C_22  and  C_24
REMARK   10  A    between atoms: C_24  and  C_25
REMARK   11  A    between atoms: C_25  and  C_26
REMARK                            x       y       z     vdW  Elec       q    Type
REMARK                         _______ _______ _______ _____ _____    ______ ____
ROOT
ATOM      1  C   UNL     1       0.838   8.155   0.052  0.00  0.00    -0.002 A 
ATOM      2  C   UNL     1      -0.096   9.181  -0.123  0.00  0.00    +0.011 A 
ATOM      3  C   UNL     1       0.318  10.495  -0.119  0.00  0.00    +0.024 A 
ATOM      4  C   UNL     1       1.664  10.801   0.047  0.00  0.00    +0.034 A 
ATOM      5  C   UNL     1       2.597   9.784   0.215  0.00  0.00    +0.024 A 
ATOM      6  C   UNL     1       2.190   8.467   0.219  0.00  0.00    +0.011 A 
ENDROOT
BRANCH   4   7
ATOM      7  N   UNL     1       2.081  12.135   0.045  0.00  0.00    -0.280 N 
ATOM      8  C   UNL     1       3.288  12.463  -0.458  0.00  0.00    +0.293 C 
ATOM      9  O   UNL     1       3.971  11.618  -0.996  0.00  0.00    -0.269 OA
ATOM     10  H   UNL     1       1.424  12.917   0.454  0.00  0.00    +0.155 HD
BRANCH   8  11
ATOM     11  C   UNL     1       3.787  13.881  -0.354  0.00  0.00    +0.393 C 
ATOM     12  F   UNL     1       2.710  14.766  -0.477  0.00  0.00    -0.188 F 
ATOM     13  F   UNL     1       4.403  14.068   0.888  0.00  0.00    -0.188 F 
BRANCH  11  14
ATOM     14  C   UNL     1       4.798  14.150  -1.470  0.00  0.00    +0.411 C 
ATOM     15  F   UNL     1       5.875  13.266  -1.347  0.00  0.00    -0.189 F 
ATOM     16  F   UNL     1       4.182  13.963  -2.712  0.00  0.00    -0.189 F 
BRANCH  14  17
ATOM     17  C   UNL     1       5.305  15.589  -1.364  0.00  0.00    +0.461 C 
ATOM     18  F   UNL     1       5.921  15.776  -0.122  0.00  0.00    -0.165 F 
ATOM     19  F   UNL     1       6.230  15.835  -2.385  0.00  0.00    -0.165 F 
ATOM     20  F   UNL     1       4.228  16.474  -1.487  0.00  0.00    -0.165 F 
ENDBRANCH  14  17
ENDBRANCH  11  14
ENDBRANCH   8  11
ENDBRANCH   4   7
BRANCH   1  22
ATOM     21  N   UNL     1       1.268   5.797   0.212  0.00  0.00    -0.184 NA
ATOM     22  C   UNL     1       0.399   6.748   0.055  0.00  0.00    +0.063 C 
ATOM     23  C   UNL     1      -1.060   6.414  -0.125  0.00  0.00    +0.068 C 
BRANCH  21  26
ATOM     24  C   UNL     1       1.752   3.472   0.378  0.00  0.00    +0.264 C 
ATOM     25  O   UNL     1       2.930   3.742   0.524  0.00  0.00    -0.268 OA
ATOM     26  N   UNL     1       0.850   4.460   0.215  0.00  0.00    -0.203 N 
ATOM     27  H   UNL     1      -0.215   4.216   0.083  0.00  0.00    +0.178 HD
BRANCH  24  30
ATOM     28  C   UNL     1       1.753  -0.265   0.541  0.00  0.00    -0.009 A 
ATOM     29  C   UNL     1       2.251   0.987   0.553  0.00  0.00    +0.024 A 
ATOM     30  C   UNL     1       1.314   2.068   0.381  0.00  0.00    +0.046 A 
ATOM     31  C   UNL     1      -0.013   1.727   0.218  0.00  0.00    +0.058 A 
ATOM     32  S   UNL     1       0.008  -0.003   0.296  0.00  0.00    -0.101 S 
BRANCH  28  33
ATOM     33  C   UNL     1       2.491  -1.570   0.696  0.00  0.00    +0.042 C 
BRANCH  33  35
ATOM     34  C   UNL     1       3.301  -3.273   2.335  0.00  0.00    +0.004 C 
ATOM     35  C   UNL     1       2.551  -1.949   2.177  0.00  0.00    +0.002 C 
ENDBRANCH  33  35
ENDBRANCH  28  33
ENDBRANCH  24  30
ENDBRANCH  21  26
ENDBRANCH   1  22
TORSDOF 9
