REMARK  Name = ZINC35828363
REMARK  8 active torsions:
REMARK  status: ('A' for Active; 'I' for Inactive)
REMARK    1  A    between atoms: C_1  and  C_2
REMARK    2  A    between atoms: N_13  and  C_27
REMARK    3  A    between atoms: C_14  and  S_16
REMARK    4  A    between atoms: S_16  and  C_17
REMARK    5  A    between atoms: C_17  and  C_18
REMARK    6  A    between atoms: N_23  and  C_24
REMARK    7  A    between atoms: C_27  and  C_28
REMARK    8  A    between atoms: C_28  and  C_29
REMARK                            x       y       z     vdW  Elec       q    Type
REMARK                         _______ _______ _______ _____ _____    ______ ____
ROOT
ATOM      1  C   UNL     1      -0.019   1.526   0.010  0.00  0.00    +0.008 C 
ATOM      2  C   UNL     1       0.002  -0.004   0.002  0.00  0.00    -0.009 C 
ATOM      3  C   UNL     1       0.726  -0.501  -1.253  0.00  0.00    +0.008 C 
ATOM      4  C   UNL     1       0.536  -2.011  -1.397  0.00  0.00    +0.037 C 
ATOM      5  C   UNL     1       0.950  -2.688  -0.092  0.00  0.00    -0.023 A 
ATOM      6  C   UNL     1       1.032  -1.976   1.055  0.00  0.00    -0.004 A 
ATOM      7  S   UNL     1       1.538  -3.144   2.292  0.00  0.00    -0.073 S 
ATOM      8  C   UNL     1       1.639  -4.581   1.272  0.00  0.00    +0.117 A 
ATOM      9  C   UNL     1       1.273  -4.103  -0.006  0.00  0.00    +0.076 A 
ATOM     10  C   UNL     1       1.257  -5.051  -1.081  0.00  0.00    +0.263 A 
ATOM     11  O   UNL     1       0.955  -4.735  -2.219  0.00  0.00    -0.267 OA
ATOM     12  N   UNL     1       1.598  -6.320  -0.754  0.00  0.00    -0.287 N 
ATOM     13  C   UNL     1       1.938  -6.694   0.511  0.00  0.00    +0.173 A 
ATOM     14  N   UNL     1       1.963  -5.842   1.527  0.00  0.00    -0.216 NA
ATOM     15  C   UNL     1       0.751  -0.516   1.240  0.00  0.00    +0.046 C 
ENDROOT
BRANCH  13  16
ATOM     16  S   UNL     1       2.361  -8.378   0.809  0.00  0.00    -0.078 S 
BRANCH  16  17
ATOM     17  C   UNL     1       2.736  -8.429   2.583  0.00  0.00    +0.173 C 
BRANCH  17  18
ATOM     18  C   UNL     1       3.118  -9.833   2.975  0.00  0.00    +0.231 C 
ATOM     19  O   UNL     1       3.136 -10.712   2.140  0.00  0.00    -0.274 OA
ATOM     20  N   UNL     1       3.440 -10.111   4.254  0.00  0.00    -0.239 N 
ATOM     21  C   UNL     1       3.782 -11.367   4.605  0.00  0.00    +0.306 C 
ATOM     22  O   UNL     1       3.800 -12.248   3.768  0.00  0.00    -0.252 OA
ATOM     23  N   UNL     1       4.105 -11.645   5.884  0.00  0.00    -0.296 N 
ATOM     24  H   UNL     1       3.426  -9.408   4.922  0.00  0.00    +0.159 HD
ATOM     25  H   UNL     1       4.090 -10.941   6.551  0.00  0.00    +0.151 HD
BRANCH  23  26
ATOM     26  C   UNL     1       4.476 -13.010   6.265  0.00  0.00    +0.075 C 
ATOM     27  C   UNL     1       3.885 -13.566   7.562  0.00  0.00    +0.024 C 
ATOM     28  C   UNL     1       5.365 -13.181   7.499  0.00  0.00    +0.024 C 
ENDBRANCH  23  26
ENDBRANCH  17  18
ENDBRANCH  16  17
ENDBRANCH  13  16
BRANCH  12  29
ATOM     29  C   UNL     1       1.601  -7.337  -1.808  0.00  0.00    +0.132 C 
BRANCH  29  30
ATOM     30  C   UNL     1       2.984  -7.392  -2.459  0.00  0.00    +0.057 C 
BRANCH  30  31
ATOM     31  C   UNL     1       2.987  -8.438  -3.544  0.00  0.00    -0.046 A 
ATOM     32  C   UNL     1       3.325  -9.745  -3.244  0.00  0.00    +0.004 A 
ATOM     33  C   UNL     1       3.328 -10.704  -4.239  0.00  0.00    +0.000 A 
ATOM     34  C   UNL     1       2.993 -10.358  -5.534  0.00  0.00    +0.000 A 
ATOM     35  C   UNL     1       2.654  -9.052  -5.834  0.00  0.00    +0.000 A 
ATOM     36  C   UNL     1       2.647  -8.093  -4.838  0.00  0.00    +0.004 A 
ENDBRANCH  30  31
ENDBRANCH  29  30
ENDBRANCH  12  29
TORSDOF 7
