REMARK  Name = ZINC66612443
REMARK  5 active torsions:
REMARK  status: ('A' for Active; 'I' for Inactive)
REMARK    1  A    between atoms: C_6  and  C_7
REMARK    2  A    between atoms: C_7  and  N_8
REMARK    3  A    between atoms: N_11  and  C_12
REMARK    4  A    between atoms: C_12  and  C_13
REMARK    5  A    between atoms: N_15  and  C_16
REMARK                            x       y       z     vdW  Elec       q    Type
REMARK                         _______ _______ _______ _____ _____    ______ ____
ROOT
ATOM      1  N   UNL     1      -1.726  -1.017  -1.368  0.00  0.00    -0.295 N 
ATOM      2  C   UNL     1      -2.867  -1.694  -1.606  0.00  0.00    +0.300 C 
ATOM      3  O   UNL     1      -3.537  -2.103  -0.678  0.00  0.00    -0.253 OA
ATOM      4  N   UNL     1      -3.266  -1.917  -2.874  0.00  0.00    -0.291 N 
ATOM      5  H   UNL     1      -1.192  -0.691  -2.108  0.00  0.00    +0.151 HD
ATOM      6  H   UNL     1      -2.731  -1.590  -3.615  0.00  0.00    +0.151 HD
ENDROOT
BRANCH   1   7
ATOM      7  C   UNL     1      -1.293  -0.775   0.011  0.00  0.00    +0.141 C 
BRANCH   7  13
ATOM      8  C   UNL     1      -0.017   1.378   0.010  0.00  0.00    +0.006 A 
ATOM      9  C   UNL     1       1.171   2.086   0.002  0.00  0.00    +0.020 A 
ATOM     10  C   UNL     1       2.378   1.410  -0.013  0.00  0.00    +0.041 A 
ATOM     11  C   UNL     1       2.396   0.027  -0.021  0.00  0.00    +0.020 A 
ATOM     12  C   UNL     1       1.208  -0.679  -0.013  0.00  0.00    +0.006 A 
ATOM     13  C   UNL     1       0.002  -0.004   0.002  0.00  0.00    -0.030 A 
ATOM     14 CL   UNL     1       3.870   2.298  -0.023  0.00  0.00    -0.084 Cl
ENDBRANCH   7  13
ENDBRANCH   1   7
BRANCH   4  15
ATOM     15  C   UNL     1      -4.506  -2.652  -3.134  0.00  0.00    +0.201 C 
BRANCH  15  16
ATOM     16  C   UNL     1      -4.722  -2.764  -4.621  0.00  0.00    +0.231 C 
ATOM     17  O   UNL     1      -3.919  -2.277  -5.389  0.00  0.00    -0.274 OA
ATOM     18  N   UNL     1      -5.807  -3.405  -5.098  0.00  0.00    -0.303 N 
ATOM     19  H   UNL     1      -6.450  -3.794  -4.484  0.00  0.00    +0.149 HD
BRANCH  18  20
ATOM     20  C   UNL     1      -6.017  -3.514  -6.544  0.00  0.00    +0.159 C 
ATOM     21  C   UNL     1      -6.895  -4.731  -6.846  0.00  0.00    +0.032 C 
ATOM     22  C   UNL     1      -6.652  -5.231  -8.258  0.00  0.00    +0.004 C 
ATOM     23  C   UNL     1      -7.107  -4.266  -9.337  0.00  0.00    +0.019 C 
ATOM     24  C   UNL     1      -6.253  -2.996  -9.328  0.00  0.00    +0.104 C 
ATOM     25  N   UNL     1      -6.829  -2.048  -8.360  0.00  0.00    -0.314 N 
ATOM     26  C   UNL     1      -6.720  -2.272  -7.051  0.00  0.00    +0.233 C 
ATOM     27  O   UNL     1      -7.192  -1.480  -6.262  0.00  0.00    -0.274 OA
ATOM     28  H   UNL     1      -7.287  -1.254  -8.677  0.00  0.00    +0.149 HD
ENDBRANCH  18  20
ENDBRANCH  15  16
ENDBRANCH   4  15
TORSDOF 5
