REMARK  Name = ZINC63533471
REMARK  6 active torsions:
REMARK  status: ('A' for Active; 'I' for Inactive)
REMARK    1  A    between atoms: C_7  and  C_10
REMARK    2  A    between atoms: C_10  and  C_11
REMARK    3  A    between atoms: C_11  and  N_12
REMARK    4  A    between atoms: C_13  and  C_15
REMARK    5  A    between atoms: C_15  and  C_16
REMARK    6  A    between atoms: N_20  and  C_24
REMARK                            x       y       z     vdW  Elec       q    Type
REMARK                         _______ _______ _______ _____ _____    ______ ____
ROOT
ATOM      1  N   UNL     1      -0.458  -4.798  -1.460  0.00  0.00    -0.315 N 
ATOM      2  C   UNL     1      -0.811  -5.380  -2.623  0.00  0.00    +0.215 C 
ATOM      3  O   UNL     1      -0.371  -4.957  -3.671  0.00  0.00    -0.276 OA
ATOM      4  H   UNL     1      -0.810  -5.136  -0.622  0.00  0.00    +0.149 HD
ENDROOT
BRANCH   1   5
ATOM      5  C   UNL     1       0.457  -3.653  -1.462  0.00  0.00    +0.108 C 
BRANCH   5   6
ATOM      6  C   UNL     1       0.691  -3.186  -0.024  0.00  0.00    +0.052 C 
BRANCH   6  13
ATOM      7  C   UNL     1      -0.016   1.348   0.009  0.00  0.00    +0.001 A 
ATOM      8  C   UNL     1       1.166   2.101   0.002  0.00  0.00    +0.002 A 
ATOM      9  C   UNL     1       2.391   1.535  -0.013  0.00  0.00    +0.026 A 
ATOM     10  C   UNL     1       2.529   0.120  -0.022  0.00  0.00    +0.043 A 
ATOM     11  N   UNL     1       3.587  -0.654  -0.037  0.00  0.00    -0.380 N 
ATOM     12  C   UNL     1       3.143  -2.053  -0.041  0.00  0.00    +0.144 C 
ATOM     13  C   UNL     1       1.631  -2.008  -0.025  0.00  0.00    -0.040 C 
ATOM     14  C   UNL     1       1.295  -0.698  -0.014  0.00  0.00    -0.001 A 
ATOM     15  C   UNL     1       0.002  -0.004   0.002  0.00  0.00    +0.010 A 
ATOM     16  H   UNL     1       4.509  -0.353  -0.045  0.00  0.00    +0.160 HD
ENDBRANCH   6  13
ENDBRANCH   5   6
ENDBRANCH   1   5
BRANCH   2  17
ATOM     17  C   UNL     1      -1.752  -6.557  -2.622  0.00  0.00    +0.127 C 
BRANCH  17  18
ATOM     18  C   UNL     1      -1.986  -7.025  -4.059  0.00  0.00    +0.170 C 
ATOM     19  C   UNL     1      -2.874  -8.253  -4.083  0.00  0.00    +0.244 C 
ATOM     20  O   UNL     1      -2.643  -9.334  -3.583  0.00  0.00    -0.273 OA
ATOM     21  N   UNL     1      -3.974  -7.895  -4.774  0.00  0.00    -0.221 N 
ATOM     22  C   UNL     1      -3.905  -6.624  -5.187  0.00  0.00    +0.309 C 
ATOM     23  O   UNL     1      -4.777  -6.074  -5.829  0.00  0.00    -0.252 OA
ATOM     24  N   UNL     1      -2.758  -6.021  -4.812  0.00  0.00    -0.287 N 
ATOM     25  H   UNL     1      -2.492  -5.107  -4.999  0.00  0.00    +0.151 HD
BRANCH  21  26
ATOM     26  C   UNL     1      -5.105  -8.786  -5.042  0.00  0.00    +0.086 C 
ATOM     27  C   UNL     1      -6.377  -8.194  -4.432  0.00  0.00    +0.023 C 
ATOM     28  C   UNL     1      -7.558  -9.125  -4.712  0.00  0.00    +0.002 C 
ATOM     29  C   UNL     1      -7.740  -9.278  -6.223  0.00  0.00    +0.000 C 
ATOM     30  C   UNL     1      -6.468  -9.871  -6.833  0.00  0.00    +0.002 C 
ATOM     31  C   UNL     1      -5.287  -8.940  -6.553  0.00  0.00    +0.023 C 
ENDBRANCH  21  26
ENDBRANCH  17  18
ENDBRANCH   2  17
TORSDOF 6
