REMARK  Name = ZINC39926693
REMARK  8 active torsions:
REMARK  status: ('A' for Active; 'I' for Inactive)
REMARK    1  A    between atoms: C_1  and  C_2
REMARK    2  A    between atoms: C_2  and  C_3
REMARK    3  A    between atoms: C_2  and  C_4
REMARK    4  A    between atoms: C_4  and  O_5
REMARK    5  A    between atoms: O_5  and  C_6
REMARK    6  A    between atoms: C_6  and  C_8
REMARK    7  A    between atoms: C_8  and  C_19
REMARK    8  A    between atoms: C_9  and  C_10
REMARK                            x       y       z     vdW  Elec       q    Type
REMARK                         _______ _______ _______ _____ _____    ______ ____
ROOT
ATOM      1  C   UNL     1      -2.672  -4.114   0.157  0.00  0.00    +0.136 C 
ATOM      2  C   UNL     1      -3.889  -4.705  -0.149  0.00  0.00    +0.032 C 
ENDROOT
BRANCH   2   3
ATOM      3  C   UNL     1      -5.072  -3.967  -0.037  0.00  0.00    -0.018 C 
ATOM      4  C   UNL     1      -6.356  -4.462   0.164  0.00  0.00    +0.003 A 
ATOM      5  C   UNL     1      -6.869  -5.769   0.312  0.00  0.00    +0.010 A 
ATOM      6  C   UNL     1      -8.195  -5.965   0.500  0.00  0.00    +0.001 A 
ATOM      7  C   UNL     1      -9.110  -4.906   0.557  0.00  0.00    +0.002 A 
ATOM      8  C   UNL     1      -8.720  -3.617   0.426  0.00  0.00    +0.026 A 
ATOM      9  C   UNL     1      -7.295  -3.319   0.219  0.00  0.00    +0.043 A 
ATOM     10  N   UNL     1      -6.654  -2.192   0.065  0.00  0.00    -0.380 N 
ATOM     11  C   UNL     1      -5.224  -2.463  -0.103  0.00  0.00    +0.149 C 
ATOM     12  H   UNL     1      -7.061  -1.311   0.066  0.00  0.00    +0.160 HD
ENDBRANCH   2   3
BRANCH   1  13
ATOM     13  C   UNL     1      -2.638  -2.803   0.826  0.00  0.00    +0.350 C 
ATOM     14  O   UNL     1      -2.603  -1.784   0.164  0.00  0.00    -0.244 OA
BRANCH  13  15
ATOM     15  O   UNL     1      -2.646  -2.732   2.172  0.00  0.00    -0.460 OA
BRANCH  15  16
ATOM     16  C   UNL     1      -2.611  -1.427   2.753  0.00  0.00    +0.235 C 
BRANCH  16  18
ATOM     17  C   UNL     1      -2.463  -0.159   4.901  0.00  0.00    +0.010 C 
ATOM     18  C   UNL     1      -2.626  -1.547   4.278  0.00  0.00    +0.020 C 
ATOM     19  C   UNL     1      -3.955  -2.156   4.729  0.00  0.00    +0.010 C 
ENDBRANCH  16  18
ENDBRANCH  15  16
ENDBRANCH  13  15
ENDBRANCH   1  13
BRANCH   1  20
ATOM     20  C   UNL     1      -1.449  -4.780  -0.176  0.00  0.00    +0.106 C 
ATOM     21  N   UNL     1      -0.478  -5.308  -0.441  0.00  0.00    -0.191 NA
ENDBRANCH   1  20
TORSDOF 6
