REMARK  Name = ZINC21124806
REMARK  10 active torsions:
REMARK  status: ('A' for Active; 'I' for Inactive)
REMARK    1  A    between atoms: C_1  and  C_2
REMARK    2  A    between atoms: C_2  and  C_4
REMARK    3  A    between atoms: C_2  and  S_14
REMARK    4  A    between atoms: S_14  and  C_15
REMARK    5  A    between atoms: C_18  and  C_21
REMARK    6  A    between atoms: N_19  and  N_20
REMARK    7  A    between atoms: C_24  and  C_27
REMARK    8  A    between atoms: C_27  and  C_28
REMARK    9  A    between atoms: C_27  and  C_29
REMARK   10  A    between atoms: C_27  and  C_30
REMARK                            x       y       z     vdW  Elec       q    Type
REMARK                         _______ _______ _______ _____ _____    ______ ____
ROOT
ATOM      1  C   UNL     1       6.438   6.332   0.180  0.00  0.00    +0.209 A 
ATOM      2  N   UNL     1       7.468   5.561  -0.086  0.00  0.00    -0.121 NA
ATOM      3  N   UNL     1       8.559   6.233   0.014  0.00  0.00    -0.127 NA
ATOM      4  C   UNL     1       8.293   7.471   0.359  0.00  0.00    +0.182 A 
ATOM      5  N   UNL     1       6.926   7.572   0.476  0.00  0.00    -0.224 N 
ENDROOT
BRANCH   4   6
ATOM      6  C   UNL     1       9.276   8.552   0.581  0.00  0.00    +0.021 A 
ATOM      7  C   UNL     1      10.580   8.424   0.099  0.00  0.00    +0.012 A 
ATOM      8  C   UNL     1      11.491   9.439   0.305  0.00  0.00    +0.005 A 
ATOM      9  C   UNL     1      11.118  10.578   0.996  0.00  0.00    -0.042 A 
ATOM     10  C   UNL     1       9.829  10.709   1.482  0.00  0.00    +0.005 A 
ATOM     11  C   UNL     1       8.907   9.704   1.278  0.00  0.00    +0.012 A 
BRANCH   9  12
ATOM     12  C   UNL     1      12.121  11.680   1.223  0.00  0.00    -0.013 C 
ATOM     13  C   UNL     1      12.310  11.897   2.726  0.00  0.00    +0.015 C 
ATOM     14  C   UNL     1      13.459  11.290   0.592  0.00  0.00    +0.015 C 
ATOM     15  C   UNL     1      11.612  12.972   0.581  0.00  0.00    +0.015 C 
ENDBRANCH   9  12
ENDBRANCH   4   6
BRANCH   5  16
ATOM     16  N   UNL     1       6.207   8.682   0.818  0.00  0.00    -0.295 N 
ATOM     17  H   UNL     1       6.725   9.628   1.034  0.00  0.00    +0.163 HD
ATOM     18  H   UNL     1       5.109   8.630   0.877  0.00  0.00    +0.163 HD
ENDBRANCH   5  16
BRANCH   1  19
ATOM     19  S   UNL     1       4.742   5.852   0.165  0.00  0.00    -0.072 S 
BRANCH  19  21
ATOM     20  C   UNL     1       5.482   4.021  -1.724  0.00  0.00    +0.029 C 
ATOM     21  C   UNL     1       4.912   4.112  -0.307  0.00  0.00    +0.137 C 
BRANCH  21  22
ATOM     22  C   UNL     1       3.561   3.447  -0.266  0.00  0.00    +0.231 C 
ATOM     23  O   UNL     1       2.554   4.109  -0.402  0.00  0.00    -0.274 OA
ATOM     24  N   UNL     1       3.471   2.115  -0.077  0.00  0.00    -0.269 N 
ATOM     25  C   UNL     1       2.230   1.484  -0.143  0.00  0.00    +0.125 A 
ATOM     26  C   UNL     1       2.156   0.098  -0.056  0.00  0.00    +0.045 A 
ATOM     27  C   UNL     1       0.918  -0.516  -0.122  0.00  0.00    +0.025 A 
ATOM     28  C   UNL     1      -0.209   0.281  -0.275  0.00  0.00    +0.059 A 
ATOM     29  C   UNL     1      -0.062   1.652  -0.355  0.00  0.00    +0.132 A 
ATOM     30  N   UNL     1       1.132   2.209  -0.288  0.00  0.00    -0.239 NA
ATOM     31 CL   UNL     1      -1.786  -0.439  -0.365  0.00  0.00    -0.082 Cl
ATOM     32  H   UNL     1       4.377   1.526   0.128  0.00  0.00    +0.156 HD
ENDBRANCH  21  22
ENDBRANCH  19  21
ENDBRANCH   1  19
TORSDOF 6
