REMARK  Name = ZINC05721435
REMARK  6 active torsions:
REMARK  status: ('A' for Active; 'I' for Inactive)
REMARK    1  A    between atoms: C_1  and  C_2
REMARK    2  A    between atoms: C_3  and  C_21
REMARK    3  A    between atoms: C_4  and  O_20
REMARK    4  A    between atoms: C_10  and  C_13
REMARK    5  A    between atoms: C_13  and  N_52
REMARK    6  A    between atoms: C_16  and  C_19
REMARK                            x       y       z     vdW  Elec       q    Type
REMARK                         _______ _______ _______ _____ _____    ______ ____
ROOT
ATOM      1  C   UNL     1       6.038  -0.761  -0.059  0.00  0.00    +0.087 C 
ATOM      2  C   UNL     1       4.750   0.021  -0.042  0.00  0.00    +0.114 A 
ATOM      3  C   UNL     1       4.798   1.395  -0.035  0.00  0.00    +0.062 A 
ATOM      4  C   UNL     1       3.595   2.135  -0.020  0.00  0.00    +0.138 A 
ATOM      5  C   UNL     1       2.376   1.425  -0.013  0.00  0.00    +0.060 A 
ATOM      6  C   UNL     1       1.145   2.106   0.002  0.00  0.00    +0.019 A 
ATOM      7  C   UNL     1      -0.017   1.404   0.010  0.00  0.00    +0.052 A 
ATOM      8  C   UNL     1       0.002  -0.004   0.002  0.00  0.00    +0.184 A 
ATOM      9  O   UNL     1      -1.146  -0.683   0.009  0.00  0.00    -0.288 OA
ATOM     10  C   UNL     1       1.218  -0.694  -0.013  0.00  0.00    +0.026 A 
ATOM     11  C   UNL     1       2.406   0.011  -0.021  0.00  0.00    +0.144 A 
ATOM     12  O   UNL     1       3.588  -0.638  -0.035  0.00  0.00    -0.459 OA
ENDROOT
BRANCH   3  13
ATOM     13  C   UNL     1       6.106   2.095  -0.043  0.00  0.00    -0.011 A 
ATOM     14  C   UNL     1       6.970   1.975   1.044  0.00  0.00    +0.009 A 
ATOM     15  C   UNL     1       8.188   2.625   1.029  0.00  0.00    +0.001 A 
ATOM     16  C   UNL     1       8.546   3.403  -0.057  0.00  0.00    +0.000 A 
ATOM     17  C   UNL     1       7.690   3.530  -1.136  0.00  0.00    +0.001 A 
ATOM     18  C   UNL     1       6.472   2.880  -1.134  0.00  0.00    +0.009 A 
ENDBRANCH   3  13
BRANCH   4  19
ATOM     19  O   UNL     1       3.612   3.485  -0.013  0.00  0.00    -0.505 OA
ATOM     20  H   UNL     1       3.609   3.883  -0.894  0.00  0.00    +0.292 HD
ENDBRANCH   4  19
BRANCH  10  21
ATOM     21  C   UNL     1       1.232  -2.201  -0.021  0.00  0.00    -0.035 C 
BRANCH  21  28
ATOM     22  C   UNL     1       2.191  -1.944  -2.229  0.00  0.00    -0.078 C 
ATOM     23  C   UNL     1       2.052  -2.370  -3.692  0.00  0.00    -0.016 C 
ATOM     24  C   UNL     1       2.304  -3.877  -3.806  0.00  0.00    -0.018 C 
ATOM     25  C   UNL     1       1.315  -4.621  -2.905  0.00  0.00    -0.016 C 
ATOM     26  C   UNL     1       1.475  -4.129  -1.464  0.00  0.00    -0.078 C 
ATOM     27  C   UNL     1       2.107  -4.320  -5.257  0.00  0.00    +0.007 C 
ATOM     28  N   UNL     1       1.196  -2.678  -1.419  0.00  0.00    +0.383 N 
ATOM     29  H   UNL     1       0.260  -2.506  -1.805  0.00  0.00    -0.081 HD
ENDBRANCH  21  28
ENDBRANCH  10  21
TORSDOF 4
