REMARK  Name = ZINC40139857
REMARK  4 active torsions:
REMARK  status: ('A' for Active; 'I' for Inactive)
REMARK    1  A    between atoms: C_5  and  C_7
REMARK    2  A    between atoms: C_10  and  C_12
REMARK    3  A    between atoms: C_12  and  C_14
REMARK    4  A    between atoms: C_15  and  C_16
REMARK                            x       y       z     vdW  Elec       q    Type
REMARK                         _______ _______ _______ _____ _____    ______ ____
ROOT
ATOM      1  C   UNL     1       1.250  -2.160  -0.023  0.00  0.00    +0.021 A 
ATOM      2  C   UNL     1       0.577  -3.048   0.801  0.00  0.00    +0.017 A 
ATOM      3  C   UNL     1       0.756  -4.389   0.608  0.00  0.00    +0.020 A 
ATOM      4  C   UNL     1       1.605  -4.808  -0.408  0.00  0.00    +0.059 A 
ATOM      5  S   UNL     1       2.152  -3.257  -1.104  0.00  0.00    -0.085 S 
ENDROOT
BRANCH   1  10
ATOM      6  C   UNL     1      -0.017   1.375   0.010  0.00  0.00    +0.001 A 
ATOM      7  C   UNL     1       1.170   2.087   0.002  0.00  0.00    +0.001 A 
ATOM      8  C   UNL     1       2.383   1.422  -0.013  0.00  0.00    +0.016 A 
ATOM      9  C   UNL     1       2.417   0.042  -0.022  0.00  0.00    +0.026 A 
ATOM     10  C   UNL     1       1.222  -0.683  -0.014  0.00  0.00    +0.003 A 
ATOM     11  C   UNL     1       0.002  -0.004   0.002  0.00  0.00    +0.010 A 
ATOM     12 BR   UNL     1       4.076  -0.866  -0.044  0.00  0.00    -0.050 Br
ENDBRANCH   1  10
BRANCH   4  13
ATOM     13  C   UNL     1       1.957  -6.173  -0.810  0.00  0.00    +0.193 C 
ATOM     14  O   UNL     1       1.478  -7.126  -0.217  0.00  0.00    -0.287 OA
BRANCH  13  15
ATOM     15  C   UNL     1       2.882  -6.393  -1.920  0.00  0.00    +0.054 C 
ATOM     16  C   UNL     1       3.206  -7.651  -2.291  0.00  0.00    +0.034 C 
BRANCH  16  17
ATOM     17  C   UNL     1       4.136  -7.872  -3.407  0.00  0.00    +0.095 A 
ATOM     18  C   UNL     1       4.507  -9.136  -3.841  0.00  0.00    +0.096 A 
ATOM     19  S   UNL     1       5.553  -8.776  -5.104  0.00  0.00    +0.029 S 
ATOM     20  N   UNL     1       5.498  -7.160  -5.052  0.00  0.00    -0.110 NA
ATOM     21  N   UNL     1       4.691  -6.879  -4.092  0.00  0.00    -0.142 NA
ENDBRANCH  16  17
ENDBRANCH  13  15
ENDBRANCH   4  13
TORSDOF 4
