REMARK  Name = ZINC48261111
REMARK  5 active torsions:
REMARK  status: ('A' for Active; 'I' for Inactive)
REMARK    1  A    between atoms: C_6  and  C_7
REMARK    2  A    between atoms: C_7  and  C_8
REMARK    3  A    between atoms: C_8  and  N_9
REMARK    4  A    between atoms: N_9  and  C_10
REMARK    5  A    between atoms: C_15  and  N_16
REMARK                            x       y       z     vdW  Elec       q    Type
REMARK                         _______ _______ _______ _____ _____    ______ ____
ROOT
ATOM      1  C   UNL     1      -3.587  -2.179  -2.629  0.00  0.00    +0.050 A 
ATOM      2  C   UNL     1      -3.007  -1.815  -3.834  0.00  0.00    +0.048 A 
ATOM      3  C   UNL     1      -3.612  -2.174  -5.031  0.00  0.00    +0.038 A 
ATOM      4  C   UNL     1      -4.798  -2.897  -5.021  0.00  0.00    -0.024 A 
ATOM      5  C   UNL     1      -5.379  -3.260  -3.821  0.00  0.00    +0.030 A 
ATOM      6  C   UNL     1      -4.776  -2.909  -2.623  0.00  0.00    +0.046 A 
ATOM      7  C   UNL     1      -5.449  -3.285  -6.323  0.00  0.00    +0.046 C 
ATOM      8  C   UNL     1      -5.211  -2.188  -7.361  0.00  0.00    +0.101 C 
ATOM      9  C   UNL     1      -3.754  -1.811  -7.382  0.00  0.00    +0.218 C 
ATOM     10  O   UNL     1      -3.229  -1.505  -8.432  0.00  0.00    -0.275 OA
ATOM     11  N   UNL     1      -3.027  -1.808  -6.250  0.00  0.00    -0.285 N 
ATOM     12  H   UNL     1      -2.092  -1.552  -6.278  0.00  0.00    +0.155 HD
ENDROOT
BRANCH   6  13
ATOM     13  N   UNL     1      -5.363  -3.284  -1.405  0.00  0.00    -0.357 N 
ATOM     14  H   UNL     1      -4.942  -3.035  -0.567  0.00  0.00    +0.142 HD
ATOM     15  H   UNL     1      -6.189  -3.792  -1.401  0.00  0.00    +0.142 HD
ENDBRANCH   6  13
BRANCH   1  16
ATOM     16  N   UNL     1      -2.979  -1.819  -1.421  0.00  0.00    -0.342 N 
ATOM     17  H   UNL     1      -3.384  -2.078  -0.578  0.00  0.00    +0.146 HD
BRANCH  16  18
ATOM     18  C   UNL     1      -1.731  -1.052  -1.429  0.00  0.00    +0.106 C 
BRANCH  18  19
ATOM     19  C   UNL     1      -1.282  -0.793   0.011  0.00  0.00    +0.054 C 
BRANCH  19  25
ATOM     20  C   UNL     1      -0.017   1.382   0.010  0.00  0.00    +0.023 A 
ATOM     21  C   UNL     1       1.181   2.072   0.002  0.00  0.00    +0.111 A 
ATOM     22  N   UNL     1       2.331   1.427  -0.013  0.00  0.00    -0.263 NA
ATOM     23  C   UNL     1       2.387   0.109  -0.021  0.00  0.00    +0.111 A 
ATOM     24  C   UNL     1       1.230  -0.647  -0.013  0.00  0.00    +0.023 A 
ATOM     25  C   UNL     1       0.002  -0.004   0.002  0.00  0.00    -0.043 A 
ENDBRANCH  19  25
ENDBRANCH  18  19
ENDBRANCH  16  18
ENDBRANCH   1  16
TORSDOF 5
