REMARK  Name = ZINC25260061
REMARK  10 active torsions:
REMARK  status: ('A' for Active; 'I' for Inactive)
REMARK    1  A    between atoms: C_1  and  C_2
REMARK    2  A    between atoms: C_2  and  C_3
REMARK    3  A    between atoms: C_3  and  C_5
REMARK    4  A    between atoms: C_3  and  C_6
REMARK    5  A    between atoms: C_6  and  C_8
REMARK    6  A    between atoms: C_6  and  N_28
REMARK    7  A    between atoms: N_10  and  C_11
REMARK    8  A    between atoms: C_15  and  S_17
REMARK    9  A    between atoms: S_17  and  N_20
REMARK   10  A    between atoms: N_20  and  C_21
REMARK                            x       y       z     vdW  Elec       q    Type
REMARK                         _______ _______ _______ _____ _____    ______ ____
ROOT
ATOM      1  C   UNL     1      -0.562   2.688   1.192  0.00  0.00    +0.035 A 
ATOM      2  C   UNL     1       0.760   2.270   1.115  0.00  0.00    +0.023 A 
ATOM      3  C   UNL     1       1.764   3.196   0.912  0.00  0.00    +0.004 A 
ATOM      4  C   UNL     1       1.454   4.538   0.784  0.00  0.00    +0.029 A 
ATOM      5  C   UNL     1       0.138   4.957   0.860  0.00  0.00    +0.110 A 
ATOM      6  C   UNL     1      -0.871   4.035   1.059  0.00  0.00    +0.052 A 
ENDROOT
BRANCH   1   9
ATOM      7  C   UNL     1      -1.450   0.497   0.925  0.00  0.00    +0.238 C 
ATOM      8  O   UNL     1      -0.493   0.204   0.240  0.00  0.00    -0.273 OA
ATOM      9  N   UNL     1      -1.582   1.752   1.398  0.00  0.00    -0.284 N 
ATOM     10  H   UNL     1      -2.492   2.041   1.945  0.00  0.00    +0.155 HD
BRANCH   7  11
ATOM     11  C   UNL     1      -2.492  -0.543   1.248  0.00  0.00    +0.163 C 
BRANCH  11  12
ATOM     12  N   UNL     1      -2.406  -1.638   0.278  0.00  0.00    -0.288 N 
ATOM     13  C   UNL     1      -1.293  -2.397   0.216  0.00  0.00    +0.298 C 
ATOM     14  O   UNL     1      -0.402  -2.237   1.027  0.00  0.00    -0.253 OA
ATOM     15  N   UNL     1      -1.169  -3.333  -0.746  0.00  0.00    -0.313 N 
ATOM     16  H   UNL     1      -3.248  -1.841  -0.399  0.00  0.00    +0.151 HD
ATOM     17  H   UNL     1      -0.261  -3.952  -0.797  0.00  0.00    +0.146 HD
ATOM     18  H   UNL     1      -1.975  -3.477  -1.480  0.00  0.00    +0.146 HD
ENDBRANCH  11  12
BRANCH  11  19
ATOM     19  C   UNL     1      -2.249  -1.089   2.656  0.00  0.00    +0.015 C 
ATOM     20  C   UNL     1      -3.221  -2.238   2.933  0.00  0.00    +0.010 C 
BRANCH  19  22
ATOM     21  C   UNL     1      -2.109  -0.485   5.077  0.00  0.00    +0.004 C 
ATOM     22  C   UNL     1      -2.472   0.025   3.680  0.00  0.00    +0.002 C 
ENDBRANCH  19  22
ENDBRANCH  11  19
ENDBRANCH   7  11
ENDBRANCH   1   9
BRANCH   5  23
ATOM     23  S   UNL     1      -0.252   6.667   0.697  0.00  0.00    +0.072 S 
ATOM     24  O   UNL     1      -1.441   6.886   1.443  0.00  0.00    -0.150 OA
ATOM     25  O   UNL     1       0.949   7.384   0.949  0.00  0.00    -0.150 OA
BRANCH  23  26
ATOM     26  N   UNL     1      -0.636   6.932  -0.892  0.00  0.00    -0.216 N 
ATOM     27  H   UNL     1      -0.021   7.612  -1.501  0.00  0.00    +0.174 HD
BRANCH  26  28
ATOM     28  C   UNL     1      -1.740   6.291  -1.461  0.00  0.00    +0.048 A 
ATOM     29  C   UNL     1      -1.553   5.238  -2.347  0.00  0.00    +0.025 A 
ATOM     30  C   UNL     1      -2.646   4.604  -2.904  0.00  0.00    +0.017 A 
ATOM     31  C   UNL     1      -3.926   5.022  -2.587  0.00  0.00    +0.018 A 
ATOM     32  C   UNL     1      -4.115   6.074  -1.708  0.00  0.00    +0.017 A 
ATOM     33  C   UNL     1      -3.026   6.709  -1.145  0.00  0.00    +0.025 A 
ATOM     34 BR   UNL     1      -5.420   4.155  -3.356  0.00  0.00    -0.050 Br
ENDBRANCH  26  28
ENDBRANCH  23  26
ENDBRANCH   5  23
TORSDOF 8
