REMARK  Name = ZINC35924659
REMARK  9 active torsions:
REMARK  status: ('A' for Active; 'I' for Inactive)
REMARK    1  A    between atoms: C_1  and  C_2
REMARK    2  A    between atoms: C_6  and  C_21
REMARK    3  A    between atoms: C_8  and  N_9
REMARK    4  A    between atoms: N_12  and  C_15
REMARK    5  A    between atoms: C_15  and  C_16
REMARK    6  A    between atoms: C_21  and  C_22
REMARK    7  A    between atoms: C_22  and  C_23
REMARK    8  A    between atoms: C_22  and  C_24
REMARK    9  A    between atoms: N_25  and  C_27
REMARK                            x       y       z     vdW  Elec       q    Type
REMARK                         _______ _______ _______ _____ _____    ______ ____
ROOT
ATOM      1  C   UNL     1       0.542   1.492  -0.090  0.00  0.00    +0.068 C 
ATOM      2  C   UNL     1       0.465  -0.013  -0.081  0.00  0.00    +0.073 A 
ATOM      3  C   UNL     1       0.125  -0.828  -1.183  0.00  0.00    +0.082 A 
ATOM      4  C   UNL     1       0.174  -2.164  -0.738  0.00  0.00    +0.169 A 
ATOM      5  N   UNL     1      -0.110  -3.138  -1.600  0.00  0.00    -0.212 NA
ATOM      6  C   UNL     1      -0.430  -2.861  -2.845  0.00  0.00    +0.134 A 
ATOM      7  N   UNL     1      -0.488  -1.625  -3.307  0.00  0.00    -0.217 NA
ATOM      8  C   UNL     1      -0.223  -0.584  -2.525  0.00  0.00    +0.136 A 
ATOM      9  N   UNL     1       0.531  -2.122   0.580  0.00  0.00    -0.214 N 
ATOM     10  N   UNL     1       0.705  -0.781   0.944  0.00  0.00    -0.169 NA
ENDROOT
BRANCH   8  11
ATOM     11  N   UNL     1      -0.287   0.705  -3.016  0.00  0.00    -0.318 N 
ATOM     12  C   UNL     1       0.919   1.388  -3.509  0.00  0.00    +0.088 C 
ATOM     13  C   UNL     1       0.620   1.962  -4.897  0.00  0.00    -0.059 C 
ATOM     14  N   UNL     1      -0.573   2.815  -4.827  0.00  0.00    +0.386 N 
ATOM     15  C   UNL     1      -1.746   2.006  -4.472  0.00  0.00    -0.059 C 
ATOM     16  C   UNL     1      -1.565   1.432  -3.067  0.00  0.00    +0.088 C 
ATOM     17  H   UNL     1      -0.434   3.528  -4.127  0.00  0.00    -0.081 HD
BRANCH  14  18
ATOM     18  C   UNL     1      -0.796   3.452  -6.132  0.00  0.00    -0.003 C 
BRANCH  18  19
ATOM     19  C   UNL     1      -1.946   4.421  -6.028  0.00  0.00    +0.089 A 
ATOM     20  C   UNL     1      -1.849   5.724  -5.710  0.00  0.00    +0.042 A 
ATOM     21  C   UNL     1      -3.162   6.248  -5.729  0.00  0.00    +0.041 A 
ATOM     22  C   UNL     1      -3.982   5.234  -6.058  0.00  0.00    +0.195 A 
ATOM     23  O   UNL     1      -3.239   4.131  -6.244  0.00  0.00    -0.470 OA
ENDBRANCH  18  19
ENDBRANCH  14  18
ENDBRANCH   8  11
BRANCH   9  24
ATOM     24  C   UNL     1       0.698  -3.229   1.421  0.00  0.00    +0.068 A 
ATOM     25  C   UNL     1      -0.112  -4.347   1.269  0.00  0.00    +0.028 A 
ATOM     26  C   UNL     1       0.056  -5.438   2.100  0.00  0.00    +0.002 A 
ATOM     27  C   UNL     1       1.029  -5.417   3.082  0.00  0.00    +0.000 A 
ATOM     28  C   UNL     1       1.837  -4.305   3.236  0.00  0.00    +0.002 A 
ATOM     29  C   UNL     1       1.678  -3.214   2.405  0.00  0.00    +0.028 A 
ENDBRANCH   9  24
BRANCH   6  30
ATOM     30  C   UNL     1      -0.743  -3.999  -3.782  0.00  0.00    +0.079 C 
BRANCH  30  31
ATOM     31  C   UNL     1      -2.240  -4.310  -3.725  0.00  0.00    -0.010 C 
ATOM     32  C   UNL     1      -3.030  -3.115  -4.261  0.00  0.00    +0.007 C 
ATOM     33  C   UNL     1      -2.537  -5.544  -4.579  0.00  0.00    +0.007 C 
ENDBRANCH  30  31
ENDBRANCH   6  30
TORSDOF 6
