REMARK  Name = ZINC12466385
REMARK  7 active torsions:
REMARK  status: ('A' for Active; 'I' for Inactive)
REMARK    1  A    between atoms: C_1  and  O_2
REMARK    2  A    between atoms: O_2  and  C_3
REMARK    3  A    between atoms: C_3  and  C_5
REMARK    4  A    between atoms: C_9  and  N_10
REMARK    5  A    between atoms: C_11  and  C_13
REMARK    6  A    between atoms: N_18  and  S_19
REMARK    7  A    between atoms: S_19  and  C_22
REMARK                            x       y       z     vdW  Elec       q    Type
REMARK                         _______ _______ _______ _____ _____    ______ ____
ROOT
ATOM      1  N   UNL     1       3.123   3.408  -0.108  0.00  0.00    -0.278 N 
ATOM      2  C   UNL     1       1.887   2.993   0.233  0.00  0.00    +0.236 C 
ATOM      3  O   UNL     1       1.210   3.659   0.987  0.00  0.00    -0.274 OA
ATOM      4  H   UNL     1       3.664   2.875  -0.711  0.00  0.00    +0.155 HD
ENDROOT
BRANCH   1   9
ATOM      5  C   UNL     1       4.857   5.183   0.176  0.00  0.00    +0.091 A 
ATOM      6  C   UNL     1       5.136   6.452   0.835  0.00  0.00    -0.021 A 
ATOM      7  C   UNL     1       4.142   6.916   1.622  0.00  0.00    -0.004 A 
ATOM      8  S   UNL     1       2.851   5.709   1.485  0.00  0.00    -0.077 S 
ATOM      9  C   UNL     1       3.620   4.597   0.403  0.00  0.00    +0.086 A 
ATOM     10  C   UNL     1       4.131   8.167   2.443  0.00  0.00    +0.043 C 
ATOM     11  C   UNL     1       4.595   9.344   1.575  0.00  0.00    +0.005 C 
ATOM     12  C   UNL     1       6.113   9.459   1.685  0.00  0.00    +0.001 C 
ATOM     13  C   UNL     1       6.732   8.073   1.859  0.00  0.00    +0.005 C 
ATOM     14  C   UNL     1       6.447   7.203   0.641  0.00  0.00    +0.037 C 
BRANCH   5  15
ATOM     15  C   UNL     1       5.846   4.549  -0.698  0.00  0.00    +0.342 C 
ATOM     16  O   UNL     1       5.860   4.805  -1.887  0.00  0.00    -0.245 OA
BRANCH  15  18
ATOM     17  C   UNL     1       7.693   3.091  -1.109  0.00  0.00    +0.280 C 
ATOM     18  O   UNL     1       6.742   3.681  -0.184  0.00  0.00    -0.464 OA
ENDBRANCH  15  18
ENDBRANCH   5  15
ENDBRANCH   1   9
BRANCH   2  19
ATOM     19  C   UNL     1       1.346   1.700  -0.322  0.00  0.00    +0.166 C 
ATOM     20  C   UNL     1       1.451   0.573   0.735  0.00  0.00    +0.031 C 
ATOM     21  C   UNL     1       0.341  -0.402   0.263  0.00  0.00    +0.019 C 
ATOM     22  C   UNL     1      -0.751   0.550  -0.270  0.00  0.00    +0.110 C 
ATOM     23  N   UNL     1      -0.096   1.825  -0.600  0.00  0.00    -0.164 NA
BRANCH  23  24
ATOM     24  S   UNL     1      -0.853   3.174  -1.191  0.00  0.00    +0.068 S 
ATOM     25  O   UNL     1      -2.170   3.167  -0.659  0.00  0.00    -0.152 OA
ATOM     26  O   UNL     1       0.042   4.260  -0.996  0.00  0.00    -0.152 OA
BRANCH  24  27
ATOM     27  C   UNL     1      -1.012   2.960  -2.933  0.00  0.00    +0.144 A 
ATOM     28  C   UNL     1      -2.022   2.390  -3.634  0.00  0.00    +0.038 A 
ATOM     29  C   UNL     1      -1.935   2.335  -5.013  0.00  0.00    +0.030 A 
ATOM     30  C   UNL     1      -0.835   2.844  -5.622  0.00  0.00    +0.080 A 
ATOM     31  S   UNL     1       0.119   3.431  -4.231  0.00  0.00    -0.057 S 
ATOM     32 CL   UNL     1      -0.453   2.907  -7.314  0.00  0.00    -0.076 Cl
ENDBRANCH  24  27
ENDBRANCH  23  24
ENDBRANCH   2  19
TORSDOF 6
