REMARK  Name = ZINC09158950
REMARK  9 active torsions:
REMARK  status: ('A' for Active; 'I' for Inactive)
REMARK    1  A    between atoms: C_1  and  C_2
REMARK    2  A    between atoms: C_6  and  O_9
REMARK    3  A    between atoms: C_7  and  C_8
REMARK    4  A    between atoms: O_9  and  C_10
REMARK    5  A    between atoms: C_11  and  C_21
REMARK    6  A    between atoms: C_22  and  C_23
REMARK    7  A    between atoms: C_22  and  C_25
REMARK    8  A    between atoms: N_27  and  C_28
REMARK    9  A    between atoms: C_28  and  C_29
REMARK                            x       y       z     vdW  Elec       q    Type
REMARK                         _______ _______ _______ _____ _____    ______ ____
ROOT
ATOM      1  C   UNL     1       3.490   3.421  -0.410  0.00  0.00    +0.235 A 
ATOM      2  C   UNL     1       4.665   4.195  -0.246  0.00  0.00    +0.103 A 
ATOM      3  C   UNL     1       4.527   5.599  -0.090  0.00  0.00    +0.269 A 
ATOM      4  O   UNL     1       5.510   6.306   0.050  0.00  0.00    -0.266 OA
ATOM      5  N   UNL     1       3.288   6.137  -0.095  0.00  0.00    -0.268 N 
ATOM      6  C   UNL     1       3.146   7.483   0.059  0.00  0.00    +0.096 A 
ATOM      7  C   UNL     1       1.920   8.054   0.059  0.00  0.00    +0.018 A 
ATOM      8  C   UNL     1       0.776   7.261  -0.100  0.00  0.00    +0.005 A 
ATOM      9  C   UNL     1       0.909   5.912  -0.255  0.00  0.00    +0.047 A 
ATOM     10  C   UNL     1       2.192   5.338  -0.253  0.00  0.00    +0.144 A 
ATOM     11  N   UNL     1       2.311   4.017  -0.405  0.00  0.00    -0.194 NA
ENDROOT
BRANCH   2  12
ATOM     12  C   UNL     1       5.934   3.589  -0.241  0.00  0.00    +0.042 C 
ATOM     13  C   UNL     1       6.220   2.584   0.673  0.00  0.00    +0.114 C 
BRANCH  13  14
ATOM     14  C   UNL     1       7.492   1.858   0.590  0.00  0.00    +0.255 C 
ATOM     15  O   UNL     1       8.296   2.136  -0.280  0.00  0.00    -0.269 OA
ATOM     16  N   UNL     1       7.769   0.883   1.478  0.00  0.00    -0.304 N 
ATOM     17  H   UNL     1       7.128   0.661   2.171  0.00  0.00    +0.149 HD
BRANCH  16  18
ATOM     18  C   UNL     1       9.039   0.157   1.395  0.00  0.00    +0.179 C 
BRANCH  18  19
ATOM     19  C   UNL     1       9.102  -0.873   2.493  0.00  0.00    +0.122 A 
ATOM     20  C   UNL     1       8.672  -2.144   2.405  0.00  0.00    +0.046 A 
ATOM     21  C   UNL     1       8.922  -2.749   3.658  0.00  0.00    +0.041 A 
ATOM     22  C   UNL     1       9.490  -1.811   4.437  0.00  0.00    +0.195 A 
ATOM     23  O   UNL     1       9.602  -0.678   3.725  0.00  0.00    -0.466 OA
ENDBRANCH  18  19
ENDBRANCH  16  18
ENDBRANCH  13  14
BRANCH  13  24
ATOM     24  C   UNL     1       5.274   2.257   1.697  0.00  0.00    +0.104 C 
ATOM     25  N   UNL     1       4.523   1.998   2.509  0.00  0.00    -0.191 NA
ENDBRANCH  13  24
ENDBRANCH   2  12
BRANCH   1  26
ATOM     26  O   UNL     1       3.575   2.081  -0.567  0.00  0.00    -0.437 OA
BRANCH  26  32
ATOM     27  C   UNL     1       0.117   0.413  -3.581  0.00  0.00    +0.044 C 
ATOM     28  C   UNL     1       0.707   0.551  -2.201  0.00  0.00    -0.044 A 
ATOM     29  C   UNL     1       0.074  -0.031  -1.118  0.00  0.00    +0.004 A 
ATOM     30  C   UNL     1       0.612   0.094   0.149  0.00  0.00    +0.004 A 
ATOM     31  C   UNL     1       1.785   0.800   0.337  0.00  0.00    +0.046 A 
ATOM     32  C   UNL     1       2.421   1.385  -0.748  0.00  0.00    +0.134 A 
ATOM     33  C   UNL     1       1.879   1.259  -2.019  0.00  0.00    -0.005 A 
ATOM     34  C   UNL     1       2.568   1.892  -3.200  0.00  0.00    +0.048 C 
ENDBRANCH  26  32
ENDBRANCH   1  26
TORSDOF 7
