REMARK  Name = ZINC12475956
REMARK  9 active torsions:
REMARK  status: ('A' for Active; 'I' for Inactive)
REMARK    1  A    between atoms: C_1  and  C_2
REMARK    2  A    between atoms: C_5  and  C_7
REMARK    3  A    between atoms: C_7  and  C_9
REMARK    4  A    between atoms: C_7  and  N_18
REMARK    5  A    between atoms: N_11  and  C_12
REMARK    6  A    between atoms: N_18  and  C_19
REMARK    7  A    between atoms: C_19  and  C_20
REMARK    8  A    between atoms: C_25  and  C_27
REMARK    9  A    between atoms: C_27  and  C_28
REMARK                            x       y       z     vdW  Elec       q    Type
REMARK                         _______ _______ _______ _____ _____    ______ ____
ROOT
ATOM      1  N   UNL     1      -0.844   1.829  -1.052  0.00  0.00    -0.278 N 
ATOM      2  C   UNL     1      -0.903   2.971  -1.764  0.00  0.00    +0.221 C 
ATOM      3  O   UNL     1      -1.744   3.105  -2.627  0.00  0.00    -0.275 OA
ENDROOT
BRANCH   1   4
ATOM      4  C   UNL     1      -1.760   0.727  -1.357  0.00  0.00    +0.228 C 
BRANCH   4   9
ATOM      5  C   UNL     1       1.734  -2.870  -0.812  0.00  0.00    +0.086 C 
ATOM      6  C   UNL     1       0.549  -2.102  -1.339  0.00  0.00    +0.102 A 
ATOM      7  C   UNL     1      -0.238  -2.475  -2.363  0.00  0.00    +0.045 A 
ATOM      8  C   UNL     1      -1.218  -1.467  -2.516  0.00  0.00    +0.047 A 
ATOM      9  C   UNL     1      -0.969  -0.537  -1.576  0.00  0.00    +0.135 A 
ATOM     10  O   UNL     1       0.105  -0.924  -0.870  0.00  0.00    -0.462 OA
ENDBRANCH   4   9
BRANCH   4  11
ATOM     11  C   UNL     1      -2.712   0.531  -0.205  0.00  0.00    +0.241 C 
ATOM     12  O   UNL     1      -2.558   1.157   0.822  0.00  0.00    -0.273 OA
ATOM     13  N   UNL     1      -3.734  -0.340  -0.317  0.00  0.00    -0.311 N 
ATOM     14  H   UNL     1      -3.857  -0.841  -1.138  0.00  0.00    +0.149 HD
BRANCH  13  15
ATOM     15  C   UNL     1      -4.659  -0.530   0.803  0.00  0.00    +0.073 C 
ATOM     16  C   UNL     1      -4.080  -1.561   1.774  0.00  0.00    +0.022 C 
ATOM     17  C   UNL     1      -5.046  -1.759   2.943  0.00  0.00    +0.002 C 
ATOM     18  C   UNL     1      -6.392  -2.258   2.414  0.00  0.00    +0.000 C 
ATOM     19  C   UNL     1      -6.971  -1.228   1.442  0.00  0.00    +0.002 C 
ATOM     20  C   UNL     1      -6.005  -1.029   0.273  0.00  0.00    +0.022 C 
ENDBRANCH  13  15
ENDBRANCH   4  11
ENDBRANCH   1   4
BRANCH   1  21
ATOM     21  C   UNL     1       0.137   1.688   0.028  0.00  0.00    +0.151 C 
BRANCH  21  22
ATOM     22  C   UNL     1       1.522   1.607  -0.560  0.00  0.00    +0.007 A 
ATOM     23  C   UNL     1       2.417   2.601  -0.778  0.00  0.00    +0.013 A 
ATOM     24  C   UNL     1       3.644   2.290  -1.334  0.00  0.00    +0.008 A 
ATOM     25  C   UNL     1       3.916   0.999  -1.644  0.00  0.00    +0.045 A 
ATOM     26  S   UNL     1       2.414   0.174  -1.141  0.00  0.00    -0.100 S 
ENDBRANCH  21  22
ENDBRANCH   1  21
BRANCH   2  27
ATOM     27  C   UNL     1       0.077   4.083  -1.488  0.00  0.00    +0.133 C 
BRANCH  27  28
ATOM     28  C   UNL     1      -0.415   5.356  -2.127  0.00  0.00    -0.014 A 
ATOM     29  C   UNL     1      -0.062   5.833  -3.332  0.00  0.00    +0.087 A 
ATOM     30  N   UNL     1      -0.713   7.011  -3.576  0.00  0.00    -0.360 N 
ATOM     31  H   UNL     1      -0.621   7.541  -4.383  0.00  0.00    +0.165 HD
ATOM     32  C   UNL     1      -1.515   7.334  -2.505  0.00  0.00    +0.047 A 
ATOM     33  C   UNL     1      -1.364   6.311  -1.550  0.00  0.00    +0.003 A 
ATOM     34  C   UNL     1      -2.067   6.373  -0.346  0.00  0.00    +0.010 A 
ATOM     35  C   UNL     1      -2.900   7.428  -0.100  0.00  0.00    +0.001 A 
ATOM     36  C   UNL     1      -3.053   8.439  -1.038  0.00  0.00    +0.002 A 
ATOM     37  C   UNL     1      -2.369   8.398  -2.233  0.00  0.00    +0.026 A 
ENDBRANCH  27  28
ENDBRANCH   2  27
TORSDOF 8
