REMARK  Name = ZINC36604625
REMARK  10 active torsions:
REMARK  status: ('A' for Active; 'I' for Inactive)
REMARK    1  A    between atoms: C_1  and  C_2
REMARK    2  A    between atoms: C_5  and  S_8
REMARK    3  A    between atoms: S_8  and  C_11
REMARK    4  A    between atoms: C_11  and  N_12
REMARK    5  A    between atoms: C_13  and  C_15
REMARK    6  A    between atoms: C_15  and  C_17
REMARK    7  A    between atoms: C_15  and  N_24
REMARK    8  A    between atoms: C_20  and  O_23
REMARK    9  A    between atoms: N_24  and  C_25
REMARK   10  A    between atoms: C_31  and  C_33
REMARK                            x       y       z     vdW  Elec       q    Type
REMARK                         _______ _______ _______ _____ _____    ______ ____
ROOT
ATOM      1  C   UNL     1       3.173  -5.657   3.355  0.00  0.00    +0.197 C 
ENDROOT
BRANCH   1   2
ATOM      2  C   UNL     1       4.549  -5.923   2.801  0.00  0.00    -0.018 A 
ATOM      3  C   UNL     1       5.043  -7.214   2.771  0.00  0.00    +0.009 A 
ATOM      4  C   UNL     1       6.304  -7.461   2.264  0.00  0.00    +0.046 A 
ATOM      5  C   UNL     1       7.075  -6.411   1.785  0.00  0.00    +0.117 A 
ATOM      6  C   UNL     1       6.577  -5.117   1.817  0.00  0.00    +0.046 A 
ATOM      7  C   UNL     1       5.313  -4.877   2.320  0.00  0.00    +0.009 A 
BRANCH   5   8
ATOM      8  O   UNL     1       8.316  -6.651   1.287  0.00  0.00    -0.507 OA
ATOM      9  H   UNL     1       8.331  -6.834   0.338  0.00  0.00    +0.292 HD
ENDBRANCH   5   8
ENDBRANCH   1   2
BRANCH   1  11
ATOM     10  N   UNL     1       2.030  -6.089   1.204  0.00  0.00    -0.294 N 
ATOM     11  C   UNL     1       2.147  -6.374   2.516  0.00  0.00    +0.240 C 
ATOM     12  O   UNL     1       1.425  -7.208   3.021  0.00  0.00    -0.273 OA
ATOM     13  H   UNL     1       2.607  -5.422   0.800  0.00  0.00    +0.150 HD
BRANCH  10  14
ATOM     14  C   UNL     1       1.033  -6.785   0.388  0.00  0.00    +0.278 C 
BRANCH  14  15
ATOM     15  S   UNL     1      -0.478  -5.786   0.296  0.00  0.00    +0.013 S 
ATOM     16  O   UNL     1      -0.843  -5.330   1.592  0.00  0.00    -0.168 OA
ATOM     17  O   UNL     1      -1.434  -6.419  -0.544  0.00  0.00    -0.168 OA
BRANCH  15  22
ATOM     18  C   UNL     1       1.136  -0.801  -2.694  0.00  0.00    +0.044 C 
ATOM     19  C   UNL     1       0.733  -2.046  -1.947  0.00  0.00    -0.050 A 
ATOM     20  C   UNL     1       0.262  -3.146  -2.640  0.00  0.00    +0.005 A 
ATOM     21  C   UNL     1      -0.107  -4.288  -1.955  0.00  0.00    +0.027 A 
ATOM     22  C   UNL     1      -0.006  -4.330  -0.577  0.00  0.00    +0.090 A 
ATOM     23  C   UNL     1       0.465  -3.231   0.116  0.00  0.00    +0.027 A 
ATOM     24  C   UNL     1       0.839  -2.090  -0.570  0.00  0.00    +0.005 A 
ENDBRANCH  15  22
ENDBRANCH  14  15
ENDBRANCH  10  14
ENDBRANCH   1  11
BRANCH   1  25
ATOM     25  N   UNL     1       3.100  -6.143   4.736  0.00  0.00    -0.255 N 
ATOM     26  C   UNL     1       1.982  -5.943   5.462  0.00  0.00    +0.224 C 
ATOM     27  O   UNL     1       1.072  -5.284   5.005  0.00  0.00    -0.275 OA
BRANCH  25  28
ATOM     28  C   UNL     1       4.190  -6.813   5.300  0.00  0.00    +0.037 A 
ATOM     29  C   UNL     1       5.301  -6.098   5.728  0.00  0.00    +0.023 A 
ATOM     30  C   UNL     1       6.376  -6.763   6.285  0.00  0.00    +0.002 A 
ATOM     31  C   UNL     1       6.347  -8.139   6.417  0.00  0.00    +0.000 A 
ATOM     32  C   UNL     1       5.242  -8.854   5.993  0.00  0.00    +0.002 A 
ATOM     33  C   UNL     1       4.162  -8.194   5.439  0.00  0.00    +0.023 A 
ENDBRANCH  25  28
BRANCH  26  34
ATOM     34  C   UNL     1       1.863  -6.538   6.841  0.00  0.00    +0.076 C 
ATOM     35  C   UNL     1       2.433  -5.559   7.870  0.00  0.00    +0.013 C 
ATOM     36  C   UNL     1       2.313  -6.163   9.270  0.00  0.00    +0.001 C 
ATOM     37  C   UNL     1       0.840  -6.433   9.585  0.00  0.00    +0.000 C 
ATOM     38  C   UNL     1       0.270  -7.412   8.556  0.00  0.00    +0.001 C 
ATOM     39  C   UNL     1       0.390  -6.807   7.155  0.00  0.00    +0.013 C 
ENDBRANCH  26  34
ENDBRANCH   1  25
TORSDOF 9
