REMARK  Name = ZINC66277984
REMARK  3 active torsions:
REMARK  status: ('A' for Active; 'I' for Inactive)
REMARK    1  A    between atoms: C_1  and  C_2
REMARK    2  A    between atoms: C_9  and  C_11
REMARK    3  A    between atoms: N_13  and  N_14
REMARK                            x       y       z     vdW  Elec       q    Type
REMARK                         _______ _______ _______ _____ _____    ______ ____
ROOT
ATOM      1  C   UNL     1       0.066  -1.422   4.738  0.00  0.00    +0.281 C 
ATOM      2  O   UNL     1       0.057  -0.381   5.366  0.00  0.00    -0.267 OA
ATOM      3  N   UNL     1       0.088  -2.602   5.389  0.00  0.00    -0.219 N 
ATOM      4  H   UNL     1       0.095  -3.433   4.888  0.00  0.00    +0.174 HD
ENDROOT
BRANCH   3   5
ATOM      5  N   UNL     1       0.102  -2.629   6.790  0.00  0.00    -0.147 N 
ATOM      6  C   UNL     1       1.175  -2.337   7.547  0.00  0.00    +0.271 C 
ATOM      7  O   UNL     1       2.268  -2.011   7.130  0.00  0.00    -0.268 OA
ATOM      8  C   UNL     1       0.800  -2.476   8.970  0.00  0.00    +0.051 A 
ATOM      9  C   UNL     1       1.474  -2.309  10.169  0.00  0.00    +0.014 A 
ATOM     10  C   UNL     1       0.810  -2.527  11.366  0.00  0.00    +0.001 A 
ATOM     11  C   UNL     1      -0.518  -2.911  11.371  0.00  0.00    +0.001 A 
ATOM     12  C   UNL     1      -1.205  -3.082  10.180  0.00  0.00    +0.014 A 
ATOM     13  C   UNL     1      -0.554  -2.867   8.975  0.00  0.00    +0.051 A 
ATOM     14  C   UNL     1      -0.958  -2.946   7.555  0.00  0.00    +0.271 C 
ATOM     15  O   UNL     1      -2.062  -3.249   7.148  0.00  0.00    -0.268 OA
ENDBRANCH   3   5
BRANCH   1  24
ATOM     16  C   UNL     1      -0.018   1.503   0.010  0.00  0.00    +0.064 C 
ATOM     17  C   UNL     1       0.002  -0.004   0.002  0.00  0.00    +0.022 A 
ATOM     18  C   UNL     1       0.006  -0.665  -1.173  0.00  0.00    +0.021 A 
ATOM     19  C   UNL     1       0.025  -2.071  -1.197  0.00  0.00    +0.005 A 
ATOM     20  C   UNL     1       0.040  -2.764  -0.029  0.00  0.00    +0.047 A 
ATOM     21  C   UNL     1       0.036  -2.060   1.195  0.00  0.00    +0.139 A 
ATOM     22  N   UNL     1       0.023  -0.687   1.186  0.00  0.00    -0.303 N 
ATOM     23  C   UNL     1       0.029  -0.273   2.483  0.00  0.00    +0.126 A 
ATOM     24  C   UNL     1       0.052  -1.394   3.263  0.00  0.00    +0.146 A 
ATOM     25  N   UNL     1       0.048  -2.468   2.452  0.00  0.00    -0.223 NA
ENDBRANCH   1  24
TORSDOF 2
