REMARK  Name = ZINC38533056
REMARK  5 active torsions:
REMARK  status: ('A' for Active; 'I' for Inactive)
REMARK    1  A    between atoms: C_1  and  O_2
REMARK    2  A    between atoms: O_2  and  C_3
REMARK    3  A    between atoms: C_3  and  C_5
REMARK    4  A    between atoms: C_8  and  C_11
REMARK    5  A    between atoms: C_19  and  C_24
REMARK                            x       y       z     vdW  Elec       q    Type
REMARK                         _______ _______ _______ _____ _____    ______ ____
ROOT
ATOM      1  C   UNL     1       0.834  -6.337   1.270  0.00  0.00    +0.248 C 
ATOM      2  O   UNL     1      -0.354  -6.530   1.083  0.00  0.00    -0.270 OA
ATOM      3  N   UNL     1       1.458  -6.943   2.286  0.00  0.00    -0.281 N 
ATOM      4  C   UNL     1       1.426  -8.271   2.392  0.00  0.00    +0.036 C 
ATOM      5  C   UNL     1       0.821  -9.067   1.319  0.00  0.00    +0.025 C 
ATOM      6  C   UNL     1       0.777 -10.408   1.406  0.00  0.00    +0.029 C 
ATOM      7  C   UNL     1       1.346 -11.075   2.595  0.00  0.00    +0.060 C 
ATOM      8  N   UNL     1       1.429 -12.333   2.918  0.00  0.00    -0.360 N 
ATOM      9  C   UNL     1       2.092 -12.450   4.219  0.00  0.00    +0.219 C 
ATOM     10  N   UNL     1       2.407 -11.083   4.656  0.00  0.00    -0.220 NA
ATOM     11  C   UNL     1       1.950 -10.245   3.661  0.00  0.00    +0.075 C 
ATOM     12  C   UNL     1       1.978  -8.892   3.530  0.00  0.00    +0.050 C 
ATOM     13  H   UNL     1       1.935  -6.416   2.946  0.00  0.00    +0.155 HD
ATOM     14  H   UNL     1       1.104 -13.074   2.383  0.00  0.00    +0.162 HD
ENDROOT
BRANCH   1  18
ATOM     15  C   UNL     1       2.997  -3.733  -1.309  0.00  0.00    +0.059 A 
ATOM     16  C   UNL     1       1.635  -3.955  -1.523  0.00  0.00    +0.016 A 
ATOM     17  C   UNL     1       0.935  -4.798  -0.688  0.00  0.00    +0.014 A 
ATOM     18  C   UNL     1       1.587  -5.430   0.372  0.00  0.00    +0.037 A 
ATOM     19  C   UNL     1       2.948  -5.208   0.587  0.00  0.00    +0.014 A 
ATOM     20  C   UNL     1       3.650  -4.370  -0.252  0.00  0.00    +0.016 A 
BRANCH  15  21
ATOM     21  C   UNL     1       3.749  -2.828  -2.204  0.00  0.00    +0.339 C 
ATOM     22  O   UNL     1       4.934  -2.639  -2.021  0.00  0.00    -0.245 OA
BRANCH  21  24
ATOM     23  C   UNL     1       3.906  -1.353  -4.049  0.00  0.00    +0.280 C 
ATOM     24  O   UNL     1       3.118  -2.213  -3.224  0.00  0.00    -0.464 OA
ENDBRANCH  21  24
ENDBRANCH  15  21
ENDBRANCH   1  18
BRANCH   9  25
ATOM     25  C   UNL     1       1.169 -13.109   5.211  0.00  0.00    +0.012 A 
ATOM     26  C   UNL     1       1.251 -12.799   6.560  0.00  0.00    +0.010 A 
ATOM     27  C   UNL     1       0.381 -13.430   7.436  0.00  0.00    +0.020 A 
ATOM     28  C   UNL     1      -0.532 -14.341   6.939  0.00  0.00    +0.111 A 
ATOM     29  N   UNL     1      -0.581 -14.612   5.650  0.00  0.00    -0.263 NA
ATOM     30  C   UNL     1       0.226 -14.026   4.787  0.00  0.00    +0.118 A 
ENDBRANCH   9  25
TORSDOF 4
