REMARK  Name = ZINC23337611
REMARK  13 active torsions:
REMARK  status: ('A' for Active; 'I' for Inactive)
REMARK    1  A    between atoms: C_1  and  N_2
REMARK    2  A    between atoms: N_2  and  C_3
REMARK    3  A    between atoms: N_2  and  C_30
REMARK    4  A    between atoms: C_3  and  C_4
REMARK    5  A    between atoms: C_8  and  O_10
REMARK    6  A    between atoms: O_10  and  C_11
REMARK    7  A    between atoms: C_11  and  C_12
REMARK    8  A    between atoms: C_12  and  N_13
REMARK    9  A    between atoms: N_16  and  S_19
REMARK   10  A    between atoms: S_19  and  C_22
REMARK   11  A    between atoms: C_25  and  O_28
REMARK   12  A    between atoms: O_28  and  C_29
REMARK   13  A    between atoms: C_30  and  C_31
REMARK                            x       y       z     vdW  Elec       q    Type
REMARK                         _______ _______ _______ _____ _____    ______ ____
ROOT
ATOM      1  O   UNL     1      -7.519   1.301   2.241  0.00  0.00    -0.491 OA
ENDROOT
BRANCH   1   6
ATOM      2  C   UNL     1      -3.984   1.064   3.069  0.00  0.00    -0.061 A 
ATOM      3  C   UNL     1      -3.914  -0.239   3.527  0.00  0.00    +0.002 A 
ATOM      4  C   UNL     1      -5.050  -1.026   3.554  0.00  0.00    +0.004 A 
ATOM      5  C   UNL     1      -6.258  -0.513   3.124  0.00  0.00    +0.045 A 
ATOM      6  C   UNL     1      -6.331   0.794   2.664  0.00  0.00    +0.121 A 
ATOM      7  C   UNL     1      -5.191   1.584   2.643  0.00  0.00    +0.047 A 
BRANCH   2   8
ATOM      8  C   UNL     1      -2.744   1.920   3.041  0.00  0.00    -0.043 C 
BRANCH   8  10
ATOM      9  C   UNL     1      -2.889   2.300   0.654  0.00  0.00    -0.096 C 
ATOM     10  N   UNL     1      -2.068   1.761   1.747  0.00  0.00    +0.382 N 
ATOM     11  H   UNL     1      -1.931   0.685   1.567  0.00  0.00    -0.082 HD
BRANCH  10  12
ATOM     12  C   UNL     1      -0.740   2.389   1.766  0.00  0.00    -0.056 C 
BRANCH  12  13
ATOM     13  C   UNL     1       0.029   1.994   0.503  0.00  0.00    +0.057 C 
ATOM     14  C   UNL     1       1.490   2.487   0.591  0.00  0.00    +0.029 C 
ATOM     15  C   UNL     1       2.251   1.344  -0.120  0.00  0.00    +0.097 C 
ATOM     16  C   UNL     1       1.350   0.140   0.043  0.00  0.00    +0.213 C 
ATOM     17  O   UNL     1       1.692  -1.012  -0.123  0.00  0.00    -0.276 OA
ATOM     18  N   UNL     1       0.114   0.532   0.397  0.00  0.00    -0.314 N 
ATOM     19  H   UNL     1      -0.772  -0.087   0.600  0.00  0.00    +0.149 HD
ENDBRANCH  12  13
ENDBRANCH  10  12
ENDBRANCH   8  10
ENDBRANCH   2   8
ENDBRANCH   1   6
BRANCH   1  20
ATOM     20  C   UNL     1      -8.652   0.433   2.298  0.00  0.00    +0.244 C 
BRANCH  20  21
ATOM     21  C   UNL     1      -9.889   1.174   1.785  0.00  0.00    +0.125 C 
BRANCH  21  22
ATOM     22  N   UNL     1      -9.714   1.492   0.362  0.00  0.00    -0.297 NA
ATOM     23  C   UNL     1     -10.610   2.581  -0.049  0.00  0.00    +0.101 C 
ATOM     24  C   UNL     1     -10.272   3.004  -1.482  0.00  0.00    +0.125 C 
ATOM     25  N   UNL     1     -10.308   1.811  -2.342  0.00  0.00    -0.174 NA
ATOM     26  C   UNL     1      -9.542   0.628  -1.923  0.00  0.00    +0.125 C 
ATOM     27  C   UNL     1      -9.908   0.298  -0.472  0.00  0.00    +0.101 C 
BRANCH  25  28
ATOM     28  S   UNL     1     -11.190   1.800  -3.744  0.00  0.00    +0.061 S 
ATOM     29  O   UNL     1     -11.328   3.156  -4.147  0.00  0.00    -0.153 OA
ATOM     30  O   UNL     1     -10.607   0.811  -4.582  0.00  0.00    -0.153 OA
BRANCH  28  31
ATOM     31  C   UNL     1     -12.806   1.228  -3.339  0.00  0.00    +0.106 A 
ATOM     32  C   UNL     1     -13.094  -0.123  -3.395  0.00  0.00    +0.032 A 
ATOM     33  C   UNL     1     -14.360  -0.574  -3.072  0.00  0.00    +0.047 A 
ATOM     34  C   UNL     1     -15.344   0.330  -2.703  0.00  0.00    +0.120 A 
ATOM     35  C   UNL     1     -15.054   1.686  -2.653  0.00  0.00    +0.047 A 
ATOM     36  C   UNL     1     -13.786   2.132  -2.971  0.00  0.00    +0.032 A 
BRANCH  34  37
ATOM     37  O   UNL     1     -16.591  -0.111  -2.390  0.00  0.00    -0.495 OA
ATOM     38  C   UNL     1     -16.818  -1.520  -2.463  0.00  0.00    +0.277 C 
ENDBRANCH  34  37
ENDBRANCH  28  31
ENDBRANCH  25  28
ENDBRANCH  21  22
ENDBRANCH  20  21
ENDBRANCH   1  20
TORSDOF 11
