REMARK  Name = ZINC39564177
REMARK  9 active torsions:
REMARK  status: ('A' for Active; 'I' for Inactive)
REMARK    1  A    between atoms: C_1  and  C_2
REMARK    2  A    between atoms: C_2  and  C_3
REMARK    3  A    between atoms: C_2  and  N_4
REMARK    4  A    between atoms: C_11  and  C_14
REMARK    5  A    between atoms: N_16  and  C_17
REMARK    6  A    between atoms: C_17  and  C_19
REMARK    7  A    between atoms: C_17  and  C_29
REMARK    8  A    between atoms: C_19  and  C_20
REMARK    9  A    between atoms: C_32  and  C_34
REMARK                            x       y       z     vdW  Elec       q    Type
REMARK                         _______ _______ _______ _____ _____    ______ ____
ROOT
ATOM      1  N   UNL     1      -2.045  -0.306  -0.916  0.00  0.00    -0.297 N 
ATOM      2  C   UNL     1      -2.305  -1.572  -1.298  0.00  0.00    +0.303 C 
ATOM      3  O   UNL     1      -1.523  -2.163  -2.017  0.00  0.00    -0.253 OA
ATOM      4  N   UNL     1      -3.433  -2.182  -0.883  0.00  0.00    -0.282 N 
ATOM      5  C   UNL     1      -4.443  -1.444  -0.112  0.00  0.00    +0.128 C 
ATOM      6  C   UNL     1      -4.705  -2.196   1.199  0.00  0.00    +0.127 C 
ATOM      7  N   UNL     1      -4.947  -3.612   0.888  0.00  0.00    -0.287 N 
ATOM      8  C   UNL     1      -3.937  -4.350   0.116  0.00  0.00    +0.179 C 
ATOM      9  C   UNL     1      -3.678  -3.597  -1.199  0.00  0.00    +0.141 C 
ATOM     10  C   UNL     1      -6.075  -4.222   1.303  0.00  0.00    +0.219 C 
ATOM     11  O   UNL     1      -6.214  -5.416   1.139  0.00  0.00    -0.275 OA
ATOM     12  H   UNL     1      -2.702   0.191  -0.404  0.00  0.00    +0.150 HD
ENDROOT
BRANCH  10  13
ATOM     13  C   UNL     1      -7.163  -3.422   1.971  0.00  0.00    +0.075 C 
ATOM     14  C   UNL     1      -6.659  -2.901   3.318  0.00  0.00    +0.013 C 
ATOM     15  C   UNL     1      -7.763  -2.088   3.997  0.00  0.00    +0.001 C 
ATOM     16  C   UNL     1      -8.988  -2.978   4.219  0.00  0.00    +0.000 C 
ATOM     17  C   UNL     1      -9.492  -3.499   2.872  0.00  0.00    +0.001 C 
ATOM     18  C   UNL     1      -8.387  -4.311   2.193  0.00  0.00    +0.013 C 
ENDBRANCH  10  13
BRANCH   8  19
ATOM     19  C   UNL     1      -4.445  -5.737  -0.185  0.00  0.00    +0.236 C 
ATOM     20  O   UNL     1      -5.435  -5.885  -0.869  0.00  0.00    -0.274 OA
ATOM     21  N   UNL     1      -3.799  -6.813   0.306  0.00  0.00    -0.302 N 
ATOM     22  H   UNL     1      -3.006  -6.694   0.854  0.00  0.00    +0.150 HD
BRANCH  21  23
ATOM     23  C   UNL     1      -4.292  -8.161   0.014  0.00  0.00    +0.163 C 
BRANCH  23  24
ATOM     24  C   UNL     1      -3.746  -8.618  -1.314  0.00  0.00    +0.231 C 
ATOM     25  O   UNL     1      -3.016  -7.890  -1.953  0.00  0.00    -0.274 OA
ATOM     26  N   UNL     1      -4.068  -9.837  -1.792  0.00  0.00    -0.328 N 
ATOM     27  H   UNL     1      -4.652 -10.419  -1.280  0.00  0.00    +0.145 HD
ATOM     28  H   UNL     1      -3.716 -10.132  -2.646  0.00  0.00    +0.145 HD
ENDBRANCH  23  24
BRANCH  23  29
ATOM     29  C   UNL     1      -3.834  -9.121   1.113  0.00  0.00    +0.068 C 
BRANCH  29  30
ATOM     30  C   UNL     1      -4.479  -8.735   2.419  0.00  0.00    -0.022 C 
ATOM     31  C   UNL     1      -5.614  -9.256   2.942  0.00  0.00    -0.014 C 
ATOM     32  C   UNL     1      -6.595 -10.312   2.499  0.00  0.00    +0.064 C 
ATOM     33  C   UNL     1      -7.767 -10.595   3.416  0.00  0.00    -0.022 C 
ATOM     34  C   UNL     1      -7.876  -9.906   4.561  0.00  0.00    -0.002 C 
ATOM     35  C   UNL     1      -6.949  -8.931   4.947  0.00  0.00    +0.028 C 
ATOM     36  C   UNL     1      -5.842  -8.597   4.178  0.00  0.00    +0.068 C 
ATOM     37  N   UNL     1      -4.838  -7.709   4.347  0.00  0.00    -0.255 NA
ATOM     38  C   UNL     1      -4.015  -7.772   3.327  0.00  0.00    +0.115 C 
ENDBRANCH  29  30
ENDBRANCH  23  29
ENDBRANCH  21  23
ENDBRANCH   8  19
BRANCH   1  40
ATOM     39  C   UNL     1      -0.938   1.840  -1.305  0.00  0.00    +0.027 C 
ATOM     40  C   UNL     1      -0.769   0.319  -1.275  0.00  0.00    +0.068 C 
ATOM     41  C   UNL     1       0.292  -0.056  -0.239  0.00  0.00    +0.027 C 
ENDBRANCH   1  40
TORSDOF 7
