REMARK  Name = ZINC19852556
REMARK  9 active torsions:
REMARK  status: ('A' for Active; 'I' for Inactive)
REMARK    1  A    between atoms: C_1  and  C_2
REMARK    2  A    between atoms: C_2  and  O_3
REMARK    3  A    between atoms: O_3  and  C_4
REMARK    4  A    between atoms: C_4  and  C_6
REMARK    5  A    between atoms: C_7  and  C_26
REMARK    6  A    between atoms: C_12  and  C_14
REMARK    7  A    between atoms: C_14  and  S_15
REMARK    8  A    between atoms: S_15  and  C_16
REMARK    9  A    between atoms: C_18  and  C_25
REMARK                            x       y       z     vdW  Elec       q    Type
REMARK                         _______ _______ _______ _____ _____    ______ ____
ROOT
ATOM      1  C   UNL     1       1.495  -2.370   2.465  0.00  0.00    +0.120 A 
ATOM      2  C   UNL     1       1.727  -3.696   2.809  0.00  0.00    +0.062 A 
ATOM      3  N   UNL     1       2.385  -3.900   3.921  0.00  0.00    -0.229 NA
ATOM      4  C   UNL     1       2.803  -2.896   4.671  0.00  0.00    +0.165 A 
ATOM      5  S   UNL     1       2.287  -1.533   3.829  0.00  0.00    -0.045 S 
ATOM      6  N   UNL     1       3.504  -2.952   5.862  0.00  0.00    -0.264 N 
ATOM      7  C   UNL     1       3.850  -1.813   6.495  0.00  0.00    +0.229 C 
ATOM      8  O   UNL     1       3.546  -0.739   6.019  0.00  0.00    -0.275 OA
ATOM      9  C   UNL     1       1.247  -4.836   1.948  0.00  0.00    +0.067 C 
ATOM     10  H   UNL     1       3.747  -3.810   6.243  0.00  0.00    +0.157 HD
ENDROOT
BRANCH   1  11
ATOM     11  C   UNL     1       0.801  -1.815   1.305  0.00  0.00    +0.348 C 
ATOM     12  O   UNL     1       0.321  -2.558   0.470  0.00  0.00    -0.244 OA
BRANCH  11  13
ATOM     13  O   UNL     1       0.693  -0.477   1.160  0.00  0.00    -0.461 OA
BRANCH  13  15
ATOM     14  C   UNL     1      -0.019   1.526   0.010  0.00  0.00    +0.048 C 
ATOM     15  C   UNL     1       0.002  -0.004   0.002  0.00  0.00    +0.229 C 
ENDBRANCH  13  15
ENDBRANCH  11  13
ENDBRANCH   1  11
BRANCH   7  16
ATOM     16  C   UNL     1       4.613  -1.873   7.792  0.00  0.00    +0.172 C 
BRANCH  16  17
ATOM     17  S   UNL     1       4.926  -0.189   8.389  0.00  0.00    -0.096 S 
BRANCH  17  18
ATOM     18  C   UNL     1       5.814  -0.427   9.892  0.00  0.00    +0.104 A 
ATOM     19  C   UNL     1       6.113  -1.700  10.340  0.00  0.00    +0.058 A 
ATOM     20  C   UNL     1       6.816  -1.849  11.532  0.00  0.00    +0.045 A 
ATOM     21  N   UNL     1       7.191  -0.791  12.222  0.00  0.00    -0.216 NA
ATOM     22  C   UNL     1       6.909   0.447  11.802  0.00  0.00    +0.254 A 
ATOM     23  N   UNL     1       6.226   0.643  10.635  0.00  0.00    -0.190 N 
ATOM     24  N   UNL     1       6.102   2.029  10.476  0.00  0.00    -0.151 NA
ATOM     25  C   UNL     1       6.693   2.588  11.504  0.00  0.00    +0.247 A 
ATOM     26  N   UNL     1       7.172   1.647  12.309  0.00  0.00    -0.197 NA
ATOM     27  C   UNL     1       7.151  -3.229  12.037  0.00  0.00    +0.066 C 
ENDBRANCH  17  18
ENDBRANCH  16  17
ENDBRANCH   7  16
TORSDOF 6
