REMARK  Name = ZINC00242395
REMARK  6 active torsions:
REMARK  status: ('A' for Active; 'I' for Inactive)
REMARK    1  A    between atoms: C_1  and  C_2
REMARK    2  A    between atoms: N_4  and  C_5
REMARK    3  A    between atoms: C_8  and  C_11
REMARK    4  A    between atoms: C_16  and  N_25
REMARK    5  A    between atoms: C_20  and  N_24
REMARK    6  A    between atoms: C_21  and  C_22
REMARK                            x       y       z     vdW  Elec       q    Type
REMARK                         _______ _______ _______ _____ _____    ______ ____
ROOT
ATOM      1  C   UNL     1      -3.718   1.617   0.023  0.00  0.00    +0.098 C 
ATOM      2  C   UNL     1      -3.383   3.050  -0.299  0.00  0.00    +0.008 A 
ATOM      3  C   UNL     1      -4.400   3.928  -0.631  0.00  0.00    +0.010 A 
ATOM      4  C   UNL     1      -4.113   5.244  -0.930  0.00  0.00    +0.023 A 
ATOM      5  C   UNL     1      -2.797   5.692  -0.897  0.00  0.00    +0.028 A 
ATOM      6  C   UNL     1      -1.777   4.814  -0.564  0.00  0.00    +0.069 A 
ATOM      7  C   UNL     1      -2.070   3.490  -0.263  0.00  0.00    +0.136 A 
ATOM      8  O   UNL     1      -1.060   2.644   0.066  0.00  0.00    -0.441 OA
ATOM      9  C   UNL     1      -1.246   1.317  -0.025  0.00  0.00    +0.199 C 
ATOM     10  C   UNL     1      -2.482   0.766  -0.048  0.00  0.00    +0.098 C 
ENDROOT
BRANCH   1  14
ATOM     11  C   UNL     1      -5.362   1.398   3.962  0.00  0.00    +0.033 A 
ATOM     12  C   UNL     1      -6.116   0.989   2.870  0.00  0.00    +0.023 A 
ATOM     13  C   UNL     1      -5.582   1.062   1.598  0.00  0.00    +0.006 A 
ATOM     14  C   UNL     1      -4.298   1.540   1.412  0.00  0.00    -0.035 A 
ATOM     15  C   UNL     1      -3.543   1.943   2.498  0.00  0.00    +0.006 A 
ATOM     16  C   UNL     1      -4.074   1.878   3.772  0.00  0.00    +0.023 A 
BRANCH  11  20
ATOM     17  C   UNL     1      -7.430   0.326   6.919  0.00  0.00    +0.109 C 
ATOM     18  C   UNL     1      -6.758   0.336   5.570  0.00  0.00    +0.214 C 
ATOM     19  O   UNL     1      -6.990  -0.546   4.770  0.00  0.00    -0.276 OA
ATOM     20  N   UNL     1      -5.901   1.326   5.252  0.00  0.00    -0.286 N 
ATOM     21  H   UNL     1      -5.657   1.988   5.917  0.00  0.00    +0.155 HD
ENDBRANCH  11  20
ENDBRANCH   1  14
BRANCH   9  22
ATOM     22  N   UNL     1      -0.148   0.494  -0.091  0.00  0.00    -0.328 N 
ATOM     23  H   UNL     1      -0.266  -0.467  -0.152  0.00  0.00    +0.145 HD
ATOM     24  H   UNL     1       0.744   0.874  -0.079  0.00  0.00    +0.145 HD
ENDBRANCH   9  22
BRANCH   5  25
ATOM     25  N   UNL     1      -2.504   7.024  -1.198  0.00  0.00    -0.358 N 
ATOM     26  H   UNL     1      -3.219   7.638  -1.431  0.00  0.00    +0.142 HD
ATOM     27  H   UNL     1      -1.586   7.336  -1.175  0.00  0.00    +0.142 HD
ENDBRANCH   5  25
BRANCH  10  28
ATOM     28  C   UNL     1      -2.615  -0.657  -0.141  0.00  0.00    +0.101 C 
ATOM     29  N   UNL     1      -2.720  -1.786  -0.215  0.00  0.00    -0.191 NA
ENDBRANCH  10  28
TORSDOF 5
