REMARK  Name = ZINC41273818
REMARK  8 active torsions:
REMARK  status: ('A' for Active; 'I' for Inactive)
REMARK    1  A    between atoms: C_1  and  C_2
REMARK    2  A    between atoms: C_2  and  C_4
REMARK    3  A    between atoms: C_2  and  C_27
REMARK    4  A    between atoms: C_4  and  N_5
REMARK    5  A    between atoms: C_6  and  C_8
REMARK    6  A    between atoms: N_11  and  C_14
REMARK    7  A    between atoms: C_14  and  C_15
REMARK    8  A    between atoms: C_18  and  C_20
REMARK                            x       y       z     vdW  Elec       q    Type
REMARK                         _______ _______ _______ _____ _____    ______ ____
ROOT
ATOM      1  C   UNL     1      -0.315  -0.103   4.898  0.00  0.00    +0.071 C 
ATOM      2  C   UNL     1      -1.707  -0.739   4.850  0.00  0.00    -0.006 C 
ATOM      3  C   UNL     1      -2.456  -0.414   6.144  0.00  0.00    -0.077 C 
ATOM      4  N   UNL     1      -1.712  -0.947   7.291  0.00  0.00    +0.386 N 
ATOM      5  C   UNL     1      -0.404  -0.289   7.386  0.00  0.00    -0.077 C 
ATOM      6  C   UNL     1       0.424  -0.609   6.140  0.00  0.00    -0.006 C 
ATOM      7  H   UNL     1      -1.580  -1.940   7.173  0.00  0.00    -0.081 HD
ENDROOT
BRANCH   1   9
ATOM      8  N   UNL     1      -0.008  -0.140   2.444  0.00  0.00    -0.315 N 
ATOM      9  C   UNL     1       0.457  -0.484   3.661  0.00  0.00    +0.216 C 
ATOM     10  O   UNL     1       1.496  -1.101   3.761  0.00  0.00    -0.276 OA
ATOM     11  H   UNL     1      -0.840   0.353   2.364  0.00  0.00    +0.149 HD
BRANCH   8  12
ATOM     12  C   UNL     1       0.742  -0.511   1.242  0.00  0.00    +0.112 C 
BRANCH  12  14
ATOM     13  C   UNL     1      -0.019   1.526   0.010  0.00  0.00    +0.014 C 
ATOM     14  C   UNL     1       0.002  -0.004   0.002  0.00  0.00    +0.033 C 
BRANCH  14  15
ATOM     15  C   UNL     1       0.707  -0.490  -1.238  0.00  0.00    -0.043 A 
ATOM     16  C   UNL     1       2.026  -0.142  -1.464  0.00  0.00    +0.004 A 
ATOM     17  C   UNL     1       2.673  -0.587  -2.602  0.00  0.00    +0.000 A 
ATOM     18  C   UNL     1       2.002  -1.382  -3.512  0.00  0.00    +0.000 A 
ATOM     19  C   UNL     1       0.684  -1.731  -3.285  0.00  0.00    +0.000 A 
ATOM     20  C   UNL     1       0.038  -1.289  -2.146  0.00  0.00    +0.004 A 
ENDBRANCH  14  15
ENDBRANCH  12  14
ENDBRANCH   8  12
ENDBRANCH   1   9
BRANCH   4  21
ATOM     21  C   UNL     1      -2.473  -0.701   8.524  0.00  0.00    +0.021 C 
BRANCH  21  22
ATOM     22  C   UNL     1      -1.772  -1.354   9.686  0.00  0.00    +0.202 A 
ATOM     23  N   UNL     1      -0.867  -0.804  10.447  0.00  0.00    -0.114 NA
ATOM     24  N   UNL     1      -0.484  -1.648  11.340  0.00  0.00    -0.107 NA
ATOM     25  C   UNL     1      -1.138  -2.775  11.177  0.00  0.00    +0.248 A 
ATOM     26  O   UNL     1      -1.970  -2.607  10.130  0.00  0.00    -0.422 OA
BRANCH  25  27
ATOM     27  C   UNL     1      -0.993  -3.998  11.995  0.00  0.00    +0.039 A 
ATOM     28  C   UNL     1      -1.752  -5.132  11.701  0.00  0.00    +0.014 A 
ATOM     29  C   UNL     1      -1.613  -6.270  12.467  0.00  0.00    +0.021 A 
ATOM     30  C   UNL     1      -0.720  -6.290  13.525  0.00  0.00    +0.041 A 
ATOM     31  C   UNL     1       0.037  -5.169  13.822  0.00  0.00    +0.021 A 
ATOM     32  C   UNL     1      -0.091  -4.027  13.060  0.00  0.00    +0.014 A 
ATOM     33 CL   UNL     1      -0.549  -7.727  14.485  0.00  0.00    -0.084 Cl
ENDBRANCH  25  27
ENDBRANCH  21  22
ENDBRANCH   4  21
TORSDOF 7
