REMARK  Name = ZINC05473276
REMARK  3 active torsions:
REMARK  status: ('A' for Active; 'I' for Inactive)
REMARK    1  A    between atoms: C_4  and  C_7
REMARK    2  A    between atoms: C_18  and  C_20
REMARK    3  A    between atoms: C_20  and  N_21
REMARK                            x       y       z     vdW  Elec       q    Type
REMARK                         _______ _______ _______ _____ _____    ______ ____
ROOT
ATOM      1  C   UNL     1      -4.643   0.670   3.082  0.00  0.00    +0.122 C 
ATOM      2  C   UNL     1      -5.601   1.796   2.647  0.00  0.00    +0.102 C 
ATOM      3  S   UNL     1      -6.944   1.033   1.687  0.00  0.00    -0.121 S 
ATOM      4  C   UNL     1      -6.090  -0.050   0.586  0.00  0.00    +0.029 A 
ATOM      5  C   UNL     1      -6.766  -0.567  -0.512  0.00  0.00    +0.016 A 
ATOM      6  C   UNL     1      -6.127  -1.430  -1.380  0.00  0.00    +0.001 A 
ATOM      7  C   UNL     1      -4.808  -1.781  -1.156  0.00  0.00    +0.002 A 
ATOM      8  C   UNL     1      -4.127  -1.268  -0.070  0.00  0.00    +0.024 A 
ATOM      9  C   UNL     1      -4.761  -0.395   0.811  0.00  0.00    +0.050 A 
ATOM     10  N   UNL     1      -4.023   0.102   1.889  0.00  0.00    -0.261 N 
ATOM     11  C   UNL     1      -2.678   0.048   1.827  0.00  0.00    +0.238 C 
ATOM     12  O   UNL     1      -2.020   0.135   2.842  0.00  0.00    -0.273 OA
ENDROOT
BRANCH   1  16
ATOM     13  C   UNL     1      -1.621   2.264   5.645  0.00  0.00    +0.000 A 
ATOM     14  C   UNL     1      -2.245   1.075   5.969  0.00  0.00    +0.000 A 
ATOM     15  C   UNL     1      -3.223   0.559   5.140  0.00  0.00    +0.005 A 
ATOM     16  C   UNL     1      -3.577   1.233   3.986  0.00  0.00    -0.026 A 
ATOM     17  C   UNL     1      -2.949   2.420   3.659  0.00  0.00    +0.005 A 
ATOM     18  C   UNL     1      -1.975   2.939   4.491  0.00  0.00    +0.000 A 
ENDBRANCH   1  16
BRANCH  11  19
ATOM     19  C   UNL     1      -1.991  -0.119   0.496  0.00  0.00    +0.214 C 
BRANCH  19  20
ATOM     20  N   UNL     1      -0.672   0.516   0.544  0.00  0.00    -0.215 N 
ATOM     21  C   UNL     1      -0.437   1.806   0.222  0.00  0.00    +0.247 C 
ATOM     22  O   UNL     1      -1.245   2.630  -0.150  0.00  0.00    -0.273 OA
ATOM     23  C   UNL     1       1.045   2.001   0.415  0.00  0.00    +0.113 C 
ATOM     24  C   UNL     1       1.721   2.419  -0.897  0.00  0.00    +0.035 C 
ATOM     25  C   UNL     1       1.859   3.959  -0.775  0.00  0.00    +0.003 C 
ATOM     26  C   UNL     1       2.189   4.157   0.726  0.00  0.00    +0.003 C 
ATOM     27  C   UNL     1       1.331   3.094   1.447  0.00  0.00    +0.035 C 
ATOM     28  N   UNL     1       1.530   0.696   0.869  0.00  0.00    -0.285 N 
ATOM     29  C   UNL     1       0.452  -0.111   0.917  0.00  0.00    +0.310 C 
ATOM     30  O   UNL     1       0.494  -1.277   1.257  0.00  0.00    -0.252 OA
ATOM     31  H   UNL     1       2.445   0.460   1.090  0.00  0.00    +0.151 HD
ENDBRANCH  19  20
ENDBRANCH  11  19
TORSDOF 3
