REMARK  Name = ZINC33618996
REMARK  10 active torsions:
REMARK  status: ('A' for Active; 'I' for Inactive)
REMARK    1  A    between atoms: C_1  and  C_2
REMARK    2  A    between atoms: C_2  and  O_3
REMARK    3  A    between atoms: O_3  and  C_4
REMARK    4  A    between atoms: C_4  and  C_6
REMARK    5  A    between atoms: C_7  and  C_33
REMARK    6  A    between atoms: C_14  and  C_15
REMARK    7  A    between atoms: C_22  and  C_24
REMARK    8  A    between atoms: C_27  and  C_30
REMARK    9  A    between atoms: C_30  and  C_31
REMARK   10  A    between atoms: C_30  and  C_32
REMARK                            x       y       z     vdW  Elec       q    Type
REMARK                         _______ _______ _______ _____ _____    ______ ____
ROOT
ATOM      1  C   UNL     1       0.215  -2.625  -3.443  0.00  0.00    +0.085 C 
ATOM      2  C   UNL     1       0.730  -3.887  -3.348  0.00  0.00    +0.053 C 
ATOM      3  N   UNL     1       1.760  -4.254  -4.100  0.00  0.00    -0.228 NA
ATOM      4  C   UNL     1       2.362  -3.483  -4.971  0.00  0.00    +0.178 A 
ATOM      5  N   UNL     1       2.002  -2.179  -5.223  0.00  0.00    -0.275 N 
ATOM      6  C   UNL     1       2.693  -1.487  -6.137  0.00  0.00    +0.268 A 
ATOM      7  O   UNL     1       2.413  -0.331  -6.394  0.00  0.00    -0.266 OA
ATOM      8  C   UNL     1       3.803  -2.168  -6.823  0.00  0.00    +0.081 A 
ATOM      9  C   UNL     1       4.646  -1.697  -7.776  0.00  0.00    +0.030 C 
ATOM     10  S   UNL     1       3.740  -3.781  -6.061  0.00  0.00    -0.046 S 
ATOM     11  C   UNL     1       0.848  -1.671  -4.430  0.00  0.00    +0.162 C 
ATOM     12  C   UNL     1       0.124  -4.870  -2.380  0.00  0.00    +0.066 C 
ENDROOT
BRANCH   9  13
ATOM     13  C   UNL     1       4.630  -0.271  -8.133  0.00  0.00    -0.006 A 
ATOM     14  C   UNL     1       4.432   0.710  -7.148  0.00  0.00    +0.011 A 
ATOM     15  C   UNL     1       4.425   2.036  -7.537  0.00  0.00    +0.020 A 
ATOM     16  C   UNL     1       4.612   2.353  -8.872  0.00  0.00    +0.111 A 
ATOM     17  N   UNL     1       4.795   1.411  -9.777  0.00  0.00    -0.263 NA
ATOM     18  C   UNL     1       4.816   0.134  -9.459  0.00  0.00    +0.118 A 
ENDBRANCH   9  13
BRANCH  11  19
ATOM     19  C   UNL     1      -0.222  -1.224  -5.393  0.00  0.00    -0.020 A 
ATOM     20  C   UNL     1      -0.595  -2.046  -6.441  0.00  0.00    +0.006 A 
ATOM     21  C   UNL     1      -1.576  -1.636  -7.325  0.00  0.00    +0.004 A 
ATOM     22  C   UNL     1      -2.184  -0.406  -7.161  0.00  0.00    -0.045 A 
ATOM     23  C   UNL     1      -1.811   0.415  -6.113  0.00  0.00    +0.004 A 
ATOM     24  C   UNL     1      -0.833   0.004  -5.226  0.00  0.00    +0.006 A 
BRANCH  22  25
ATOM     25  C   UNL     1      -3.252   0.041  -8.125  0.00  0.00    +0.013 C 
ATOM     26  C   UNL     1      -4.557   0.283  -7.364  0.00  0.00    +0.012 C 
ATOM     27  C   UNL     1      -2.813   1.337  -8.809  0.00  0.00    +0.012 C 
ENDBRANCH  22  25
ENDBRANCH  11  19
BRANCH   1  28
ATOM     28  C   UNL     1      -0.875  -2.228  -2.650  0.00  0.00    +0.339 C 
ATOM     29  O   UNL     1      -1.465  -3.048  -1.971  0.00  0.00    -0.245 OA
BRANCH  28  30
ATOM     30  O   UNL     1      -1.267  -0.935  -2.641  0.00  0.00    -0.462 OA
BRANCH  30  32
ATOM     31  C   UNL     1      -2.677   0.895  -1.931  0.00  0.00    +0.048 C 
ATOM     32  C   UNL     1      -2.382  -0.602  -1.812  0.00  0.00    +0.229 C 
ENDBRANCH  30  32
ENDBRANCH  28  30
ENDBRANCH   1  28
TORSDOF 6
