REMARK  Name = ZINC39422576
REMARK  8 active torsions:
REMARK  status: ('A' for Active; 'I' for Inactive)
REMARK    1  A    between atoms: C_1  and  C_2
REMARK    2  A    between atoms: C_10  and  C_14
REMARK    3  A    between atoms: C_14  and  C_16
REMARK    4  A    between atoms: C_14  and  S_17
REMARK    5  A    between atoms: S_17  and  C_18
REMARK    6  A    between atoms: C_21  and  C_23
REMARK    7  A    between atoms: C_28  and  O_29
REMARK    8  A    between atoms: O_29  and  C_30
REMARK                            x       y       z     vdW  Elec       q    Type
REMARK                         _______ _______ _______ _____ _____    ______ ____
ROOT
ATOM      1  C   UNL     1       7.523  -3.104   0.793  0.00  0.00    +0.118 C 
ATOM      2  C   UNL     1       8.703  -2.136   0.906  0.00  0.00    +0.027 C 
ENDROOT
BRANCH   1  11
ATOM      3  C   UNL     1      -0.019   1.526   0.010  0.00  0.00    +0.007 C 
ATOM      4  C   UNL     1       0.002  -0.004   0.002  0.00  0.00    -0.012 C 
ATOM      5  C   UNL     1       0.702  -0.489  -1.265  0.00  0.00    +0.008 C 
ATOM      6  C   UNL     1       2.123   0.085  -1.344  0.00  0.00    +0.033 C 
ATOM      7  C   UNL     1       2.809  -0.264  -0.025  0.00  0.00    -0.042 C 
ATOM      8  C   UNL     1       3.969  -0.911   0.083  0.00  0.00    +0.071 C 
ATOM      9  C   UNL     1       4.411  -1.344   1.435  0.00  0.00    +0.112 C 
ATOM     10  N   UNL     1       5.516  -2.025   1.629  0.00  0.00    -0.226 NA
ATOM     11  C   UNL     1       6.254  -2.325   0.560  0.00  0.00    +0.137 C 
ATOM     12  N   UNL     1       5.969  -1.998  -0.674  0.00  0.00    -0.160 NA
ATOM     13  C   UNL     1       4.875  -1.309  -1.047  0.00  0.00    +0.271 C 
ATOM     14  O   UNL     1       4.637  -1.030  -2.210  0.00  0.00    -0.268 OA
ATOM     15  S   UNL     1       3.169  -0.735   2.531  0.00  0.00    -0.097 S 
ATOM     16  C   UNL     1       2.124   0.120   1.289  0.00  0.00    +0.080 C 
ATOM     17  C   UNL     1       0.729  -0.504   1.254  0.00  0.00    +0.022 C 
ENDBRANCH   1  11
BRANCH   1  18
ATOM     18  S   UNL     1       7.374  -4.056   2.329  0.00  0.00    -0.055 S 
BRANCH  18  19
ATOM     19  C   UNL     1       8.853  -5.013   2.383  0.00  0.00    +0.278 A 
ATOM     20  N   UNL     1       9.819  -5.000   1.494  0.00  0.00    -0.101 NA
ATOM     21  N   UNL     1      10.742  -5.822   1.853  0.00  0.00    -0.106 NA
ATOM     22  C   UNL     1      10.403  -6.391   2.985  0.00  0.00    +0.253 A 
ATOM     23  O   UNL     1       9.203  -5.886   3.347  0.00  0.00    -0.411 OA
BRANCH  22  24
ATOM     24  C   UNL     1      11.191  -7.393   3.729  0.00  0.00    +0.080 A 
ATOM     25  C   UNL     1      10.703  -7.923   4.925  0.00  0.00    +0.017 A 
ATOM     26  C   UNL     1      11.443  -8.859   5.615  0.00  0.00    +0.001 A 
ATOM     27  C   UNL     1      12.669  -9.277   5.127  0.00  0.00    +0.004 A 
ATOM     28  C   UNL     1      13.164  -8.760   3.944  0.00  0.00    +0.046 A 
ATOM     29  C   UNL     1      12.430  -7.823   3.236  0.00  0.00    +0.132 A 
BRANCH  29  30
ATOM     30  O   UNL     1      12.912  -7.319   2.071  0.00  0.00    -0.494 OA
ATOM     31  C   UNL     1      14.182  -7.804   1.630  0.00  0.00    +0.277 C 
ENDBRANCH  29  30
ENDBRANCH  22  24
ENDBRANCH  18  19
ENDBRANCH   1  18
TORSDOF 5
