REMARK  Name = ZINC39729298
REMARK  6 active torsions:
REMARK  status: ('A' for Active; 'I' for Inactive)
REMARK    1  A    between atoms: C_1  and  C_2
REMARK    2  A    between atoms: C_2  and  N_3
REMARK    3  A    between atoms: N_6  and  C_9
REMARK    4  A    between atoms: C_10  and  C_20
REMARK    5  A    between atoms: N_24  and  C_28
REMARK    6  A    between atoms: C_28  and  C_29
REMARK                            x       y       z     vdW  Elec       q    Type
REMARK                         _______ _______ _______ _____ _____    ______ ____
ROOT
ATOM      1  C   UNL     1       3.680  -2.743  -2.975  0.00  0.00    +0.136 A 
ATOM      2  C   UNL     1       3.464  -4.135  -3.101  0.00  0.00    +0.081 A 
ATOM      3  C   UNL     1       4.567  -4.959  -3.431  0.00  0.00    +0.267 A 
ATOM      4  O   UNL     1       4.427  -6.164  -3.550  0.00  0.00    -0.267 OA
ATOM      5  N   UNL     1       5.777  -4.387  -3.613  0.00  0.00    -0.268 N 
ATOM      6  C   UNL     1       6.845  -5.172  -3.931  0.00  0.00    +0.096 A 
ATOM      7  C   UNL     1       8.069  -4.632  -4.120  0.00  0.00    +0.018 A 
ATOM      8  C   UNL     1       8.255  -3.249  -3.989  0.00  0.00    +0.005 A 
ATOM      9  C   UNL     1       7.194  -2.455  -3.670  0.00  0.00    +0.047 A 
ATOM     10  C   UNL     1       5.927  -3.034  -3.478  0.00  0.00    +0.142 A 
ATOM     11  N   UNL     1       4.894  -2.249  -3.172  0.00  0.00    -0.214 NA
ENDROOT
BRANCH   2  12
ATOM     12  C   UNL     1       2.179  -4.691  -2.901  0.00  0.00    +0.037 C 
ATOM     13  C   UNL     1       1.954  -5.530  -1.848  0.00  0.00    +0.077 C 
ATOM     14  C   UNL     1       2.817  -5.884  -0.772  0.00  0.00    +0.259 C 
ATOM     15  O   UNL     1       3.941  -5.422  -0.692  0.00  0.00    -0.269 OA
ATOM     16  N   UNL     1       2.363  -6.728   0.138  0.00  0.00    -0.251 N 
ATOM     17  C   UNL     1       1.116  -7.241   0.050  0.00  0.00    +0.121 C 
ATOM     18  S   UNL     1       0.329  -8.338   1.103  0.00  0.00    -0.027 S 
ATOM     19  S   UNL     1       0.493  -6.476  -1.440  0.00  0.00    -0.061 S 
BRANCH  16  20
ATOM     20  C   UNL     1       3.225  -7.115   1.258  0.00  0.00    +0.150 C 
BRANCH  20  21
ATOM     21  C   UNL     1       3.020  -6.157   2.404  0.00  0.00    -0.029 A 
ATOM     22  C   UNL     1       3.793  -5.015   2.496  0.00  0.00    +0.008 A 
ATOM     23  C   UNL     1       3.605  -4.136   3.546  0.00  0.00    +0.038 A 
ATOM     24  C   UNL     1       2.642  -4.399   4.505  0.00  0.00    +0.123 A 
ATOM     25  C   UNL     1       1.868  -5.544   4.411  0.00  0.00    +0.038 A 
ATOM     26  C   UNL     1       2.054  -6.419   3.358  0.00  0.00    +0.008 A 
ATOM     27  F   UNL     1       2.458  -3.541   5.532  0.00  0.00    -0.205 F 
ENDBRANCH  20  21
ENDBRANCH  16  20
ENDBRANCH   2  12
BRANCH   1  31
ATOM     28  N   UNL     1       1.163   0.081  -1.351  0.00  0.00    +0.382 N 
ATOM     29  C   UNL     1       2.301   0.465  -2.195  0.00  0.00    -0.060 C 
ATOM     30  C   UNL     1       2.499  -0.586  -3.292  0.00  0.00    +0.088 C 
ATOM     31  N   UNL     1       2.634  -1.905  -2.655  0.00  0.00    -0.318 N 
ATOM     32  C   UNL     1       1.619  -2.304  -1.667  0.00  0.00    +0.088 C 
ATOM     33  C   UNL     1       1.462  -1.172  -0.647  0.00  0.00    -0.060 C 
ATOM     34  H   UNL     1       0.346  -0.046  -1.929  0.00  0.00    -0.082 HD
BRANCH  28  36
ATOM     35  C   UNL     1       0.471   2.417  -1.096  0.00  0.00    -0.017 C 
ATOM     36  C   UNL     1       0.904   1.143  -0.368  0.00  0.00    -0.082 C 
ENDBRANCH  28  36
ENDBRANCH   1  31
TORSDOF 5
