REMARK  Name = ZINC38775946
REMARK  6 active torsions:
REMARK  status: ('A' for Active; 'I' for Inactive)
REMARK    1  A    between atoms: C_1  and  N_2
REMARK    2  A    between atoms: N_2  and  C_3
REMARK    3  A    between atoms: C_3  and  C_4
REMARK    4  A    between atoms: C_15  and  C_17
REMARK    5  A    between atoms: C_18  and  C_19
REMARK    6  A    between atoms: C_21  and  N_29
REMARK                            x       y       z     vdW  Elec       q    Type
REMARK                         _______ _______ _______ _____ _____    ______ ____
ROOT
ATOM      1  C   UNL     1      -0.018   1.461   0.010  0.00  0.00    +0.133 C 
ATOM      2  N   UNL     1       0.002  -0.004   0.002  0.00  0.00    -0.294 N 
ATOM      3  C   UNL     1       0.000  -0.672  -1.169  0.00  0.00    +0.240 C 
ATOM      4  O   UNL     1       0.017  -1.889  -1.175  0.00  0.00    -0.271 OA
ENDROOT
BRANCH   3   5
ATOM      5  C   UNL     1      -0.022   0.066  -2.431  0.00  0.00    +0.068 C 
ATOM      6  C   UNL     1      -0.024  -0.602  -3.604  0.00  0.00    +0.017 C 
BRANCH   6   7
ATOM      7  C   UNL     1      -0.046   0.139  -4.872  0.00  0.00    +0.019 A 
ATOM      8  C   UNL     1      -0.059   1.538  -4.870  0.00  0.00    +0.044 A 
ATOM      9  C   UNL     1      -0.082   2.226  -6.063  0.00  0.00    +0.127 A 
ATOM     10  C   UNL     1      -0.093   1.539  -7.266  0.00  0.00    +0.042 A 
ATOM     11  C   UNL     1      -0.080   0.156  -7.284  0.00  0.00    +0.023 A 
ATOM     12  C   UNL     1      -0.048  -0.552  -6.095  0.00  0.00    +0.136 A 
ATOM     13  O   UNL     1      -0.019  -1.909  -6.098  0.00  0.00    -0.465 OA
ATOM     14  C   UNL     1      -0.384  -2.561  -7.319  0.00  0.00    +0.395 C 
ATOM     15  O   UNL     1       0.314  -1.930  -8.400  0.00  0.00    -0.339 OA
ATOM     16  C   UNL     1      -0.097  -0.571  -8.605  0.00  0.00    +0.202 C 
BRANCH   9  17
ATOM     17  N   UNL     1      -0.095   3.706  -6.060  0.00  0.00    +0.056 N 
ATOM     18  O   UNL     1      -0.085   4.309  -5.012  0.00  0.00    -0.126 OA
ATOM     19  O   UNL     1      -0.115   4.312  -7.106  0.00  0.00    -0.126 OA
ENDBRANCH   9  17
ENDBRANCH   6   7
ENDBRANCH   3   5
BRANCH   2  20
ATOM     20  C   UNL     1       0.024  -0.743   1.267  0.00  0.00    +0.181 C 
BRANCH  20  21
ATOM     21  C   UNL     1      -1.389  -1.016   1.714  0.00  0.00    +0.140 C 
ATOM     22  N   UNL     1      -2.379  -0.589   0.958  0.00  0.00    -0.163 NA
ATOM     23  C   UNL     1      -3.650  -0.977   1.129  0.00  0.00    +0.257 C 
ATOM     24  O   UNL     1      -4.565  -0.435   0.540  0.00  0.00    -0.272 OA
ATOM     25  C   UNL     1      -3.892  -2.108   2.079  0.00  0.00    +0.187 C 
ATOM     26  C   UNL     1      -2.821  -2.040   3.161  0.00  0.00    +0.066 C 
ATOM     27  N   UNL     1      -1.576  -1.681   2.848  0.00  0.00    -0.236 NA
ATOM     28  C   UNL     1      -3.364  -2.159   4.415  0.00  0.00    +0.032 C 
ATOM     29  C   UNL     1      -4.709  -2.115   4.608  0.00  0.00    +0.043 C 
ATOM     30  S   UNL     1      -5.413  -1.928   3.068  0.00  0.00    -0.114 S 
ENDBRANCH  20  21
ENDBRANCH   2  20
TORSDOF 5
