REMARK  Name = ZINC54200507
REMARK  7 active torsions:
REMARK  status: ('A' for Active; 'I' for Inactive)
REMARK    1  A    between atoms: C_1  and  C_2
REMARK    2  A    between atoms: C_4  and  N_23
REMARK    3  A    between atoms: C_7  and  N_8
REMARK    4  A    between atoms: C_9  and  C_11
REMARK    5  A    between atoms: C_11  and  N_12
REMARK    6  A    between atoms: N_12  and  S_13
REMARK    7  A    between atoms: S_13  and  C_16
REMARK                            x       y       z     vdW  Elec       q    Type
REMARK                         _______ _______ _______ _____ _____    ______ ____
ROOT
ATOM      1  N   UNL     1       0.025  -0.015   2.417  0.00  0.00    -0.284 N 
ATOM      2  C   UNL     1      -0.057  -0.694   3.578  0.00  0.00    +0.233 C 
ATOM      3  O   UNL     1      -0.040  -1.907   3.573  0.00  0.00    -0.274 OA
ATOM      4  H   UNL     1       0.077   0.954   2.425  0.00  0.00    +0.155 HD
ENDROOT
BRANCH   1  11
ATOM      5  C   UNL     1      -1.265   1.183   0.181  0.00  0.00    +0.046 C 
ATOM      6  C   UNL     1      -0.584  -0.158   0.084  0.00  0.00    -0.027 A 
ATOM      7  C   UNL     1      -0.569  -0.841  -1.117  0.00  0.00    +0.038 A 
ATOM      8  C   UNL     1       0.056  -2.071  -1.206  0.00  0.00    +0.127 A 
ATOM      9  C   UNL     1       0.667  -2.622  -0.095  0.00  0.00    +0.034 A 
ATOM     10  C   UNL     1       0.656  -1.944   1.109  0.00  0.00    +0.026 A 
ATOM     11  C   UNL     1       0.034  -0.706   1.201  0.00  0.00    +0.036 A 
BRANCH   8  12
ATOM     12  N   UNL     1       0.070  -2.800  -2.494  0.00  0.00    +0.056 N 
ATOM     13  O   UNL     1      -0.465  -2.320  -3.466  0.00  0.00    -0.126 OA
ATOM     14  O   UNL     1       0.615  -3.876  -2.574  0.00  0.00    -0.126 OA
ENDBRANCH   8  12
ENDBRANCH   1  11
BRANCH   2  15
ATOM     15  C   UNL     1      -0.169   0.052   4.882  0.00  0.00    +0.201 C 
BRANCH  15  16
ATOM     16  N   UNL     1      -0.242  -0.905   5.988  0.00  0.00    -0.181 NA
ATOM     17  H   UNL     1      -0.434  -1.839   5.809  0.00  0.00    +0.149 HD
BRANCH  16  18
ATOM     18  S   UNL     1       0.002  -0.393   7.544  0.00  0.00    +0.059 S 
ATOM     19  O   UNL     1      -0.160  -1.533   8.377  0.00  0.00    -0.153 OA
ATOM     20  O   UNL     1       1.193   0.381   7.535  0.00  0.00    -0.153 OA
BRANCH  18  21
ATOM     21  C   UNL     1      -1.313   0.711   7.942  0.00  0.00    +0.105 A 
ATOM     22  C   UNL     1      -1.180   2.063   7.687  0.00  0.00    +0.029 A 
ATOM     23  C   UNL     1      -2.211   2.929   7.999  0.00  0.00    +0.017 A 
ATOM     24  C   UNL     1      -3.376   2.443   8.564  0.00  0.00    +0.018 A 
ATOM     25  C   UNL     1      -3.508   1.090   8.819  0.00  0.00    +0.017 A 
ATOM     26  C   UNL     1      -2.479   0.223   8.502  0.00  0.00    +0.029 A 
ATOM     27 BR   UNL     1      -4.787   3.628   8.991  0.00  0.00    -0.050 Br
ENDBRANCH  18  21
ENDBRANCH  16  18
ENDBRANCH  15  16
ENDBRANCH   2  15
TORSDOF 6
