REMARK  Name = ZINC39693424
REMARK  11 active torsions:
REMARK  status: ('A' for Active; 'I' for Inactive)
REMARK    1  A    between atoms: C_1  and  C_2
REMARK    2  A    between atoms: C_2  and  C_3
REMARK    3  A    between atoms: C_2  and  C_4
REMARK    4  A    between atoms: C_2  and  O_5
REMARK    5  A    between atoms: O_5  and  C_6
REMARK    6  A    between atoms: N_8  and  C_9
REMARK    7  A    between atoms: C_9  and  C_10
REMARK    8  A    between atoms: C_10  and  N_11
REMARK    9  A    between atoms: C_12  and  C_14
REMARK   10  A    between atoms: C_25  and  C_27
REMARK   11  A    between atoms: C_31  and  C_33
REMARK                            x       y       z     vdW  Elec       q    Type
REMARK                         _______ _______ _______ _____ _____    ______ ____
ROOT
ATOM      1  C   UNL     1       7.591   0.096  -5.721  0.00  0.00    +0.100 C 
ATOM      2  C   UNL     1       7.971   1.592  -5.774  0.00  0.00    +0.121 C 
ATOM      3  N   UNL     1       9.095   1.660  -6.738  0.00  0.00    -0.296 N 
ATOM      4  C   UNL     1       8.721   0.703  -7.807  0.00  0.00    +0.115 C 
ATOM      5  C   UNL     1       8.084  -0.484  -7.058  0.00  0.00    -0.004 C 
ATOM      6  C   UNL     1       6.911  -1.043  -7.856  0.00  0.00    -0.010 C 
ATOM      7  C   UNL     1       7.433  -1.666  -9.154  0.00  0.00    -0.082 C 
ATOM      8  N   UNL     1       8.387  -2.735  -8.836  0.00  0.00    +0.379 N 
ATOM      9  C   UNL     1       9.557  -2.174  -8.150  0.00  0.00    -0.082 C 
ATOM     10  C   UNL     1       9.125  -1.572  -6.810  0.00  0.00    -0.010 C 
ATOM     11  C   UNL     1      10.206   2.419  -6.660  0.00  0.00    +0.247 C 
ATOM     12  O   UNL     1      10.433   3.062  -5.653  0.00  0.00    -0.270 OA
ATOM     13  H   UNL     1       7.942  -3.415  -8.238  0.00  0.00    -0.086 HD
ATOM     14  H   UNL     1       8.684  -3.184  -9.690  0.00  0.00    -0.086 HD
ENDROOT
BRANCH  11  15
ATOM     15  C   UNL     1      11.147   2.469  -7.797  0.00  0.00    +0.038 A 
ATOM     16  C   UNL     1      10.719   2.112  -9.078  0.00  0.00    +0.016 A 
ATOM     17  C   UNL     1      11.602   2.161 -10.135  0.00  0.00    +0.039 A 
ATOM     18  C   UNL     1      12.913   2.564  -9.929  0.00  0.00    +0.135 A 
ATOM     19  C   UNL     1      13.343   2.919  -8.660  0.00  0.00    +0.091 A 
ATOM     20  C   UNL     1      12.467   2.879  -7.596  0.00  0.00    +0.028 A 
ATOM     21  F   UNL     1      13.774   2.609 -10.969  0.00  0.00    -0.205 F 
BRANCH  19  22
ATOM     22  C   UNL     1      14.769   3.355  -8.444  0.00  0.00    +0.420 C 
ATOM     23  F   UNL     1      14.964   3.660  -7.092  0.00  0.00    -0.166 F 
ATOM     24  F   UNL     1      15.634   2.321  -8.818  0.00  0.00    -0.166 F 
ATOM     25  F   UNL     1      15.033   4.488  -9.220  0.00  0.00    -0.166 F 
ENDBRANCH  19  22
ENDBRANCH  11  15
BRANCH   1  27
ATOM     26  N   UNL     1       5.583  -1.130  -4.958  0.00  0.00    -0.314 N 
ATOM     27  C   UNL     1       6.097  -0.062  -5.600  0.00  0.00    +0.218 C 
ATOM     28  O   UNL     1       5.358   0.770  -6.081  0.00  0.00    -0.275 OA
ATOM     29  H   UNL     1       6.174  -1.796  -4.573  0.00  0.00    +0.149 HD
BRANCH  26  30
ATOM     30  C   UNL     1       4.130  -1.283  -4.840  0.00  0.00    +0.123 C 
BRANCH  30  31
ATOM     31  C   UNL     1       3.814  -2.568  -4.072  0.00  0.00    +0.126 C 
BRANCH  31  34
ATOM     32  C   UNL     1       1.847  -3.789  -3.311  0.00  0.00    +0.401 C 
ATOM     33  O   UNL     1       2.588  -4.624  -2.830  0.00  0.00    -0.226 OA
ATOM     34  N   UNL     1       2.362  -2.722  -3.954  0.00  0.00    -0.280 N 
ATOM     35  H   UNL     1       1.771  -2.056  -4.338  0.00  0.00    +0.152 HD
BRANCH  32  36
ATOM     36  O   UNL     1       0.513  -3.930  -3.203  0.00  0.00    -0.445 OA
BRANCH  36  38
ATOM     37  C   UNL     1       0.567  -5.072  -1.074  0.00  0.00    +0.055 C 
ATOM     38  C   UNL     1       0.037  -5.085  -2.509  0.00  0.00    +0.107 C 
ATOM     39  C   UNL     1       0.527  -6.347  -3.222  0.00  0.00    +0.055 C 
ATOM     40  C   UNL     1      -1.493  -5.073  -2.488  0.00  0.00    +0.055 C 
ENDBRANCH  36  38
ENDBRANCH  32  36
ENDBRANCH  31  34
ENDBRANCH  30  31
ENDBRANCH  26  30
ENDBRANCH   1  27
TORSDOF 8
