REMARK  Name = ZINC17358497
REMARK  10 active torsions:
REMARK  status: ('A' for Active; 'I' for Inactive)
REMARK    1  A    between atoms: C_1  and  C_2
REMARK    2  A    between atoms: C_2  and  C_3
REMARK    3  A    between atoms: C_2  and  C_4
REMARK    4  A    between atoms: C_2  and  C_5
REMARK    5  A    between atoms: C_8  and  C_11
REMARK    6  A    between atoms: N_13  and  C_14
REMARK    7  A    between atoms: C_14  and  C_15
REMARK    8  A    between atoms: C_15  and  C_16
REMARK    9  A    between atoms: N_18  and  N_19
REMARK   10  A    between atoms: C_20  and  C_22
REMARK                            x       y       z     vdW  Elec       q    Type
REMARK                         _______ _______ _______ _____ _____    ______ ____
ROOT
ATOM      1  C   UNL     1       2.424   0.737  -0.017  0.00  0.00    +0.116 C 
ENDROOT
BRANCH   1   2
ATOM      2  C   UNL     1       3.719   1.508  -0.025  0.00  0.00    +0.231 C 
ATOM      3  O   UNL     1       3.702   2.721  -0.019  0.00  0.00    -0.274 OA
ATOM      4  N   UNL     1       4.895   0.851  -0.040  0.00  0.00    -0.234 N 
ATOM      5  H   UNL     1       4.908  -0.119  -0.045  0.00  0.00    +0.173 HD
BRANCH   4   6
ATOM      6  N   UNL     1       6.098   1.567  -0.048  0.00  0.00    -0.230 N 
ATOM      7  C   UNL     1       7.274   0.909  -0.062  0.00  0.00    +0.261 C 
ATOM      8  O   UNL     1       7.291  -0.306  -0.069  0.00  0.00    -0.269 OA
ATOM      9  H   UNL     1       6.085   2.537  -0.042  0.00  0.00    +0.173 HD
BRANCH   7  10
ATOM     10  C   UNL     1       8.544   1.666  -0.071  0.00  0.00    +0.052 A 
ATOM     11  C   UNL     1       8.529   3.062  -0.069  0.00  0.00    +0.014 A 
ATOM     12  C   UNL     1       9.717   3.762  -0.071  0.00  0.00    +0.001 A 
ATOM     13  C   UNL     1      10.924   3.083  -0.086  0.00  0.00    +0.001 A 
ATOM     14  C   UNL     1      10.947   1.701  -0.093  0.00  0.00    +0.016 A 
ATOM     15  C   UNL     1       9.765   0.987  -0.086  0.00  0.00    +0.030 A 
ATOM     16 BR   UNL     1       9.798  -0.903  -0.097  0.00  0.00    -0.050 Br
ENDBRANCH   7  10
ENDBRANCH   4   6
ENDBRANCH   1   2
BRANCH   1  17
ATOM     17  C   UNL     1       1.248   1.716  -0.001  0.00  0.00    +0.114 C 
BRANCH  17  20
ATOM     18  C   UNL     1      -1.187   1.624   0.017  0.00  0.00    +0.244 C 
ATOM     19  O   UNL     1      -1.204   2.839   0.023  0.00  0.00    -0.270 OA
ATOM     20  N   UNL     1      -0.011   0.966   0.007  0.00  0.00    -0.311 N 
ATOM     21  H   UNL     1       0.002  -0.004   0.002  0.00  0.00    +0.149 HD
BRANCH  18  25
ATOM     22  C   UNL     1      -4.837  -0.550   0.021  0.00  0.00    -0.042 A 
ATOM     23  C   UNL     1      -4.859   0.834   0.029  0.00  0.00    +0.005 A 
ATOM     24  C   UNL     1      -3.677   1.546   0.028  0.00  0.00    +0.013 A 
ATOM     25  C   UNL     1      -2.458   0.867   0.018  0.00  0.00    +0.037 A 
ATOM     26  C   UNL     1      -2.442  -0.528   0.005  0.00  0.00    +0.013 A 
ATOM     27  C   UNL     1      -3.631  -1.228   0.011  0.00  0.00    +0.005 A 
BRANCH  22  29
ATOM     28  C   UNL     1      -6.945  -0.955  -1.221  0.00  0.00    +0.015 C 
ATOM     29  C   UNL     1      -6.131  -1.321   0.022  0.00  0.00    -0.013 C 
ATOM     30  C   UNL     1      -5.832  -2.821   0.011  0.00  0.00    +0.015 C 
ATOM     31  C   UNL     1      -6.933  -0.970   1.277  0.00  0.00    +0.015 C 
ENDBRANCH  22  29
ENDBRANCH  18  25
ENDBRANCH  17  20
ENDBRANCH   1  17
TORSDOF 7
