REMARK  Name = ZINC13202323
REMARK  7 active torsions:
REMARK  status: ('A' for Active; 'I' for Inactive)
REMARK    1  A    between atoms: C_1  and  C_2
REMARK    2  A    between atoms: C_2  and  N_3
REMARK    3  A    between atoms: C_9  and  C_34
REMARK    4  A    between atoms: C_13  and  S_14
REMARK    5  A    between atoms: S_14  and  C_15
REMARK    6  A    between atoms: C_15  and  C_16
REMARK    7  A    between atoms: C_22  and  C_24
REMARK                            x       y       z     vdW  Elec       q    Type
REMARK                         _______ _______ _______ _____ _____    ______ ____
ROOT
ATOM      1  C   UNL     1       6.392   6.416  -0.026  0.00  0.00    +0.173 C 
ENDROOT
BRANCH   1   2
ATOM      2  C   UNL     1       7.833   6.857  -0.038  0.00  0.00    +0.226 C 
ATOM      3  O   UNL     1       8.106   8.039  -0.036  0.00  0.00    -0.275 OA
ATOM      4  N   UNL     1       8.819   5.938  -0.052  0.00  0.00    -0.294 N 
ATOM      5  C   UNL     1       8.630   4.476  -0.050  0.00  0.00    +0.108 C 
ATOM      6  C   UNL     1       9.941   3.905   0.542  0.00  0.00    +0.021 C 
ATOM      7  C   UNL     1      11.000   4.873  -0.050  0.00  0.00    +0.029 C 
ATOM      8  C   UNL     1      10.260   6.227  -0.065  0.00  0.00    +0.106 C 
BRANCH   8   9
ATOM      9  C   UNL     1      10.618   6.993  -1.313  0.00  0.00    -0.023 A 
ATOM     10  C   UNL     1      10.016   6.673  -2.515  0.00  0.00    +0.009 A 
ATOM     11  C   UNL     1      10.339   7.375  -3.661  0.00  0.00    +0.050 A 
ATOM     12  C   UNL     1      11.276   8.396  -3.609  0.00  0.00    +0.162 A 
ATOM     13  C   UNL     1      11.883   8.716  -2.401  0.00  0.00    +0.162 A 
ATOM     14  C   UNL     1      11.552   8.010  -1.254  0.00  0.00    +0.055 A 
ATOM     15  O   UNL     1      12.799   9.720  -2.326  0.00  0.00    -0.485 OA
ATOM     16  C   UNL     1      13.378  10.156  -3.561  0.00  0.00    +0.270 C 
ATOM     17  C   UNL     1      12.249  10.334  -4.585  0.00  0.00    +0.270 C 
ATOM     18  O   UNL     1      11.590   9.073  -4.747  0.00  0.00    -0.485 OA
ENDBRANCH   8   9
ENDBRANCH   1   2
BRANCH   1  19
ATOM     19  S   UNL     1       5.316   7.871  -0.009  0.00  0.00    -0.078 S 
BRANCH  19  30
ATOM     20  N   UNL     1       2.621   7.870   0.017  0.00  0.00    -0.288 N 
ATOM     21  C   UNL     1       1.389   7.311   0.026  0.00  0.00    +0.262 A 
ATOM     22  O   UNL     1       0.385   7.998   0.039  0.00  0.00    -0.267 OA
ATOM     23  C   UNL     1       1.308   5.841   0.020  0.00  0.00    +0.065 A 
ATOM     24  C   UNL     1       0.083   5.176   0.028  0.00  0.00    +0.016 A 
ATOM     25  C   UNL     1       0.050   3.811   0.016  0.00  0.00    +0.016 A 
ATOM     26  C   UNL     1       1.238   3.069   0.007  0.00  0.00    +0.065 A 
ATOM     27  C   UNL     1       2.470   3.711  -0.002  0.00  0.00    +0.043 A 
ATOM     28  C   UNL     1       2.516   5.108   0.005  0.00  0.00    +0.080 A 
ATOM     29  N   UNL     1       3.693   5.776  -0.003  0.00  0.00    -0.223 NA
ATOM     30  C   UNL     1       3.739   7.086   0.003  0.00  0.00    +0.173 A 
BRANCH  26  31
ATOM     31  C   UNL     1       1.181   1.591  -0.001  0.00  0.00    +0.387 C 
ATOM     32  O   UNL     1       2.208   0.943  -0.014  0.00  0.00    -0.241 OA
ATOM     33  O   UNL     1      -0.011   0.963   0.007  0.00  0.00    -0.241 OA
ENDBRANCH  26  31
BRANCH  20  35
ATOM     34  C   UNL     1       2.818   9.830   1.466  0.00  0.00    +0.027 C 
ATOM     35  C   UNL     1       2.757   9.329   0.022  0.00  0.00    +0.124 C 
ENDBRANCH  20  35
ENDBRANCH  19  30
ENDBRANCH   1  19
TORSDOF 6
