REMARK  Name = ZINC20740450
REMARK  5 active torsions:
REMARK  status: ('A' for Active; 'I' for Inactive)
REMARK    1  A    between atoms: C_6  and  C_7
REMARK    2  A    between atoms: C_7  and  N_8
REMARK    3  A    between atoms: N_11  and  C_14
REMARK    4  A    between atoms: C_17  and  N_23
REMARK    5  A    between atoms: C_19  and  N_20
REMARK                            x       y       z     vdW  Elec       q    Type
REMARK                         _______ _______ _______ _____ _____    ______ ____
ROOT
ATOM      1  C   UNL     1      -4.606  -0.723  -4.327  0.00  0.00    +0.060 A 
ATOM      2  C   UNL     1      -4.651  -1.119  -5.658  0.00  0.00    +0.027 A 
ATOM      3  C   UNL     1      -5.782  -0.878  -6.412  0.00  0.00    +0.026 A 
ATOM      4  C   UNL     1      -6.874  -0.239  -5.841  0.00  0.00    +0.046 A 
ATOM      5  C   UNL     1      -6.830   0.157  -4.511  0.00  0.00    +0.058 A 
ATOM      6  C   UNL     1      -5.702  -0.089  -3.754  0.00  0.00    +0.149 A 
ENDROOT
BRANCH   4   7
ATOM      7  N   UNL     1      -8.024   0.006  -6.608  0.00  0.00    -0.210 N 
ATOM      8  C   UNL     1      -9.145   0.637  -6.124  0.00  0.00    +0.231 C 
ATOM      9  O   UNL     1      -9.240   1.317  -5.125  0.00  0.00    -0.274 OA
ATOM     10  C   UNL     1     -10.227   0.294  -7.110  0.00  0.00    +0.095 C 
ATOM     11  C   UNL     1     -11.297   1.304  -7.540  0.00  0.00    +0.025 C 
ATOM     12  C   UNL     1     -11.633   0.576  -8.920  0.00  0.00    +0.016 C 
ATOM     13  C   UNL     1     -10.178   0.808  -9.504  0.00  0.00    +0.025 C 
ATOM     14  C   UNL     1      -9.267   0.451  -8.359  0.00  0.00    +0.095 C 
ATOM     15  C   UNL     1      -8.152  -0.355  -7.940  0.00  0.00    +0.231 C 
ATOM     16  O   UNL     1      -7.497  -1.145  -8.584  0.00  0.00    -0.274 OA
ATOM     17  C   UNL     1     -10.152   2.358  -9.307  0.00  0.00    -0.027 C 
ATOM     18  C   UNL     1     -10.726   2.584  -8.117  0.00  0.00    -0.027 C 
ENDBRANCH   4   7
BRANCH   1  22
ATOM     19  N   UNL     1      -1.727  -1.018  -1.371  0.00  0.00    +0.384 N 
ATOM     20  C   UNL     1      -2.031   0.264  -2.020  0.00  0.00    -0.059 C 
ATOM     21  C   UNL     1      -2.373   0.021  -3.493  0.00  0.00    +0.086 C 
ATOM     22  N   UNL     1      -3.461  -0.967  -3.563  0.00  0.00    -0.332 N 
ATOM     23  C   UNL     1      -3.310  -2.219  -2.805  0.00  0.00    +0.086 C 
ATOM     24  C   UNL     1      -2.923  -1.870  -1.364  0.00  0.00    -0.059 C 
ATOM     25  H   UNL     1      -0.988  -1.482  -1.878  0.00  0.00    -0.081 HD
BRANCH  19  26
ATOM     26  C   UNL     1      -1.293  -0.775   0.011  0.00  0.00    -0.043 C 
BRANCH  26  32
ATOM     27  C   UNL     1      -0.017   1.378   0.010  0.00  0.00    +0.003 A 
ATOM     28  C   UNL     1       1.171   2.086   0.002  0.00  0.00    +0.020 A 
ATOM     29  C   UNL     1       2.378   1.410  -0.013  0.00  0.00    +0.041 A 
ATOM     30  C   UNL     1       2.396   0.027  -0.021  0.00  0.00    +0.020 A 
ATOM     31  C   UNL     1       1.208  -0.679  -0.013  0.00  0.00    +0.003 A 
ATOM     32  C   UNL     1       0.002  -0.004   0.002  0.00  0.00    -0.064 A 
ATOM     33 CL   UNL     1       3.870   2.298  -0.023  0.00  0.00    -0.084 Cl
ENDBRANCH  26  32
ENDBRANCH  19  26
ENDBRANCH   1  22
BRANCH   6  34
ATOM     34  N   UNL     1      -5.657   0.328  -2.335  0.00  0.00    +0.058 N 
ATOM     35  O   UNL     1      -6.610   0.879  -1.836  0.00  0.00    -0.126 OA
ATOM     36  O   UNL     1      -4.667   0.117  -1.674  0.00  0.00    -0.126 OA
ENDBRANCH   6  34
TORSDOF 5
