REMARK  Name = ZINC16428287
REMARK  3 active torsions:
REMARK  status: ('A' for Active; 'I' for Inactive)
REMARK    1  A    between atoms: C_6  and  N_7
REMARK    2  A    between atoms: C_8  and  C_10
REMARK    3  A    between atoms: C_10  and  C_11
REMARK                            x       y       z     vdW  Elec       q    Type
REMARK                         _______ _______ _______ _____ _____    ______ ____
ROOT
ATOM      1  C   UNL     1       0.951  -2.255  -0.121  0.00  0.00    +0.162 A 
ATOM      2  N   UNL     1       1.859  -3.224  -0.219  0.00  0.00    -0.195 NA
ATOM      3  C   UNL     1       1.264  -4.399  -0.175  0.00  0.00    +0.234 A 
ATOM      4  N   UNL     1       1.739  -5.685  -0.235  0.00  0.00    -0.327 N 
ATOM      5  H   UNL     1       2.692  -5.840  -0.324  0.00  0.00    +0.169 HD
ATOM      6  C   UNL     1       0.882  -6.754  -0.174  0.00  0.00    +0.027 A 
ATOM      7  C   UNL     1      -0.439  -6.539  -0.037  0.00  0.00    +0.038 A 
ATOM      8  C   UNL     1      -0.924  -5.209   0.028  0.00  0.00    +0.279 A 
ATOM      9  O   UNL     1      -2.119  -5.004   0.150  0.00  0.00    -0.265 OA
ATOM     10  N   UNL     1      -0.072  -4.175  -0.043  0.00  0.00    -0.161 N 
ATOM     11  N   UNL     1      -0.240  -2.784  -0.007  0.00  0.00    -0.145 NA
ATOM     12  C   UNL     1      -1.445  -7.656   0.058  0.00  0.00    +0.042 C 
ATOM     13  C   UNL     1      -0.847  -8.965  -0.453  0.00  0.00    +0.005 C 
ATOM     14  C   UNL     1       0.500  -9.183   0.247  0.00  0.00    +0.006 C 
ATOM     15  C   UNL     1       1.482  -8.132  -0.266  0.00  0.00    +0.054 C 
ENDROOT
BRANCH   1  16
ATOM     16  C   UNL     1       1.249  -0.777  -0.135  0.00  0.00    +0.174 C 
BRANCH  16  18
ATOM     17  N   UNL     1      -0.016   1.344   0.009  0.00  0.00    -0.285 N 
ATOM     18  C   UNL     1      -0.038  -0.004  -0.003  0.00  0.00    +0.225 C 
ATOM     19  O   UNL     1      -1.093  -0.594   0.093  0.00  0.00    -0.275 OA
ATOM     20  H   UNL     1       0.832   1.815   0.001  0.00  0.00    +0.155 HD
BRANCH  17  26
ATOM     21  C   UNL     1      -1.313   3.273  -0.645  0.00  0.00    +0.025 A 
ATOM     22  C   UNL     1      -2.501   3.978  -0.630  0.00  0.00    +0.022 A 
ATOM     23  C   UNL     1      -3.591   3.485   0.067  0.00  0.00    +0.041 A 
ATOM     24  C   UNL     1      -3.495   2.282   0.744  0.00  0.00    +0.022 A 
ATOM     25  C   UNL     1      -2.312   1.570   0.726  0.00  0.00    +0.025 A 
ATOM     26  C   UNL     1      -1.217   2.063   0.029  0.00  0.00    +0.033 A 
ATOM     27 CL   UNL     1      -5.080   4.377   0.090  0.00  0.00    -0.084 Cl
ENDBRANCH  17  26
ENDBRANCH  16  18
ENDBRANCH   1  16
TORSDOF 3
