REMARK  Name = ZINC35673662
REMARK  14 active torsions:
REMARK  status: ('A' for Active; 'I' for Inactive)
REMARK    1  A    between atoms: C_1  and  C_2
REMARK    2  A    between atoms: C_2  and  C_3
REMARK    3  A    between atoms: C_2  and  C_4
REMARK    4  A    between atoms: C_7  and  N_10
REMARK    5  A    between atoms: C_12  and  C_34
REMARK    6  A    between atoms: N_15  and  C_16
REMARK    7  A    between atoms: C_16  and  C_18
REMARK    8  A    between atoms: C_18  and  N_19
REMARK    9  A    between atoms: N_19  and  C_20
REMARK   10  A    between atoms: C_20  and  C_21
REMARK   11  A    between atoms: C_21  and  N_22
REMARK   12  A    between atoms: N_22  and  C_23
REMARK   13  A    between atoms: N_22  and  C_24
REMARK   14  A    between atoms: C_25  and  C_27
REMARK                            x       y       z     vdW  Elec       q    Type
REMARK                         _______ _______ _______ _____ _____    ______ ____
ROOT
ATOM      1  N   UNL     1      -0.153  -0.853   3.901  0.00  0.00    -0.287 N 
ATOM      2  C   UNL     1       0.818   0.105   4.111  0.00  0.00    +0.120 A 
ATOM      3  C   UNL     1       1.410  -0.151   5.290  0.00  0.00    +0.066 A 
ATOM      4  N   UNL     1       0.810  -1.282   5.832  0.00  0.00    -0.326 N 
ATOM      5  C   UNL     1      -0.152  -1.697   4.968  0.00  0.00    +0.205 A 
ATOM      6  N   UNL     1      -0.954  -2.749   5.134  0.00  0.00    -0.145 NA
ATOM      7  H   UNL     1       1.035  -1.698   6.678  0.00  0.00    +0.169 HD
ENDROOT
BRANCH   1  11
ATOM      8  C   UNL     1      -2.660  -1.109   0.582  0.00  0.00    -0.045 A 
ATOM      9  C   UNL     1      -1.723  -0.095   0.662  0.00  0.00    +0.006 A 
ATOM     10  C   UNL     1      -0.891  -0.008   1.761  0.00  0.00    +0.026 A 
ATOM     11  C   UNL     1      -0.996  -0.939   2.786  0.00  0.00    +0.049 A 
ATOM     12  C   UNL     1      -1.938  -1.956   2.702  0.00  0.00    +0.026 A 
ATOM     13  C   UNL     1      -2.771  -2.034   1.603  0.00  0.00    +0.006 A 
BRANCH   8  15
ATOM     14  C   UNL     1      -4.391   0.082  -0.735  0.00  0.00    +0.012 C 
ATOM     15  C   UNL     1      -3.567  -1.201  -0.618  0.00  0.00    +0.013 C 
ATOM     16  C   UNL     1      -2.723  -1.383  -1.882  0.00  0.00    +0.012 C 
ENDBRANCH   8  15
ENDBRANCH   1  11
BRANCH   3  17
ATOM     17  C   UNL     1       2.506   0.630   5.903  0.00  0.00    -0.000 A 
ATOM     18  C   UNL     1       3.016   1.753   5.250  0.00  0.00    +0.010 A 
ATOM     19  C   UNL     1       4.038   2.478   5.826  0.00  0.00    +0.001 A 
ATOM     20  C   UNL     1       4.559   2.093   7.049  0.00  0.00    +0.000 A 
ATOM     21  C   UNL     1       4.059   0.980   7.701  0.00  0.00    +0.001 A 
ATOM     22  C   UNL     1       3.032   0.251   7.138  0.00  0.00    +0.010 A 
ENDBRANCH   3  17
BRANCH   6  23
ATOM     23  C   UNL     1      -0.851  -3.496   6.227  0.00  0.00    +0.256 C 
ATOM     24  O   UNL     1      -0.025  -3.220   7.077  0.00  0.00    -0.272 OA
BRANCH  23  25
ATOM     25  C   UNL     1      -1.756  -4.685   6.416  0.00  0.00    +0.205 C 
BRANCH  25  26
ATOM     26  N   UNL     1      -1.447  -5.338   7.690  0.00  0.00    -0.290 N 
ATOM     27  C   UNL     1      -0.781  -6.510   7.703  0.00  0.00    +0.250 C 
ATOM     28  O   UNL     1      -0.553  -7.068   8.758  0.00  0.00    -0.270 OA
BRANCH  27  29
ATOM     29  C   UNL     1      -0.327  -7.115   6.434  0.00  0.00    +0.072 A 
ATOM     30  C   UNL     1      -0.079  -6.309   5.321  0.00  0.00    +0.016 A 
ATOM     31  C   UNL     1       0.345  -6.880   4.140  0.00  0.00    +0.001 A 
ATOM     32  C   UNL     1       0.524  -8.250   4.054  0.00  0.00    +0.003 A 
ATOM     33  C   UNL     1       0.281  -9.057   5.150  0.00  0.00    +0.039 A 
ATOM     34  C   UNL     1      -0.139  -8.498   6.344  0.00  0.00    +0.135 A 
ATOM     35  F   UNL     1      -0.371  -9.285   7.416  0.00  0.00    -0.205 F 
ENDBRANCH  27  29
BRANCH  26  36
ATOM     36  C   UNL     1      -1.861  -4.717   8.951  0.00  0.00    +0.090 C 
BRANCH  36  37
ATOM     37  C   UNL     1      -3.204  -5.304   9.391  0.00  0.00    -0.060 C 
BRANCH  37  38
ATOM     38  N   UNL     1      -3.572  -4.756  10.703  0.00  0.00    +0.377 N 
ATOM     39  C   UNL     1      -4.924  -5.205  11.060  0.00  0.00    -0.097 C 
ATOM     40  C   UNL     1      -2.616  -5.226  11.715  0.00  0.00    -0.097 C 
ATOM     41  H   UNL     1      -3.551  -3.748  10.664  0.00  0.00    -0.083 HD
ENDBRANCH  37  38
ENDBRANCH  36  37
ENDBRANCH  26  36
ENDBRANCH  25  26
ENDBRANCH  23  25
ENDBRANCH   6  23
TORSDOF 10
