REMARK  Name = ZINC09432636
REMARK  12 active torsions:
REMARK  status: ('A' for Active; 'I' for Inactive)
REMARK    1  A    between atoms: C_1  and  C_2
REMARK    2  A    between atoms: C_2  and  C_3
REMARK    3  A    between atoms: C_9  and  C_10
REMARK    4  A    between atoms: C_9  and  N_71
REMARK    5  A    between atoms: C_10  and  C_11
REMARK    6  A    between atoms: C_11  and  N_12
REMARK    7  A    between atoms: C_13  and  C_15
REMARK    8  A    between atoms: N_25  and  C_33
REMARK    9  A    between atoms: C_26  and  C_28
REMARK   10  A    between atoms: C_33  and  C_34
REMARK   11  A    between atoms: C_34  and  O_35
REMARK   12  A    between atoms: O_35  and  C_36
REMARK                            x       y       z     vdW  Elec       q    Type
REMARK                         _______ _______ _______ _____ _____    ______ ____
ROOT
ATOM      1  C   UNL     1      -0.466   1.922   7.967  0.00  0.00    +0.131 C 
ATOM      2  C   UNL     1      -0.358   0.435   8.181  0.00  0.00    -0.021 A 
ATOM      3  C   UNL     1      -0.206  -0.420   7.111  0.00  0.00    +0.005 A 
ATOM      4  C   UNL     1      -0.097  -1.783   7.326  0.00  0.00    +0.000 A 
ATOM      5  C   UNL     1      -0.139  -2.296   8.611  0.00  0.00    +0.001 A 
ATOM      6  C   UNL     1      -0.295  -1.450   9.690  0.00  0.00    +0.013 A 
ATOM      7  C   UNL     1      -0.411  -0.077   9.479  0.00  0.00    +0.041 A 
ATOM      8  C   UNL     1      -0.600   0.853  10.611  0.00  0.00    +0.247 C 
ATOM      9  O   UNL     1      -0.413   0.478  11.752  0.00  0.00    -0.270 OA
ATOM     10  N   UNL     1      -0.982   2.121  10.366  0.00  0.00    -0.287 N 
ATOM     11  C   UNL     1      -1.377   2.541   9.023  0.00  0.00    +0.129 C 
ENDROOT
BRANCH  11  12
ATOM     12  C   UNL     1      -2.798   2.107   8.767  0.00  0.00    +0.011 A 
ATOM     13  C   UNL     1      -3.803   2.788   8.164  0.00  0.00    +0.013 A 
ATOM     14  C   UNL     1      -5.039   2.184   8.033  0.00  0.00    +0.008 A 
ATOM     15  C   UNL     1      -5.213   0.932   8.523  0.00  0.00    +0.045 A 
ATOM     16  S   UNL     1      -3.596   0.567   9.187  0.00  0.00    -0.100 S 
ENDBRANCH  11  12
BRANCH   1  18
ATOM     17  N   UNL     1      -0.590   3.236   5.874  0.00  0.00    -0.315 N 
ATOM     18  C   UNL     1      -1.035   2.189   6.597  0.00  0.00    +0.223 C 
ATOM     19  O   UNL     1      -1.895   1.462   6.146  0.00  0.00    -0.275 OA
ATOM     20  H   UNL     1       0.146   3.775   6.205  0.00  0.00    +0.149 HD
BRANCH  17  21
ATOM     21  C   UNL     1      -1.216   3.559   4.590  0.00  0.00    +0.102 C 
BRANCH  21  22
ATOM     22  C   UNL     1      -0.527   4.781   3.980  0.00  0.00    +0.000 C 
BRANCH  22  23
ATOM     23  C   UNL     1      -1.181   5.118   2.638  0.00  0.00    -0.077 C 
BRANCH  23  29
ATOM     24  C   UNL     1      -0.717   7.459   3.042  0.00  0.00    -0.069 C 
ATOM     25  C   UNL     1      -0.215   8.749   2.389  0.00  0.00    -0.015 C 
ATOM     26  C   UNL     1       1.251   8.573   1.985  0.00  0.00    -0.003 C 
ATOM     27  C   UNL     1       1.371   7.377   1.037  0.00  0.00    -0.019 C 
ATOM     28  C   UNL     1       0.824   6.127   1.730  0.00  0.00    -0.078 C 
ATOM     29  N   UNL     1      -0.597   6.351   2.071  0.00  0.00    +0.382 N 
ATOM     30  H   UNL     1      -1.110   6.601   1.217  0.00  0.00    -0.081 HD
BRANCH  24  32
ATOM     31  C   UNL     1      -2.314   8.701   4.509  0.00  0.00    +0.002 C 
ATOM     32  C   UNL     1      -2.188   7.623   3.430  0.00  0.00    -0.019 C 
ENDBRANCH  24  32
ENDBRANCH  23  29
ENDBRANCH  22  23
ENDBRANCH  21  22
ENDBRANCH  17  21
ENDBRANCH   1  18
BRANCH  10  33
ATOM     33  C   UNL     1      -1.002   3.094  11.461  0.00  0.00    +0.137 C 
BRANCH  33  34
ATOM     34  C   UNL     1       0.358   3.788  11.552  0.00  0.00    +0.178 C 
BRANCH  34  35
ATOM     35  O   UNL     1       0.580   4.557  10.368  0.00  0.00    -0.381 OA
ATOM     36  C   UNL     1       1.830   5.249  10.351  0.00  0.00    +0.194 C 
ENDBRANCH  34  35
ENDBRANCH  33  34
ENDBRANCH  10  33
TORSDOF 10
