REMARK  Name = ZINC10001135
REMARK  13 active torsions:
REMARK  status: ('A' for Active; 'I' for Inactive)
REMARK    1  A    between atoms: C_1  and  C_2
REMARK    2  A    between atoms: C_2  and  C_3
REMARK    3  A    between atoms: C_2  and  C_4
REMARK    4  A    between atoms: C_4  and  C_6
REMARK    5  A    between atoms: C_4  and  N_24
REMARK    6  A    between atoms: N_8  and  N_9
REMARK    7  A    between atoms: C_10  and  C_11
REMARK    8  A    between atoms: C_13  and  O_22
REMARK    9  A    between atoms: C_14  and  O_18
REMARK   10  A    between atoms: O_18  and  C_19
REMARK   11  A    between atoms: C_19  and  C_20
REMARK   12  A    between atoms: O_22  and  C_23
REMARK   13  A    between atoms: C_25  and  C_27
REMARK                            x       y       z     vdW  Elec       q    Type
REMARK                         _______ _______ _______ _____ _____    ______ ____
ROOT
ATOM      1  C   UNL     1       3.744  -4.754  -0.660  0.00  0.00    +0.253 C 
ATOM      2  O   UNL     1       4.562  -3.949  -1.053  0.00  0.00    -0.272 OA
ATOM      3  N   UNL     1       3.990  -6.074  -0.774  0.00  0.00    -0.205 N 
ATOM      4  H   UNL     1       3.336  -6.718  -0.460  0.00  0.00    +0.177 HD
ENDROOT
BRANCH   3   5
ATOM      5  N   UNL     1       5.190  -6.517  -1.347  0.00  0.00    -0.188 NA
ATOM      6  C   UNL     1       5.426  -7.788  -1.456  0.00  0.00    +0.138 C 
BRANCH   6   7
ATOM      7  C   UNL     1       6.689  -8.254  -2.058  0.00  0.00    -0.001 A 
ATOM      8  C   UNL     1       6.948  -9.622  -2.172  0.00  0.00    +0.059 A 
ATOM      9  C   UNL     1       8.131 -10.054  -2.742  0.00  0.00    +0.163 A 
ATOM     10  C   UNL     1       9.067  -9.125  -3.191  0.00  0.00    +0.177 A 
ATOM     11  C   UNL     1       8.813  -7.766  -3.074  0.00  0.00    +0.064 A 
ATOM     12  C   UNL     1       7.632  -7.328  -2.511  0.00  0.00    +0.028 A 
ATOM     13 BR   UNL     1      10.088  -6.511  -3.687  0.00  0.00    -0.046 Br
BRANCH   9  14
ATOM     14  O   UNL     1       8.383 -11.385  -2.858  0.00  0.00    -0.491 OA
ATOM     15  C   UNL     1       7.379 -12.280  -2.377  0.00  0.00    +0.277 C 
ENDBRANCH   9  14
BRANCH  10  16
ATOM     16  O   UNL     1      10.233  -9.552  -3.746  0.00  0.00    -0.475 OA
BRANCH  16  17
ATOM     17  C   UNL     1      11.337  -9.752  -2.862  0.00  0.00    +0.317 C 
BRANCH  17  18
ATOM     18  C   UNL     1      12.505 -10.210  -3.631  0.00  0.00    -0.065 C 
ATOM     19  C   UNL     1      13.437 -10.576  -4.245  0.00  0.00    +0.007 C 
ENDBRANCH  17  18
ENDBRANCH  16  17
ENDBRANCH  10  16
ENDBRANCH   6   7
ENDBRANCH   3   5
BRANCH   1  20
ATOM     20  C   UNL     1       2.453  -4.278  -0.045  0.00  0.00    +0.163 C 
BRANCH  20  21
ATOM     21  N   UNL     1       2.427  -2.813  -0.037  0.00  0.00    -0.300 N 
ATOM     22  C   UNL     1       1.248  -2.160  -0.022  0.00  0.00    +0.245 C 
ATOM     23  O   UNL     1       0.207  -2.787  -0.016  0.00  0.00    -0.270 OA
ATOM     24  H   UNL     1       3.259  -2.313  -0.042  0.00  0.00    +0.150 HD
BRANCH  22  25
ATOM     25  C   UNL     1       1.222  -0.683  -0.013  0.00  0.00    +0.037 A 
ATOM     26  C   UNL     1       0.002  -0.004   0.002  0.00  0.00    +0.016 A 
ATOM     27  C   UNL     1      -0.017   1.374   0.010  0.00  0.00    +0.039 A 
ATOM     28  C   UNL     1       1.173   2.086   0.002  0.00  0.00    +0.123 A 
ATOM     29  C   UNL     1       2.387   1.417  -0.013  0.00  0.00    +0.039 A 
ATOM     30  C   UNL     1       2.417   0.039  -0.021  0.00  0.00    +0.016 A 
ATOM     31  F   UNL     1       1.149   3.437   0.009  0.00  0.00    -0.205 F 
ENDBRANCH  22  25
ENDBRANCH  20  21
BRANCH  20  33
ATOM     32  C   UNL     1       3.458  -4.173   2.240  0.00  0.00    +0.009 C 
ATOM     33  C   UNL     1       2.350  -4.798   1.390  0.00  0.00    +0.012 C 
ATOM     34  C   UNL     1       0.986  -4.421   1.972  0.00  0.00    +0.009 C 
ENDBRANCH  20  33
ENDBRANCH   1  20
TORSDOF 10
