REMARK  Name = ZINC08681743
REMARK  7 active torsions:
REMARK  status: ('A' for Active; 'I' for Inactive)
REMARK    1  A    between atoms: C_1  and  C_2
REMARK    2  A    between atoms: C_7  and  C_13
REMARK    3  A    between atoms: C_8  and  O_12
REMARK    4  A    between atoms: C_13  and  C_15
REMARK    5  A    between atoms: C_13  and  N_62
REMARK    6  A    between atoms: N_19  and  C_20
REMARK    7  A    between atoms: C_20  and  C_21
REMARK                            x       y       z     vdW  Elec       q    Type
REMARK                         _______ _______ _______ _____ _____    ______ ____
ROOT
ATOM      1  C   UNL     1       2.538   0.967  -0.197  0.00  0.00    +0.039 C 
ENDROOT
BRANCH   1   8
ATOM      2  C   UNL     1      -2.830   6.705  -1.246  0.00  0.00    +0.044 C 
ATOM      3  C   UNL     1      -1.987   5.488  -0.962  0.00  0.00    -0.048 A 
ATOM      4  C   UNL     1      -2.581   4.356  -0.408  0.00  0.00    +0.004 A 
ATOM      5  C   UNL     1      -1.846   3.242  -0.141  0.00  0.00    +0.010 A 
ATOM      6  C   UNL     1      -0.472   3.230  -0.430  0.00  0.00    +0.001 A 
ATOM      7  C   UNL     1       0.323   2.098  -0.161  0.00  0.00    +0.017 A 
ATOM      8  C   UNL     1       1.651   2.156  -0.462  0.00  0.00    +0.008 A 
ATOM      9  C   UNL     1       2.191   3.323  -1.018  0.00  0.00    +0.215 A 
ATOM     10  N   UNL     1       1.444   4.378  -1.262  0.00  0.00    -0.213 NA
ATOM     11  C   UNL     1       0.135   4.381  -0.988  0.00  0.00    +0.075 A 
ATOM     12  C   UNL     1      -0.657   5.513  -1.251  0.00  0.00    +0.031 A 
BRANCH   9  13
ATOM     13  O   UNL     1       3.513   3.365  -1.312  0.00  0.00    -0.492 OA
ATOM     14  H   UNL     1       3.727   3.070  -2.207  0.00  0.00    +0.294 HD
ENDBRANCH   9  13
ENDBRANCH   1   8
BRANCH   1  24
ATOM     15  C   UNL     1       2.644  -1.453  -0.288  0.00  0.00    -0.072 C 
ATOM     16  C   UNL     1       1.757  -2.692  -0.164  0.00  0.00    +0.017 C 
ATOM     17  C   UNL     1       0.732  -2.704  -1.270  0.00  0.00    -0.048 A 
ATOM     18  C   UNL     1       0.075  -3.893  -1.549  0.00  0.00    +0.004 A 
ATOM     19  C   UNL     1      -0.874  -3.946  -2.550  0.00  0.00    +0.000 A 
ATOM     20  C   UNL     1      -1.170  -2.808  -3.278  0.00  0.00    +0.000 A 
ATOM     21  C   UNL     1      -0.515  -1.625  -3.002  0.00  0.00    +0.002 A 
ATOM     22  C   UNL     1       0.440  -1.571  -1.997  0.00  0.00    -0.061 A 
ATOM     23  C   UNL     1       1.134  -0.259  -1.739  0.00  0.00    -0.041 C 
ATOM     24  N   UNL     1       1.760  -0.275  -0.406  0.00  0.00    +0.392 N 
ATOM     25  H   UNL     1       1.025  -0.334   0.309  0.00  0.00    -0.080 HD
ENDBRANCH   1  24
BRANCH   1  26
ATOM     26  C   UNL     1       3.020   1.008   1.230  0.00  0.00    +0.143 A 
ATOM     27  N   UNL     1       2.280   0.923   2.309  0.00  0.00    -0.115 NA
ATOM     28  N   UNL     1       3.059   0.997   3.333  0.00  0.00    -0.023 NA
ATOM     29  N   UNL     1       4.277   1.127   2.935  0.00  0.00    -0.044 NA
ATOM     30  N   UNL     1       4.295   1.133   1.645  0.00  0.00    -0.228 N 
BRANCH  30  31
ATOM     31  C   UNL     1       5.479   1.255   0.791  0.00  0.00    +0.178 C 
BRANCH  31  32
ATOM     32  C   UNL     1       5.848   2.732   0.640  0.00  0.00    +0.140 C 
ATOM     33  C   UNL     1       7.046   2.877  -0.323  0.00  0.00    +0.035 C 
ATOM     34  C   UNL     1       7.877   4.002   0.353  0.00  0.00    +0.031 C 
ATOM     35  C   UNL     1       7.611   3.705   1.850  0.00  0.00    +0.160 C 
ATOM     36  O   UNL     1       6.245   3.267   1.909  0.00  0.00    -0.375 OA
ENDBRANCH  31  32
ENDBRANCH  30  31
ENDBRANCH   1  26
TORSDOF 6
