REMARK  Name = ZINC10357203
REMARK  7 active torsions:
REMARK  status: ('A' for Active; 'I' for Inactive)
REMARK    1  A    between atoms: C_1  and  C_2
REMARK    2  A    between atoms: N_4  and  C_25
REMARK    3  A    between atoms: N_13  and  C_18
REMARK    4  A    between atoms: N_16  and  C_17
REMARK    5  A    between atoms: C_18  and  C_19
REMARK    6  A    between atoms: C_25  and  C_26
REMARK    7  A    between atoms: C_26  and  C_27
REMARK                            x       y       z     vdW  Elec       q    Type
REMARK                         _______ _______ _______ _____ _____    ______ ____
ROOT
ATOM      1  C   UNL     1       6.480   4.287  -0.628  0.00  0.00    +0.064 C 
ATOM      2  C   UNL     1       5.743   3.010  -0.318  0.00  0.00    +0.054 C 
ATOM      3  N   UNL     1       6.402   1.924  -0.332  0.00  0.00    -0.185 NA
ATOM      4  N   UNL     1       5.817   0.675  -0.066  0.00  0.00    -0.192 N 
ATOM      5  C   UNL     1       4.437   0.618  -0.043  0.00  0.00    +0.221 A 
ATOM      6  N   UNL     1       3.644  -0.421  -0.039  0.00  0.00    -0.195 NA
ATOM      7  C   UNL     1       2.369  -0.019  -0.022  0.00  0.00    +0.170 A 
ATOM      8  C   UNL     1       2.364   1.375  -0.013  0.00  0.00    +0.153 A 
ATOM      9  N   UNL     1       3.686   1.762  -0.023  0.00  0.00    -0.299 N 
ATOM     10  C   UNL     1       4.274   3.101  -0.011  0.00  0.00    +0.177 C 
ATOM     11  C   UNL     1       1.130   2.051   0.002  0.00  0.00    +0.283 A 
ATOM     12  O   UNL     1       1.097   3.269   0.009  0.00  0.00    -0.265 OA
ATOM     13  N   UNL     1      -0.016   1.340   0.009  0.00  0.00    -0.255 N 
ATOM     14  C   UNL     1       0.002  -0.004   0.002  0.00  0.00    +0.334 A 
ATOM     15  O   UNL     1      -1.051  -0.612   0.010  0.00  0.00    -0.246 OA
ATOM     16  N   UNL     1       1.159  -0.693  -0.013  0.00  0.00    -0.279 N 
ATOM     17  C   UNL     1       1.137  -2.158  -0.020  0.00  0.00    +0.155 C 
ENDROOT
BRANCH  13  18
ATOM     18  C   UNL     1      -1.301   2.043   0.019  0.00  0.00    +0.165 C 
BRANCH  18  19
ATOM     19  C   UNL     1      -1.735   2.277   1.444  0.00  0.00    -0.028 A 
ATOM     20  C   UNL     1      -2.514   1.337   2.092  0.00  0.00    +0.005 A 
ATOM     21  C   UNL     1      -2.908   1.549   3.400  0.00  0.00    +0.000 A 
ATOM     22  C   UNL     1      -2.532   2.706   4.056  0.00  0.00    +0.000 A 
ATOM     23  C   UNL     1      -1.758   3.648   3.406  0.00  0.00    +0.000 A 
ATOM     24  C   UNL     1      -1.359   3.434   2.100  0.00  0.00    +0.005 A 
ENDBRANCH  18  19
ENDBRANCH  13  18
BRANCH   4  25
ATOM     25  C   UNL     1       6.636  -0.516   0.175  0.00  0.00    +0.140 C 
BRANCH  25  26
ATOM     26  C   UNL     1       6.909  -1.225  -1.153  0.00  0.00    +0.056 C 
BRANCH  26  27
ATOM     27  C   UNL     1       7.751  -2.450  -0.904  0.00  0.00    -0.046 A 
ATOM     28  C   UNL     1       9.130  -2.360  -0.940  0.00  0.00    +0.004 A 
ATOM     29  C   UNL     1       9.902  -3.482  -0.706  0.00  0.00    +0.000 A 
ATOM     30  C   UNL     1       9.295  -4.697  -0.448  0.00  0.00    +0.000 A 
ATOM     31  C   UNL     1       7.916  -4.788  -0.417  0.00  0.00    +0.000 A 
ATOM     32  C   UNL     1       7.144  -3.665  -0.645  0.00  0.00    +0.004 A 
ENDBRANCH  26  27
ENDBRANCH  25  26
ENDBRANCH   4  25
TORSDOF 5
