REMARK  Name = ZINC12637823
REMARK  7 active torsions:
REMARK  status: ('A' for Active; 'I' for Inactive)
REMARK    1  A    between atoms: C_5  and  N_7
REMARK    2  A    between atoms: N_7  and  C_8
REMARK    3  A    between atoms: C_8  and  C_10
REMARK    4  A    between atoms: C_8  and  C_17
REMARK    5  A    between atoms: C_13  and  O_16
REMARK    6  A    between atoms: N_19  and  C_20
REMARK    7  A    between atoms: C_25  and  C_27
REMARK                            x       y       z     vdW  Elec       q    Type
REMARK                         _______ _______ _______ _____ _____    ______ ____
ROOT
ATOM      1  N   UNL     1       4.404  -1.092   0.170  0.00  0.00    -0.249 N 
ATOM      2  C   UNL     1       4.410  -0.351  -0.955  0.00  0.00    +0.252 C 
ATOM      3  O   UNL     1       4.925  -0.785  -1.967  0.00  0.00    -0.270 OA
ENDROOT
BRANCH   2   4
ATOM      4  C   UNL     1       3.789   0.989  -0.960  0.00  0.00    +0.041 A 
ATOM      5  C   UNL     1       2.930   1.359  -1.997  0.00  0.00    +0.017 A 
ATOM      6  C   UNL     1       2.354   2.611  -1.999  0.00  0.00    +0.050 A 
ATOM      7  C   UNL     1       2.624   3.508  -0.972  0.00  0.00    +0.162 A 
ATOM      8  C   UNL     1       3.477   3.143   0.066  0.00  0.00    +0.163 A 
ATOM      9  C   UNL     1       4.059   1.889   0.073  0.00  0.00    +0.062 A 
ATOM     10  O   UNL     1       3.744   4.007   1.084  0.00  0.00    -0.485 OA
ATOM     11  C   UNL     1       3.439   5.387   0.853  0.00  0.00    +0.270 C 
ATOM     12  C   UNL     1       2.038   5.472   0.232  0.00  0.00    +0.270 C 
ATOM     13  O   UNL     1       2.050   4.740  -0.999  0.00  0.00    -0.485 OA
ENDBRANCH   2   4
BRANCH   1  18
ATOM     14  C   UNL     1       1.719  -0.389   2.583  0.00  0.00    +0.002 A 
ATOM     15  C   UNL     1       2.419   0.286   3.566  0.00  0.00    +0.003 A 
ATOM     16  C   UNL     1       3.777   0.505   3.426  0.00  0.00    +0.040 A 
ATOM     17  C   UNL     1       4.441   0.046   2.303  0.00  0.00    +0.145 A 
ATOM     18  C   UNL     1       3.738  -0.629   1.310  0.00  0.00    +0.073 A 
ATOM     19  C   UNL     1       2.374  -0.847   1.456  0.00  0.00    +0.026 A 
ATOM     20  F   UNL     1       5.768   0.255   2.168  0.00  0.00    -0.204 F 
ENDBRANCH   1  18
BRANCH   1  21
ATOM     21  C   UNL     1       5.096  -2.383   0.200  0.00  0.00    +0.198 C 
BRANCH  21  22
ATOM     22  C   UNL     1       4.491  -3.301  -0.831  0.00  0.00    -0.018 A 
ATOM     23  C   UNL     1       3.117  -3.386  -0.957  0.00  0.00    +0.009 A 
ATOM     24  C   UNL     1       2.559  -4.223  -1.905  0.00  0.00    +0.046 A 
ATOM     25  C   UNL     1       3.380  -4.987  -2.722  0.00  0.00    +0.117 A 
ATOM     26  C   UNL     1       4.758  -4.904  -2.589  0.00  0.00    +0.046 A 
ATOM     27  C   UNL     1       5.311  -4.061  -1.644  0.00  0.00    +0.009 A 
BRANCH  25  28
ATOM     28  O   UNL     1       2.834  -5.816  -3.651  0.00  0.00    -0.507 OA
ATOM     29  H   UNL     1       2.659  -6.709  -3.326  0.00  0.00    +0.292 HD
ENDBRANCH  25  28
ENDBRANCH  21  22
BRANCH  21  30
ATOM     30  C   UNL     1       4.952  -2.999   1.568  0.00  0.00    +0.239 C 
ATOM     31  O   UNL     1       3.873  -2.998   2.123  0.00  0.00    -0.273 OA
ATOM     32  N   UNL     1       6.021  -3.551   2.175  0.00  0.00    -0.311 N 
ATOM     33  H   UNL     1       6.884  -3.552   1.731  0.00  0.00    +0.149 HD
BRANCH  32  34
ATOM     34  C   UNL     1       5.881  -4.150   3.504  0.00  0.00    +0.073 C 
ATOM     35  C   UNL     1       6.091  -3.076   4.592  0.00  0.00    +0.022 C 
ATOM     36  C   UNL     1       6.849  -3.821   5.719  0.00  0.00    +0.002 C 
ATOM     37  C   UNL     1       7.805  -4.750   4.932  0.00  0.00    +0.002 C 
ATOM     38  C   UNL     1       6.971  -5.214   3.721  0.00  0.00    +0.022 C 
ENDBRANCH  32  34
ENDBRANCH  21  30
ENDBRANCH   1  21
TORSDOF 7
