REMARK  Name = ZINC59165863
REMARK  7 active torsions:
REMARK  status: ('A' for Active; 'I' for Inactive)
REMARK    1  A    between atoms: C_4  and  C_7
REMARK    2  A    between atoms: C_7  and  C_9
REMARK    3  A    between atoms: C_7  and  O_33
REMARK    4  A    between atoms: N_11  and  N_12
REMARK    5  A    between atoms: N_20  and  C_23
REMARK    6  A    between atoms: C_23  and  C_24
REMARK    7  A    between atoms: C_27  and  N_30
REMARK                            x       y       z     vdW  Elec       q    Type
REMARK                         _______ _______ _______ _____ _____    ______ ____
ROOT
ATOM      1  N   UNL     1       4.673  -0.395  -3.667  0.00  0.00    -0.174 NA
ATOM      2  C   UNL     1       4.927   0.559  -4.529  0.00  0.00    +0.153 C 
ATOM      3  C   UNL     1       5.292   0.411  -5.957  0.00  0.00    +0.028 A 
ATOM      4  C   UNL     1       5.470  -0.693  -6.785  0.00  0.00    +0.012 A 
ATOM      5  C   UNL     1       5.818  -0.507  -8.108  0.00  0.00    +0.001 A 
ATOM      6  C   UNL     1       5.989   0.773  -8.607  0.00  0.00    +0.002 A 
ATOM      7  C   UNL     1       5.814   1.874  -7.794  0.00  0.00    +0.024 A 
ATOM      8  C   UNL     1       5.464   1.707  -6.458  0.00  0.00    +0.046 A 
ATOM      9  N   UNL     1       5.231   2.628  -5.443  0.00  0.00    -0.261 N 
ATOM     10  C   UNL     1       4.906   2.017  -4.290  0.00  0.00    +0.272 C 
ATOM     11  O   UNL     1       4.645   2.567  -3.237  0.00  0.00    -0.268 OA
ENDROOT
BRANCH   1  14
ATOM     12  C   UNL     1       4.074  -1.053  -1.459  0.00  0.00    +0.265 C 
ATOM     13  O   UNL     1       4.131  -2.214  -1.804  0.00  0.00    -0.271 OA
ATOM     14  N   UNL     1       4.335  -0.073  -2.345  0.00  0.00    -0.204 N 
ATOM     15  H   UNL     1       4.290   0.856  -2.069  0.00  0.00    +0.177 HD
BRANCH  12  16
ATOM     16  C   UNL     1       3.711  -0.707  -0.038  0.00  0.00    +0.232 C 
BRANCH  16  20
ATOM     17  C   UNL     1      -0.017   1.378   0.010  0.00  0.00    +0.000 A 
ATOM     18  C   UNL     1       1.171   2.086   0.002  0.00  0.00    +0.000 A 
ATOM     19  C   UNL     1       2.377   1.411  -0.013  0.00  0.00    +0.006 A 
ATOM     20  C   UNL     1       2.396   0.029  -0.020  0.00  0.00    -0.010 A 
ATOM     21  C   UNL     1       1.208  -0.679  -0.012  0.00  0.00    +0.006 A 
ATOM     22  C   UNL     1       0.002  -0.004   0.002  0.00  0.00    +0.000 A 
ENDBRANCH  16  20
BRANCH  16  23
ATOM     23  O   UNL     1       3.596  -1.907   0.731  0.00  0.00    -0.378 OA
ATOM     24  H   UNL     1       2.922  -2.519   0.405  0.00  0.00    +0.211 HD
ENDBRANCH  16  23
ENDBRANCH  12  16
ENDBRANCH   1  14
BRANCH   9  25
ATOM     25  C   UNL     1       5.321   4.080  -5.609  0.00  0.00    +0.149 C 
BRANCH  25  26
ATOM     26  C   UNL     1       3.977   4.623  -6.022  0.00  0.00    -0.030 A 
ATOM     27  C   UNL     1       3.652   4.717  -7.362  0.00  0.00    +0.007 A 
ATOM     28  C   UNL     1       2.419   5.215  -7.740  0.00  0.00    +0.033 A 
ATOM     29  C   UNL     1       1.512   5.619  -6.779  0.00  0.00    +0.126 A 
ATOM     30  C   UNL     1       1.837   5.525  -5.439  0.00  0.00    +0.033 A 
ATOM     31  C   UNL     1       3.068   5.023  -5.060  0.00  0.00    +0.007 A 
BRANCH  29  32
ATOM     32  N   UNL     1       0.192   6.153  -7.184  0.00  0.00    +0.056 N 
ATOM     33  O   UNL     1      -0.092   6.236  -8.356  0.00  0.00    -0.126 OA
ATOM     34  O   UNL     1      -0.601   6.507  -6.343  0.00  0.00    -0.126 OA
ENDBRANCH  29  32
ENDBRANCH  25  26
ENDBRANCH   9  25
TORSDOF 7
