REMARK  Name = ZINC10816198
REMARK  10 active torsions:
REMARK  status: ('A' for Active; 'I' for Inactive)
REMARK    1  A    between atoms: C_1  and  N_52
REMARK    2  A    between atoms: C_2  and  N_52
REMARK    3  A    between atoms: C_3  and  C_4
REMARK    4  A    between atoms: C_3  and  N_52
REMARK    5  A    between atoms: C_4  and  N_5
REMARK    6  A    between atoms: C_11  and  S_15
REMARK    7  A    between atoms: S_15  and  C_16
REMARK    8  A    between atoms: C_17  and  C_19
REMARK    9  A    between atoms: C_20  and  C_21
REMARK   10  A    between atoms: C_25  and  N_27
REMARK                            x       y       z     vdW  Elec       q    Type
REMARK                         _______ _______ _______ _____ _____    ______ ____
ROOT
ATOM      1  N   UNL     1      -2.443   8.097   0.070  0.00  0.00    -0.249 N 
ATOM      2  C   UNL     1      -2.462   9.481   0.078  0.00  0.00    +0.168 A 
ATOM      3  N   UNL     1      -3.495  10.290   0.093  0.00  0.00    -0.224 NA
ATOM      4  C   UNL     1      -3.364  11.636   0.100  0.00  0.00    +0.080 A 
ATOM      5  C   UNL     1      -4.388  12.611   0.116  0.00  0.00    +0.030 A 
ATOM      6  C   UNL     1      -4.090  13.938   0.120  0.00  0.00    +0.017 A 
ATOM      7  C   UNL     1      -2.771  14.389   0.110  0.00  0.00    +0.009 A 
ATOM      8  C   UNL     1      -1.738  13.460   0.095  0.00  0.00    +0.032 A 
ATOM      9  C   UNL     1      -2.037  12.121   0.090  0.00  0.00    +0.042 A 
ATOM     10  S   UNL     1      -1.085  10.621   0.079  0.00  0.00    -0.052 S 
ATOM     11  C   UNL     1      -1.267   7.439   0.055  0.00  0.00    +0.245 C 
ATOM     12  O   UNL     1      -0.221   8.062   0.049  0.00  0.00    -0.270 OA
ENDROOT
BRANCH   7  13
ATOM     13  S   UNL     1      -2.419  16.116   0.118  0.00  0.00    -0.129 S 
ATOM     14  C   UNL     1      -4.056  16.897   0.138  0.00  0.00    +0.090 C 
ENDBRANCH   7  13
BRANCH  11  15
ATOM     15  C   UNL     1      -1.247   5.976   0.046  0.00  0.00    +0.068 C 
ATOM     16  C   UNL     1      -0.070   5.317   0.032  0.00  0.00    +0.013 C 
BRANCH  16  17
ATOM     17  C   UNL     1      -0.050   3.846   0.023  0.00  0.00    -0.023 A 
ATOM     18  C   UNL     1      -1.250   3.126   0.031  0.00  0.00    +0.008 A 
ATOM     19  C   UNL     1      -1.223   1.748   0.017  0.00  0.00    +0.003 A 
ATOM     20  C   UNL     1      -0.013   1.076   0.008  0.00  0.00    +0.033 A 
ATOM     21  C   UNL     1       1.178   1.780   0.000  0.00  0.00    +0.127 A 
ATOM     22  C   UNL     1       1.168   3.159   0.008  0.00  0.00    +0.040 A 
BRANCH  21  23
ATOM     23  N   UNL     1       2.467   1.052  -0.015  0.00  0.00    +0.056 N 
ATOM     24  O   UNL     1       2.478  -0.166  -0.022  0.00  0.00    -0.126 OA
ATOM     25  O   UNL     1       3.516   1.671  -0.022  0.00  0.00    -0.126 OA
ENDBRANCH  21  23
ENDBRANCH  16  17
ENDBRANCH  11  15
BRANCH   1  26
ATOM     26  C   UNL     1      -3.702   7.347   0.077  0.00  0.00    +0.097 C 
BRANCH  26  27
ATOM     27  C   UNL     1      -4.126   7.078   1.522  0.00  0.00    -0.060 C 
BRANCH  27  30
ATOM     28  C   UNL     1      -5.205   4.983   0.964  0.00  0.00    -0.097 C 
ATOM     29  C   UNL     1      -5.950   6.254   2.885  0.00  0.00    -0.097 C 
ATOM     30  N   UNL     1      -5.407   6.340   1.513  0.00  0.00    +0.377 N 
ATOM     31  H   UNL     1      -6.078   6.843   0.921  0.00  0.00    -0.083 HD
ENDBRANCH  27  30
ENDBRANCH  26  27
ENDBRANCH   1  26
TORSDOF 7
