REMARK  Name = ZINC13498783
REMARK  12 active torsions:
REMARK  status: ('A' for Active; 'I' for Inactive)
REMARK    1  A    between atoms: C_1  and  C_2
REMARK    2  A    between atoms: C_2  and  C_3
REMARK    3  A    between atoms: C_2  and  C_4
REMARK    4  A    between atoms: C_4  and  C_6
REMARK    5  A    between atoms: C_4  and  N_74
REMARK    6  A    between atoms: N_10  and  C_11
REMARK    7  A    between atoms: C_11  and  C_12
REMARK    8  A    between atoms: C_11  and  C_13
REMARK    9  A    between atoms: C_11  and  C_14
REMARK   10  A    between atoms: C_15  and  C_16
REMARK   11  A    between atoms: C_15  and  N_74
REMARK   12  A    between atoms: C_32  and  N_74
REMARK                            x       y       z     vdW  Elec       q    Type
REMARK                         _______ _______ _______ _____ _____    ______ ____
ROOT
ATOM      1  N   UNL     1      -3.076   0.690  -1.884  0.00  0.00    +0.391 N 
ATOM      2  H   UNL     1      -3.006   1.595  -2.364  0.00  0.00    -0.080 HD
ENDROOT
BRANCH   1   3
ATOM      3  C   UNL     1      -2.069  -0.232  -2.449  0.00  0.00    -0.067 C 
ATOM      4  C   UNL     1      -0.890   0.594  -2.969  0.00  0.00    -0.015 C 
ATOM      5  C   UNL     1       0.161  -0.341  -3.571  0.00  0.00    -0.002 C 
ATOM      6  C   UNL     1      -0.459  -1.128  -4.728  0.00  0.00    -0.000 C 
ATOM      7  C   UNL     1      -1.638  -1.954  -4.208  0.00  0.00    -0.002 C 
ATOM      8  C   UNL     1      -2.689  -1.019  -3.606  0.00  0.00    -0.015 C 
ENDBRANCH   1   3
BRANCH   1   9
ATOM      9  C   UNL     1      -4.434   0.142  -2.088  0.00  0.00    +0.006 C 
BRANCH   9  10
ATOM     10  C   UNL     1      -5.425   1.276  -2.030  0.00  0.00    +0.139 A 
ATOM     11  N   UNL     1      -6.003   1.755  -0.956  0.00  0.00    -0.115 NA
ATOM     12  N   UNL     1      -6.779   2.718  -1.318  0.00  0.00    -0.023 NA
ATOM     13  N   UNL     1      -6.717   2.859  -2.596  0.00  0.00    -0.043 NA
ATOM     14  N   UNL     1      -5.893   1.988  -3.072  0.00  0.00    -0.226 N 
BRANCH  14  15
ATOM     15  C   UNL     1      -5.533   1.809  -4.481  0.00  0.00    +0.059 C 
ATOM     16  C   UNL     1      -5.940   0.406  -4.936  0.00  0.00    +0.036 C 
ATOM     17  C   UNL     1      -6.261   2.853  -5.330  0.00  0.00    +0.036 C 
ATOM     18  C   UNL     1      -4.021   1.980  -4.647  0.00  0.00    +0.036 C 
ENDBRANCH  14  15
ENDBRANCH   9  10
BRANCH   9  20
ATOM     19  C   UNL     1      -6.133  -1.506  -1.289  0.00  0.00    +0.006 C 
ATOM     20  C   UNL     1      -4.766  -0.882  -1.001  0.00  0.00    -0.024 C 
ATOM     21  C   UNL     1      -3.698  -1.978  -0.989  0.00  0.00    +0.006 C 
ENDBRANCH   9  20
ENDBRANCH   1   9
BRANCH   1  22
ATOM     22  C   UNL     1      -2.824   0.891  -0.442  0.00  0.00    -0.036 C 
BRANCH  22  23
ATOM     23  C   UNL     1      -1.654   1.827  -0.281  0.00  0.00    +0.001 A 
ATOM     24  C   UNL     1      -1.867   3.164  -0.181  0.00  0.00    +0.017 A 
ATOM     25  C   UNL     1      -0.711   4.047  -0.031  0.00  0.00    +0.002 A 
ATOM     26  C   UNL     1      -0.870   5.434   0.071  0.00  0.00    +0.059 A 
ATOM     27  C   UNL     1       0.239   6.242   0.213  0.00  0.00    +0.163 A 
ATOM     28  C   UNL     1       1.518   5.680   0.255  0.00  0.00    +0.164 A 
ATOM     29  C   UNL     1       1.685   4.309   0.153  0.00  0.00    +0.075 A 
ATOM     30  C   UNL     1       0.578   3.482   0.009  0.00  0.00    +0.053 A 
ATOM     31  N   UNL     1       0.726   2.114  -0.094  0.00  0.00    -0.322 N 
ATOM     32  H   UNL     1       1.614   1.725  -0.067  0.00  0.00    +0.169 HD
ATOM     33  C   UNL     1      -0.344   1.311  -0.231  0.00  0.00    +0.251 A 
ATOM     34  O   UNL     1      -0.176   0.107  -0.319  0.00  0.00    -0.268 OA
ATOM     35  O   UNL     1       2.617   6.469   0.399  0.00  0.00    -0.485 OA
ATOM     36  C   UNL     1       2.449   7.864   0.123  0.00  0.00    +0.270 C 
ATOM     37  C   UNL     1       1.171   8.343   0.825  0.00  0.00    +0.270 C 
ATOM     38  O   UNL     1       0.068   7.590   0.309  0.00  0.00    -0.485 OA
ENDBRANCH  22  23
ENDBRANCH   1  22
TORSDOF 7
