REMARK  Name = ZINC06322103
REMARK  6 active torsions:
REMARK  status: ('A' for Active; 'I' for Inactive)
REMARK    1  A    between atoms: C_1  and  C_2
REMARK    2  A    between atoms: C_5  and  C_36
REMARK    3  A    between atoms: C_9  and  C_14
REMARK    4  A    between atoms: C_14  and  C_16
REMARK    5  A    between atoms: C_14  and  N_67
REMARK    6  A    between atoms: N_20  and  C_21
REMARK                            x       y       z     vdW  Elec       q    Type
REMARK                         _______ _______ _______ _____ _____    ______ ____
ROOT
ATOM      1  C   UNL     1       0.005   1.186  -2.409  0.00  0.00    +0.039 C 
ENDROOT
BRANCH   1  10
ATOM      2  C   UNL     1       2.284   4.543  -5.673  0.00  0.00    +0.044 C 
ATOM      3  C   UNL     1       3.251   4.289  -4.545  0.00  0.00    -0.041 A 
ATOM      4  C   UNL     1       4.468   4.910  -4.531  0.00  0.00    +0.004 A 
ATOM      5  C   UNL     1       5.365   4.684  -3.497  0.00  0.00    +0.005 A 
ATOM      6  C   UNL     1       5.046   3.829  -2.463  0.00  0.00    -0.026 A 
ATOM      7  C   UNL     1       3.813   3.185  -2.456  0.00  0.00    +0.052 A 
ATOM      8  C   UNL     1       2.905   3.417  -3.507  0.00  0.00    +0.002 A 
ATOM      9  C   UNL     1       1.610   2.736  -3.490  0.00  0.00    +0.018 A 
ATOM     10  C   UNL     1       1.330   1.903  -2.457  0.00  0.00    +0.011 A 
ATOM     11  C   UNL     1       2.273   1.708  -1.425  0.00  0.00    +0.251 A 
ATOM     12  O   UNL     1       1.999   0.959  -0.504  0.00  0.00    -0.268 OA
ATOM     13  N   UNL     1       3.467   2.325  -1.435  0.00  0.00    -0.322 N 
ATOM     14  H   UNL     1       4.094   2.166  -0.712  0.00  0.00    +0.169 HD
ATOM     15  C   UNL     1       6.029   3.592  -1.346  0.00  0.00    +0.046 C 
ENDBRANCH   1  10
BRANCH   1  25
ATOM     16  C   UNL     1      -1.890   0.670  -0.989  0.00  0.00    -0.072 C 
ATOM     17  C   UNL     1      -2.321   0.685   0.478  0.00  0.00    +0.017 C 
ATOM     18  C   UNL     1      -2.327   2.100   0.998  0.00  0.00    -0.048 A 
ATOM     19  C   UNL     1      -3.013   2.370   2.173  0.00  0.00    +0.004 A 
ATOM     20  C   UNL     1      -3.041   3.651   2.686  0.00  0.00    +0.000 A 
ATOM     21  C   UNL     1      -2.381   4.671   2.025  0.00  0.00    +0.000 A 
ATOM     22  C   UNL     1      -1.699   4.404   0.855  0.00  0.00    +0.002 A 
ATOM     23  C   UNL     1      -1.669   3.112   0.340  0.00  0.00    -0.061 A 
ATOM     24  C   UNL     1      -0.917   2.875  -0.944  0.00  0.00    -0.041 C 
ATOM     25  N   UNL     1      -0.633   1.438  -1.097  0.00  0.00    +0.392 N 
ATOM     26  H   UNL     1       0.007   1.141  -0.351  0.00  0.00    -0.080 HD
ENDBRANCH   1  25
BRANCH   1  27
ATOM     27  C   UNL     1       0.230  -0.296  -2.570  0.00  0.00    +0.143 A 
ATOM     28  N   UNL     1       0.709  -1.117  -1.668  0.00  0.00    -0.115 NA
ATOM     29  N   UNL     1       0.746  -2.297  -2.184  0.00  0.00    -0.023 NA
ATOM     30  N   UNL     1       0.311  -2.248  -3.395  0.00  0.00    -0.044 NA
ATOM     31  N   UNL     1      -0.017  -1.031  -3.670  0.00  0.00    -0.227 N 
BRANCH  31  32
ATOM     32  C   UNL     1      -0.557  -0.541  -4.941  0.00  0.00    +0.111 C 
ATOM     33  C   UNL     1      -1.873  -1.260  -5.246  0.00  0.00    +0.027 C 
ATOM     34  C   UNL     1      -2.437  -0.748  -6.573  0.00  0.00    +0.002 C 
ATOM     35  C   UNL     1      -1.433  -1.024  -7.694  0.00  0.00    +0.000 C 
ATOM     36  C   UNL     1      -0.117  -0.306  -7.389  0.00  0.00    +0.002 C 
ATOM     37  C   UNL     1       0.447  -0.818  -6.062  0.00  0.00    +0.027 C 
ENDBRANCH  31  32
ENDBRANCH   1  27
TORSDOF 4
