REMARK  Name = ZINC39293295
REMARK  10 active torsions:
REMARK  status: ('A' for Active; 'I' for Inactive)
REMARK    1  A    between atoms: C_1  and  N_2
REMARK    2  A    between atoms: N_2  and  C_3
REMARK    3  A    between atoms: N_2  and  C_4
REMARK    4  A    between atoms: C_4  and  C_5
REMARK    5  A    between atoms: C_5  and  C_6
REMARK    6  A    between atoms: C_6  and  N_7
REMARK    7  A    between atoms: C_12  and  N_14
REMARK    8  A    between atoms: C_20  and  O_35
REMARK    9  A    between atoms: C_31  and  O_32
REMARK   10  A    between atoms: O_32  and  C_33
REMARK                            x       y       z     vdW  Elec       q    Type
REMARK                         _______ _______ _______ _____ _____    ______ ____
ROOT
ATOM      1  N   UNL     1       8.575  -0.021  -4.256  0.00  0.00    -0.311 N 
ATOM      2  C   UNL     1       9.086   0.632  -3.049  0.00  0.00    +0.108 C 
ATOM      3  C   UNL     1      10.171   1.650  -3.423  0.00  0.00    +0.038 C 
ATOM      4  C   UNL     1       9.554   2.685  -4.355  0.00  0.00    +0.056 C 
ATOM      5  C   UNL     1       8.130   2.950  -3.976  0.00  0.00    -0.013 C 
ATOM      6  C   UNL     1       7.662   4.092  -3.599  0.00  0.00    +0.001 C 
ATOM      7  C   UNL     1       8.483   5.337  -3.491  0.00  0.00    +0.141 C 
ATOM      8  C   UNL     1       9.968   5.033  -3.463  0.00  0.00    +0.081 C 
ATOM      9  C   UNL     1      10.378   3.968  -4.448  0.00  0.00    +0.191 C 
ATOM     10  O   UNL     1      10.146   4.400  -5.808  0.00  0.00    -0.484 OA
ATOM     11  C   UNL     1       9.920   3.307  -6.572  0.00  0.00    +0.167 A 
ATOM     12  C   UNL     1       9.608   2.198  -5.779  0.00  0.00    +0.016 A 
ATOM     13  C   UNL     1       9.466   0.933  -6.307  0.00  0.00    -0.022 A 
ATOM     14  C   UNL     1       9.447   0.812  -7.684  0.00  0.00    +0.009 A 
ATOM     15  C   UNL     1       9.667   1.914  -8.491  0.00  0.00    +0.050 A 
ATOM     16  C   UNL     1       9.928   3.175  -7.964  0.00  0.00    +0.162 A 
ATOM     17  C   UNL     1       9.472  -0.269  -5.392  0.00  0.00    +0.142 C 
ENDROOT
BRANCH   1  23
ATOM     18  N   UNL     1       4.282  -0.140  -2.368  0.00  0.00    -0.315 N 
ATOM     19  C   UNL     1       5.134  -0.476  -3.406  0.00  0.00    +0.195 A 
ATOM     20  N   UNL     1       4.660  -1.160  -4.436  0.00  0.00    -0.334 N 
ATOM     21  C   UNL     1       5.445  -1.500  -5.448  0.00  0.00    +0.089 A 
ATOM     22  C   UNL     1       6.776  -1.132  -5.423  0.00  0.00    +0.061 A 
ATOM     23  C   UNL     1       7.248  -0.411  -4.324  0.00  0.00    +0.126 A 
ATOM     24  N   UNL     1       6.403  -0.100  -3.346  0.00  0.00    -0.201 NA
ATOM     25  H   UNL     1       4.615   0.364  -1.610  0.00  0.00    +0.149 HD
ATOM     26  H   UNL     1       3.724  -1.417  -4.450  0.00  0.00    +0.168 HD
BRANCH  18  27
ATOM     27  C   UNL     1       2.875  -0.547  -2.416  0.00  0.00    +0.102 C 
BRANCH  27  28
ATOM     28  C   UNL     1       2.159  -0.053  -1.157  0.00  0.00    +0.000 C 
BRANCH  28  29
ATOM     29  C   UNL     1       0.690  -0.478  -1.207  0.00  0.00    -0.078 C 
BRANCH  29  31
ATOM     30  C   UNL     1      -0.018   1.465   0.010  0.00  0.00    -0.097 C 
ATOM     31  N   UNL     1       0.002  -0.004   0.002  0.00  0.00    +0.376 N 
ATOM     32  C   UNL     1      -1.376  -0.512   0.012  0.00  0.00    -0.097 C 
ATOM     33  H   UNL     1       0.490  -0.338   0.820  0.00  0.00    -0.083 HD
ENDBRANCH  29  31
ENDBRANCH  28  29
ENDBRANCH  27  28
ENDBRANCH  18  27
ENDBRANCH   1  23
BRANCH  16  34
ATOM     34  O   UNL     1      10.180   4.239  -8.772  0.00  0.00    -0.491 OA
ATOM     35  C   UNL     1      10.165   4.002 -10.181  0.00  0.00    +0.277 C 
ENDBRANCH  16  34
BRANCH   7  36
ATOM     36  O   UNL     1       8.203   6.178  -4.612  0.00  0.00    -0.388 OA
ATOM     37  H   UNL     1       7.277   6.447  -4.680  0.00  0.00    +0.210 HD
ENDBRANCH   7  36
TORSDOF 7
