REMARK  Name = ZINC36064000
REMARK  10 active torsions:
REMARK  status: ('A' for Active; 'I' for Inactive)
REMARK    1  A    between atoms: C_7  and  C_11
REMARK    2  A    between atoms: C_11  and  C_12
REMARK    3  A    between atoms: C_12  and  N_13
REMARK    4  A    between atoms: N_13  and  C_14
REMARK    5  A    between atoms: N_13  and  C_22
REMARK    6  A    between atoms: C_14  and  C_15
REMARK    7  A    between atoms: C_22  and  C_23
REMARK    8  A    between atoms: C_25  and  C_28
REMARK    9  A    between atoms: N_30  and  C_31
REMARK   10  A    between atoms: C_31  and  C_32
REMARK                            x       y       z     vdW  Elec       q    Type
REMARK                         _______ _______ _______ _____ _____    ______ ____
ROOT
ATOM      1  N   UNL     1      -0.370  -4.904  -1.250  0.00  0.00    +0.388 N 
ATOM      2  H   UNL     1      -0.116  -5.725  -0.720  0.00  0.00    -0.081 HD
ENDROOT
BRANCH   1   3
ATOM      3  C   UNL     1       0.577  -3.820  -0.958  0.00  0.00    -0.073 C 
BRANCH   3   4
ATOM      4  C   UNL     1       0.628  -3.579   0.552  0.00  0.00    +0.019 C 
BRANCH   4  11
ATOM      5  C   UNL     1       0.235   1.091   0.618  0.00  0.00    +0.001 A 
ATOM      6  C   UNL     1       1.421   1.729   0.957  0.00  0.00    +0.002 A 
ATOM      7  C   UNL     1       2.557   1.000   1.233  0.00  0.00    +0.026 A 
ATOM      8  C   UNL     1       2.518  -0.389   1.171  0.00  0.00    +0.047 A 
ATOM      9  C   UNL     1       1.314  -1.031   0.828  0.00  0.00    +0.003 A 
ATOM     10  C   UNL     1       0.175  -0.272   0.552  0.00  0.00    +0.010 A 
ATOM     11  C   UNL     1       1.600  -2.467   0.851  0.00  0.00    -0.024 A 
ATOM     12  C   UNL     1       2.892  -2.605   1.189  0.00  0.00    +0.087 A 
ATOM     13  N   UNL     1       3.456  -1.374   1.385  0.00  0.00    -0.360 N 
ATOM     14  H   UNL     1       4.380  -1.218   1.636  0.00  0.00    +0.165 HD
ENDBRANCH   4  11
ENDBRANCH   3   4
ENDBRANCH   1   3
BRANCH   1  15
ATOM     15  C   UNL     1      -1.727  -4.482  -0.877  0.00  0.00    -0.042 C 
BRANCH  15  16
ATOM     16  C   UNL     1      -2.678  -5.638  -1.050  0.00  0.00    -0.063 A 
ATOM     17  C   UNL     1      -3.410  -5.764  -2.216  0.00  0.00    +0.002 A 
ATOM     18  C   UNL     1      -4.282  -6.824  -2.375  0.00  0.00    +0.002 A 
ATOM     19  C   UNL     1      -4.424  -7.760  -1.367  0.00  0.00    +0.020 A 
ATOM     20  C   UNL     1      -3.692  -7.635  -0.200  0.00  0.00    +0.041 A 
ATOM     21  C   UNL     1      -2.814  -6.577  -0.044  0.00  0.00    +0.021 A 
ATOM     22 CL   UNL     1      -3.870  -8.809   1.066  0.00  0.00    -0.084 Cl
ENDBRANCH  15  16
ENDBRANCH   1  15
BRANCH   1  23
ATOM     23  C   UNL     1      -0.331  -5.217  -2.684  0.00  0.00    +0.019 C 
BRANCH  23  24
ATOM     24  C   UNL     1       1.026  -5.767  -3.042  0.00  0.00    +0.179 A 
ATOM     25  N   UNL     1       1.393  -7.006  -2.912  0.00  0.00    -0.210 NA
ATOM     26  C   UNL     1       2.681  -7.121  -3.336  0.00  0.00    +0.163 A 
ATOM     27  C   UNL     1       3.083  -5.883  -3.734  0.00  0.00    +0.230 A 
ATOM     28  O   UNL     1       2.042  -5.056  -3.549  0.00  0.00    -0.449 OA
BRANCH  26  29
ATOM     29  C   UNL     1       3.488  -8.354  -3.361  0.00  0.00    +0.266 C 
ATOM     30  O   UNL     1       4.662  -8.307  -3.677  0.00  0.00    -0.268 OA
ATOM     31  N   UNL     1       2.926  -9.534  -3.032  0.00  0.00    -0.308 N 
ATOM     32  H   UNL     1       1.974  -9.586  -2.857  0.00  0.00    +0.149 HD
BRANCH  31  33
ATOM     33  C   UNL     1       3.754 -10.740  -2.941  0.00  0.00    +0.136 C 
BRANCH  33  34
ATOM     34  C   UNL     1       2.877 -11.933  -2.556  0.00  0.00    +0.135 C 
ATOM     35  C   UNL     1       3.757 -13.182  -2.340  0.00  0.00    +0.035 C 
ATOM     36  C   UNL     1       2.889 -14.309  -2.963  0.00  0.00    +0.031 C 
ATOM     37  C   UNL     1       2.209 -13.547  -4.128  0.00  0.00    +0.160 C 
ATOM     38  O   UNL     1       1.960 -12.225  -3.617  0.00  0.00    -0.375 OA
ENDBRANCH  33  34
ENDBRANCH  31  33
ENDBRANCH  26  29
ENDBRANCH  23  24
ENDBRANCH   1  23
TORSDOF 10
