REMARK  Name = ZINC40000751
REMARK  3 active torsions:
REMARK  status: ('A' for Active; 'I' for Inactive)
REMARK    1  A    between atoms: C_1  and  C_2
REMARK    2  A    between atoms: C_5  and  C_15
REMARK    3  A    between atoms: C_6  and  C_14
REMARK                            x       y       z     vdW  Elec       q    Type
REMARK                         _______ _______ _______ _____ _____    ______ ____
ROOT
ATOM      1  C   UNL     1       0.035   1.533   0.269  0.00  0.00    +0.029 C 
ATOM      2  C   UNL     1       0.025   0.007   0.161  0.00  0.00    +0.083 C 
ATOM      3  C   UNL     1       0.640  -0.444  -1.178  0.00  0.00    +0.061 C 
ATOM      4  C   UNL     1       1.839  -1.270  -0.770  0.00  0.00    -0.003 C 
ATOM      5  C   UNL     1       1.911  -1.297   0.556  0.00  0.00    +0.016 C 
ATOM      6  N   UNL     1       0.902  -0.587   1.180  0.00  0.00    -0.269 N 
ATOM      7  C   UNL     1       0.740  -0.453   2.561  0.00  0.00    +0.241 A 
ATOM      8  N   UNL     1       1.534  -0.990   3.493  0.00  0.00    -0.202 NA
ATOM      9  H   UNL     1      -0.537   0.480   5.247  0.00  0.00    +0.190 HD
ATOM     10  C   UNL     1       1.098  -0.667   4.684  0.00  0.00    +0.217 A 
ATOM     11  N   UNL     1       0.001   0.094   4.538  0.00  0.00    -0.264 N 
ATOM     12  N   UNL     1      -0.212   0.226   3.156  0.00  0.00    -0.136 NA
ATOM     13  C   UNL     1       2.989  -2.034   1.309  0.00  0.00    +0.061 C 
ENDROOT
BRANCH   4  14
ATOM     14  C   UNL     1       2.777  -1.938  -1.694  0.00  0.00    +0.078 A 
ATOM     15  C   UNL     1       2.544  -1.930  -3.043  0.00  0.00    +0.076 A 
ATOM     16  S   UNL     1       3.956  -2.854  -3.632  0.00  0.00    -0.060 S 
ATOM     17  C   UNL     1       4.710  -3.156  -2.040  0.00  0.00    +0.161 A 
ATOM     18  N   UNL     1       3.864  -2.550  -1.226  0.00  0.00    -0.225 NA
ATOM     19  N   UNL     1       5.876  -3.841  -1.739  0.00  0.00    -0.310 N 
ATOM     20  C   UNL     1       6.423  -4.049  -0.391  0.00  0.00    +0.107 C 
ATOM     21  C   UNL     1       7.740  -4.838  -0.548  0.00  0.00    +0.020 C 
ATOM     22  C   UNL     1       8.151  -4.540  -2.014  0.00  0.00    +0.020 C 
ATOM     23  C   UNL     1       6.770  -4.486  -2.717  0.00  0.00    +0.107 C 
ENDBRANCH   4  14
TORSDOF 1
