REMARK  Name = ZINC37353304
REMARK  3 active torsions:
REMARK  status: ('A' for Active; 'I' for Inactive)
REMARK    1  A    between atoms: C_2  and  C_8
REMARK    2  A    between atoms: C_3  and  N_7
REMARK    3  A    between atoms: N_10  and  C_11
REMARK                            x       y       z     vdW  Elec       q    Type
REMARK                         _______ _______ _______ _____ _____    ______ ____
ROOT
ATOM      1  C   UNL     1       1.765   3.158   0.002  0.00  0.00    +0.249 C 
ATOM      2  O   UNL     1       2.953   3.420  -0.009  0.00  0.00    -0.270 OA
ATOM      3  N   UNL     1       0.855   4.152   0.016  0.00  0.00    -0.306 N 
ATOM      4  H   UNL     1      -0.092   3.943   0.024  0.00  0.00    +0.150 HD
ENDROOT
BRANCH   3   5
ATOM      5  C   UNL     1       1.297   5.549   0.019  0.00  0.00    +0.036 C 
ATOM      6  C   UNL     1       2.126   5.824  -1.237  0.00  0.00    +0.029 C 
ATOM      7  C   UNL     1       2.588   7.283  -1.234  0.00  0.00    -0.008 C 
ATOM      8  C   UNL     1       1.366   8.204  -1.218  0.00  0.00    +0.007 C 
ATOM      9  C   UNL     1       0.537   7.929   0.038  0.00  0.00    -0.008 C 
ATOM     10  C   UNL     1       0.076   6.470   0.035  0.00  0.00    +0.029 C 
ATOM     11  C   UNL     1       1.391   8.191   1.281  0.00  0.00    +0.007 C 
ATOM     12  C   UNL     1       2.612   7.270   1.264  0.00  0.00    -0.008 C 
ATOM     13  C   UNL     1       3.441   7.546   0.008  0.00  0.00    +0.007 C 
ATOM     14  C   UNL     1       2.151   5.811   1.261  0.00  0.00    +0.029 C 
ENDBRANCH   3   5
BRANCH   1  16
ATOM     15  C   UNL     1      -0.016   1.299   0.009  0.00  0.00    +0.149 A 
ATOM     16  C   UNL     1       1.322   1.758  -0.001  0.00  0.00    +0.095 A 
ATOM     17  C   UNL     1       2.140   0.631  -0.015  0.00  0.00    +0.124 A 
ATOM     18  N   UNL     1       1.329  -0.447  -0.013  0.00  0.00    -0.264 N 
ATOM     19  H   UNL     1       1.617  -1.373  -0.020  0.00  0.00    +0.190 HD
ATOM     20  N   UNL     1       0.002  -0.004   0.002  0.00  0.00    -0.180 NA
BRANCH  17  21
ATOM     21  N   UNL     1       3.520   0.618  -0.028  0.00  0.00    -0.343 N 
ATOM     22  H   UNL     1       4.012   1.454  -0.028  0.00  0.00    +0.144 HD
ATOM     23  H   UNL     1       3.997  -0.226  -0.037  0.00  0.00    +0.144 HD
ENDBRANCH  17  21
ENDBRANCH   1  16
TORSDOF 3
