REMARK  Name = ZINC09135196
REMARK  10 active torsions:
REMARK  status: ('A' for Active; 'I' for Inactive)
REMARK    1  A    between atoms: C_1  and  C_2
REMARK    2  A    between atoms: C_6  and  O_28
REMARK    3  A    between atoms: C_7  and  O_26
REMARK    4  A    between atoms: C_12  and  C_13
REMARK    5  A    between atoms: C_13  and  C_14
REMARK    6  A    between atoms: C_19  and  C_25
REMARK    7  A    between atoms: C_20  and  C_22
REMARK    8  A    between atoms: C_22  and  C_24
REMARK    9  A    between atoms: O_26  and  C_27
REMARK   10  A    between atoms: O_28  and  C_29
REMARK                            x       y       z     vdW  Elec       q    Type
REMARK                         _______ _______ _______ _____ _____    ______ ____
ROOT
ATOM      1  C   UNL     1       0.011   1.491   0.253  0.00  0.00    +0.045 C 
ATOM      2  C   UNL     1       0.016  -0.009   0.116  0.00  0.00    -0.029 A 
ATOM      3  C   UNL     1      -1.226  -0.778   0.223  0.00  0.00    +0.025 A 
ATOM      4  C   UNL     1      -2.451  -0.141   0.454  0.00  0.00    +0.015 A 
ATOM      5  C   UNL     1      -3.595  -0.880   0.549  0.00  0.00    +0.050 A 
ATOM      6  C   UNL     1      -3.553  -2.265   0.418  0.00  0.00    +0.165 A 
ATOM      7  C   UNL     1      -2.348  -2.916   0.189  0.00  0.00    +0.205 A 
ATOM      8  C   UNL     1      -1.175  -2.178   0.089  0.00  0.00    +0.184 A 
ATOM      9  O   UNL     1       0.009  -2.789  -0.134  0.00  0.00    -0.418 OA
ATOM     10  C   UNL     1       1.151  -2.090  -0.233  0.00  0.00    +0.341 A 
ATOM     11  O   UNL     1       2.195  -2.684  -0.435  0.00  0.00    -0.245 OA
ATOM     12  C   UNL     1       1.171  -0.685  -0.114  0.00  0.00    +0.049 A 
ENDROOT
BRANCH   7  13
ATOM     13  O   UNL     1      -2.317  -4.271   0.064  0.00  0.00    -0.488 OA
ATOM     14  C   UNL     1      -2.479  -4.804  -1.252  0.00  0.00    +0.277 C 
ENDBRANCH   7  13
BRANCH   6  15
ATOM     15  O   UNL     1      -4.701  -2.986   0.516  0.00  0.00    -0.491 OA
ATOM     16  C   UNL     1      -5.907  -2.257   0.752  0.00  0.00    +0.277 C 
ENDBRANCH   6  15
BRANCH  12  17
ATOM     17  C   UNL     1       2.473   0.064  -0.238  0.00  0.00    +0.138 C 
BRANCH  17  18
ATOM     18  C   UNL     1       3.164   0.094   1.101  0.00  0.00    +0.223 C 
ATOM     19  O   UNL     1       2.651  -0.440   2.061  0.00  0.00    -0.275 OA
ATOM     20  N   UNL     1       4.353   0.715   1.232  0.00  0.00    -0.264 N 
ATOM     21  C   UNL     1       4.987   0.743   2.460  0.00  0.00    +0.165 A 
ATOM     22  N   UNL     1       4.582   0.213   3.601  0.00  0.00    -0.229 NA
ATOM     23  C   UNL     1       5.290   0.317   4.694  0.00  0.00    +0.058 A 
ATOM     24  C   UNL     1       6.492   1.015   4.586  0.00  0.00    +0.078 A 
ATOM     25  S   UNL     1       6.462   1.452   2.854  0.00  0.00    -0.049 S 
ATOM     26  C   UNL     1       4.834  -0.283   5.999  0.00  0.00    +0.067 C 
ATOM     27  H   UNL     1       4.764   1.143   0.464  0.00  0.00    +0.157 HD
BRANCH  24  28
ATOM     28  C   UNL     1       7.463   1.295   5.568  0.00  0.00    +0.168 C 
ATOM     29  O   UNL     1       7.304   0.904   6.707  0.00  0.00    -0.292 OA
ATOM     30  C   UNL     1       8.697   2.079   5.205  0.00  0.00    +0.092 C 
ENDBRANCH  24  28
ENDBRANCH  17  18
ENDBRANCH  12  17
TORSDOF 5
