REMARK  Name = ZINC00494077
REMARK  5 active torsions:
REMARK  status: ('A' for Active; 'I' for Inactive)
REMARK    1  A    between atoms: C_1  and  C_2
REMARK    2  A    between atoms: C_7  and  N_8
REMARK    3  A    between atoms: C_14  and  C_21
REMARK    4  A    between atoms: C_17  and  O_20
REMARK    5  A    between atoms: N_18  and  C_19
REMARK                            x       y       z     vdW  Elec       q    Type
REMARK                         _______ _______ _______ _____ _____    ______ ____
ROOT
ATOM      1  N   UNL     1       0.025  -0.015   2.417  0.00  0.00    -0.262 N 
ATOM      2  C   UNL     1      -1.161   0.394   3.190  0.00  0.00    +0.165 C 
ATOM      3  C   UNL     1      -0.605   1.093   4.394  0.00  0.00    +0.043 C 
ATOM      4  C   UNL     1       0.747   1.060   4.282  0.00  0.00    +0.060 C 
ATOM      5  C   UNL     1       1.111   0.394   3.102  0.00  0.00    +0.251 C 
ATOM      6  O   UNL     1       2.260   0.212   2.741  0.00  0.00    -0.270 OA
ATOM      7  C   UNL     1       1.641   1.670   5.334  0.00  0.00    +0.151 C 
ATOM      8  N   UNL     1       0.834   2.483   6.242  0.00  0.00    -0.332 N 
ATOM      9  C   UNL     1      -0.454   2.475   6.285  0.00  0.00    +0.261 C 
ATOM     10  N   UNL     1      -1.232   1.689   5.455  0.00  0.00    -0.262 N 
ATOM     11  C   UNL     1      -2.664   1.502   5.701  0.00  0.00    +0.139 C 
ATOM     12  H   UNL     1       1.301   3.070   6.856  0.00  0.00    +0.165 HD
ENDROOT
BRANCH   1  19
ATOM     13  C   UNL     1      -0.018   1.503   0.010  0.00  0.00    +0.045 C 
ATOM     14  C   UNL     1       0.002  -0.004   0.002  0.00  0.00    -0.029 A 
ATOM     15  C   UNL     1       0.006  -0.689  -1.198  0.00  0.00    +0.005 A 
ATOM     16  C   UNL     1       0.025  -2.071  -1.206  0.00  0.00    +0.000 A 
ATOM     17  C   UNL     1       0.041  -2.773  -0.014  0.00  0.00    +0.002 A 
ATOM     18  C   UNL     1       0.036  -2.095   1.188  0.00  0.00    +0.024 A 
ATOM     19  C   UNL     1       0.023  -0.706   1.200  0.00  0.00    +0.040 A 
ENDBRANCH   1  19
BRANCH   7  20
ATOM     20  C   UNL     1       2.324   0.574   6.112  0.00  0.00    -0.021 A 
ATOM     21  C   UNL     1       1.643  -0.088   7.117  0.00  0.00    +0.006 A 
ATOM     22  C   UNL     1       2.269  -1.093   7.830  0.00  0.00    +0.000 A 
ATOM     23  C   UNL     1       3.575  -1.437   7.538  0.00  0.00    +0.000 A 
ATOM     24  C   UNL     1       4.256  -0.776   6.533  0.00  0.00    +0.000 A 
ATOM     25  C   UNL     1       3.629   0.227   5.816  0.00  0.00    +0.006 A 
ENDBRANCH   7  20
BRANCH   9  26
ATOM     26  O   UNL     1      -1.073   3.273   7.182  0.00  0.00    -0.483 OA
ATOM     27  H   UNL     1      -0.468   3.794   7.729  0.00  0.00    +0.295 HD
ENDBRANCH   9  26
TORSDOF 3
