REMARK  Name = ZINC34744182
REMARK  7 active torsions:
REMARK  status: ('A' for Active; 'I' for Inactive)
REMARK    1  A    between atoms: C_7  and  S_18
REMARK    2  A    between atoms: C_8  and  C_11
REMARK    3  A    between atoms: S_18  and  C_19
REMARK    4  A    between atoms: C_19  and  C_20
REMARK    5  A    between atoms: C_20  and  N_21
REMARK    6  A    between atoms: C_22  and  C_24
REMARK    7  A    between atoms: C_28  and  N_30
REMARK                            x       y       z     vdW  Elec       q    Type
REMARK                         _______ _______ _______ _____ _____    ______ ____
ROOT
ATOM      1  C   UNL     1      -0.016   1.362   0.009  0.00  0.00    +0.001 A 
ATOM      2  C   UNL     1       1.170   2.083   0.002  0.00  0.00    +0.002 A 
ATOM      3  C   UNL     1       2.386   1.436  -0.013  0.00  0.00    +0.026 A 
ATOM      4  C   UNL     1       2.429   0.045  -0.021  0.00  0.00    +0.048 A 
ATOM      5  C   UNL     1       1.224  -0.682  -0.013  0.00  0.00    +0.014 A 
ATOM      6  C   UNL     1       0.002  -0.004   0.002  0.00  0.00    +0.011 A 
ATOM      7  C   UNL     1       1.595  -2.100  -0.025  0.00  0.00    +0.041 A 
ATOM      8  C   UNL     1       2.956  -2.152  -0.038  0.00  0.00    +0.061 A 
ATOM      9  N   UNL     1       3.464  -0.865  -0.036  0.00  0.00    -0.353 N 
ATOM     10  H   UNL     1       4.407  -0.637  -0.043  0.00  0.00    +0.166 HD
ENDROOT
BRANCH   8  11
ATOM     11  C   UNL     1       3.762  -3.388  -0.052  0.00  0.00    -0.001 A 
ATOM     12  C   UNL     1       3.435  -4.449   0.795  0.00  0.00    +0.011 A 
ATOM     13  C   UNL     1       4.192  -5.601   0.777  0.00  0.00    +0.020 A 
ATOM     14  C   UNL     1       5.276  -5.708  -0.080  0.00  0.00    +0.041 A 
ATOM     15  C   UNL     1       5.606  -4.660  -0.922  0.00  0.00    +0.020 A 
ATOM     16  C   UNL     1       4.853  -3.504  -0.917  0.00  0.00    +0.011 A 
ATOM     17 CL   UNL     1       6.225  -7.161  -0.096  0.00  0.00    -0.084 Cl
ENDBRANCH   8  11
BRANCH   7  18
ATOM     18  S   UNL     1       0.492  -3.474  -0.021  0.00  0.00    -0.121 S 
BRANCH  18  19
ATOM     19  C   UNL     1       0.200  -3.807  -1.780  0.00  0.00    +0.093 C 
BRANCH  19  20
ATOM     20  C   UNL     1      -0.755  -4.994  -1.922  0.00  0.00    +0.115 C 
BRANCH  20  21
ATOM     21  N   UNL     1      -0.991  -5.263  -3.342  0.00  0.00    -0.311 N 
ATOM     22  C   UNL     1      -1.806  -6.271  -3.711  0.00  0.00    +0.244 C 
ATOM     23  O   UNL     1      -2.345  -6.957  -2.865  0.00  0.00    -0.270 OA
ATOM     24  H   UNL     1      -0.561  -4.716  -4.018  0.00  0.00    +0.149 HD
BRANCH  22  25
ATOM     25  C   UNL     1      -2.044  -6.543  -5.144  0.00  0.00    +0.039 A 
ATOM     26  C   UNL     1      -1.421  -5.760  -6.119  0.00  0.00    +0.014 A 
ATOM     27  C   UNL     1      -1.647  -6.019  -7.454  0.00  0.00    +0.023 A 
ATOM     28  C   UNL     1      -2.490  -7.052  -7.830  0.00  0.00    +0.071 A 
ATOM     29  C   UNL     1      -3.111  -7.831  -6.868  0.00  0.00    +0.145 A 
ATOM     30  C   UNL     1      -2.887  -7.587  -5.529  0.00  0.00    +0.047 A 
ATOM     31 CL   UNL     1      -2.769  -7.371  -9.513  0.00  0.00    -0.081 Cl
BRANCH  29  32
ATOM     32  N   UNL     1      -4.010  -8.934  -7.277  0.00  0.00    +0.058 N 
ATOM     33  O   UNL     1      -4.552  -9.615  -6.438  0.00  0.00    -0.126 OA
ATOM     34  O   UNL     1      -4.202  -9.152  -8.451  0.00  0.00    -0.126 OA
ENDBRANCH  29  32
ENDBRANCH  22  25
ENDBRANCH  20  21
ENDBRANCH  19  20
ENDBRANCH  18  19
ENDBRANCH   7  18
TORSDOF 7
