REMARK  Name = ZINC17143488
REMARK  7 active torsions:
REMARK  status: ('A' for Active; 'I' for Inactive)
REMARK    1  A    between atoms: C_1  and  C_2
REMARK    2  A    between atoms: C_2  and  C_17
REMARK    3  A    between atoms: N_3  and  N_4
REMARK    4  A    between atoms: C_5  and  C_7
REMARK    5  A    between atoms: C_21  and  N_23
REMARK    6  A    between atoms: N_23  and  S_24
REMARK    7  A    between atoms: S_24  and  C_27
REMARK                            x       y       z     vdW  Elec       q    Type
REMARK                         _______ _______ _______ _____ _____    ______ ____
ROOT
ATOM      1  C   UNL     1       1.914  10.348   0.039  0.00  0.00    +0.068 C 
ATOM      2  C   UNL     1       3.377   9.987   0.023  0.00  0.00    +0.063 C 
ATOM      3  N   UNL     1       3.737   8.740   0.013  0.00  0.00    -0.184 NA
ENDROOT
BRANCH   2   4
ATOM      4  C   UNL     1       4.399  11.050   0.019  0.00  0.00    -0.001 A 
ATOM      5  C   UNL     1       4.014  12.393   0.030  0.00  0.00    +0.010 A 
ATOM      6  C   UNL     1       4.973  13.385   0.026  0.00  0.00    +0.002 A 
ATOM      7  C   UNL     1       6.316  13.056   0.012  0.00  0.00    +0.024 A 
ATOM      8  C   UNL     1       6.709  11.723   0.001  0.00  0.00    +0.049 A 
ATOM      9  C   UNL     1       5.755  10.717   0.010  0.00  0.00    +0.034 A 
BRANCH   8  10
ATOM     10  N   UNL     1       8.068  11.396  -0.013  0.00  0.00    -0.216 N 
ATOM     11  H   UNL     1       8.395  10.708  -0.613  0.00  0.00    +0.174 HD
BRANCH  10  12
ATOM     12  S   UNL     1       9.119  12.182   0.997  0.00  0.00    +0.072 S 
ATOM     13  O   UNL     1      10.402  11.615   0.769  0.00  0.00    -0.150 OA
ATOM     14  O   UNL     1       8.863  13.572   0.847  0.00  0.00    -0.150 OA
BRANCH  12  15
ATOM     15  C   UNL     1       8.669  11.762   2.648  0.00  0.00    +0.108 A 
ATOM     16  C   UNL     1       7.757  12.541   3.335  0.00  0.00    +0.029 A 
ATOM     17  C   UNL     1       7.400  12.209   4.628  0.00  0.00    +0.002 A 
ATOM     18  C   UNL     1       7.963  11.103   5.238  0.00  0.00    +0.000 A 
ATOM     19  C   UNL     1       8.879  10.328   4.553  0.00  0.00    +0.002 A 
ATOM     20  C   UNL     1       9.232  10.657   3.258  0.00  0.00    +0.029 A 
ENDBRANCH  12  15
ENDBRANCH  10  12
ENDBRANCH   8  10
ENDBRANCH   2   4
BRANCH   3  21
ATOM     21  N   UNL     1       2.766   7.730   0.017  0.00  0.00    -0.202 N 
ATOM     22  C   UNL     1       3.139   6.435   0.006  0.00  0.00    +0.271 C 
ATOM     23  O   UNL     1       4.321   6.143  -0.007  0.00  0.00    -0.268 OA
ATOM     24  H   UNL     1       1.824   7.963   0.027  0.00  0.00    +0.178 HD
BRANCH  22  25
ATOM     25  C   UNL     1       2.122   5.378   0.010  0.00  0.00    +0.095 A 
ATOM     26  C   UNL     1       2.301   4.028   0.001  0.00  0.00    +0.068 A 
ATOM     27  C   UNL     1       1.184   3.173   0.007  0.00  0.00    +0.008 A 
ATOM     28  C   UNL     1       1.164   1.754   0.000  0.00  0.00    +0.010 A 
ATOM     29  C   UNL     1      -0.013   1.076   0.008  0.00  0.00    +0.001 A 
ATOM     30  C   UNL     1      -1.235   1.737   0.017  0.00  0.00    +0.001 A 
ATOM     31  C   UNL     1      -1.261   3.117   0.030  0.00  0.00    +0.016 A 
ATOM     32  C   UNL     1      -0.075   3.819   0.023  0.00  0.00    +0.021 A 
ATOM     33  S   UNL     1       0.346   5.544   0.028  0.00  0.00    -0.082 S 
ATOM     34 CL   UNL     1       3.905   3.364  -0.018  0.00  0.00    -0.082 Cl
ENDBRANCH  22  25
ENDBRANCH   3  21
TORSDOF 6
