REMARK  Name = ZINC35396640
REMARK  9 active torsions:
REMARK  status: ('A' for Active; 'I' for Inactive)
REMARK    1  A    between atoms: C_1  and  C_2
REMARK    2  A    between atoms: C_2  and  C_3
REMARK    3  A    between atoms: C_10  and  C_36
REMARK    4  A    between atoms: C_11  and  S_15
REMARK    5  A    between atoms: S_15  and  N_18
REMARK    6  A    between atoms: C_22  and  C_25
REMARK    7  A    between atoms: N_27  and  C_28
REMARK    8  A    between atoms: C_30  and  C_35
REMARK    9  A    between atoms: C_32  and  C_34
REMARK                            x       y       z     vdW  Elec       q    Type
REMARK                         _______ _______ _______ _____ _____    ______ ____
ROOT
ATOM      1  S   UNL     1       6.146  -0.170  -1.813  0.00  0.00    +0.061 S 
ATOM      2  O   UNL     1       6.237  -0.328  -3.222  0.00  0.00    -0.153 OA
ATOM      3  O   UNL     1       6.000   1.103  -1.197  0.00  0.00    -0.153 OA
ENDROOT
BRANCH   1  11
ATOM      4  C   UNL     1       1.684  -4.598  -2.231  0.00  0.00    +0.259 C 
ATOM      5  C   UNL     1       1.027  -4.370  -0.893  0.00  0.00    +0.258 C 
ATOM      6  O   UNL     1       0.027  -4.988  -0.592  0.00  0.00    -0.271 OA
ATOM      7  N   UNL     1       1.556  -3.477  -0.031  0.00  0.00    -0.280 N 
ATOM      8  C   UNL     1       2.635  -2.683  -0.445  0.00  0.00    +0.076 A 
ATOM      9  C   UNL     1       3.344  -1.925   0.472  0.00  0.00    +0.032 A 
ATOM     10  C   UNL     1       4.414  -1.158   0.050  0.00  0.00    -0.022 A 
ATOM     11  C   UNL     1       4.777  -1.145  -1.284  0.00  0.00    +0.112 A 
ATOM     12  C   UNL     1       4.070  -1.896  -2.206  0.00  0.00    +0.076 A 
ATOM     13  C   UNL     1       2.994  -2.662  -1.791  0.00  0.00    +0.145 A 
ATOM     14  O   UNL     1       2.271  -3.379  -2.691  0.00  0.00    -0.478 OA
ATOM     15  C   UNL     1       5.186  -0.332   1.046  0.00  0.00    +0.046 C 
ATOM     16  H   UNL     1       1.194  -3.384   0.864  0.00  0.00    +0.155 HD
BRANCH   4  18
ATOM     17  C   UNL     1       3.352  -5.989  -3.466  0.00  0.00    +0.008 C 
ATOM     18  C   UNL     1       2.772  -5.665  -2.088  0.00  0.00    +0.051 C 
ENDBRANCH   4  18
ENDBRANCH   1  11
BRANCH   1  19
ATOM     19  N   UNL     1       7.511  -0.852  -1.170  0.00  0.00    -0.176 NA
ATOM     20  C   UNL     1       8.075  -0.353   0.091  0.00  0.00    +0.109 C 
ATOM     21  C   UNL     1       8.234  -1.529   1.060  0.00  0.00    +0.018 C 
ATOM     22  C   UNL     1       9.064  -2.627   0.391  0.00  0.00    +0.015 C 
ATOM     23  C   UNL     1       8.339  -3.127  -0.861  0.00  0.00    +0.091 C 
ATOM     24  C   UNL     1       8.178  -1.973  -1.848  0.00  0.00    +0.122 C 
BRANCH  23  25
ATOM     25  C   UNL     1       9.141  -4.231  -1.500  0.00  0.00    +0.222 C 
ATOM     26  O   UNL     1       9.545  -4.106  -2.637  0.00  0.00    -0.275 OA
ATOM     27  N   UNL     1       9.410  -5.356  -0.809  0.00  0.00    -0.285 N 
ATOM     28  H   UNL     1       9.146  -5.428   0.122  0.00  0.00    +0.155 HD
BRANCH  27  29
ATOM     29  C   UNL     1      10.069  -6.420  -1.433  0.00  0.00    +0.034 A 
ATOM     30  C   UNL     1       9.737  -7.730  -1.111  0.00  0.00    +0.026 A 
ATOM     31  C   UNL     1      10.390  -8.778  -1.730  0.00  0.00    -0.048 A 
ATOM     32  C   UNL     1      11.373  -8.525  -2.669  0.00  0.00    +0.006 A 
ATOM     33  C   UNL     1      11.706  -7.222  -2.991  0.00  0.00    -0.048 A 
ATOM     34  C   UNL     1      11.053  -6.169  -2.381  0.00  0.00    +0.026 A 
ATOM     35  C   UNL     1      12.779  -6.951  -4.014  0.00  0.00    +0.044 C 
ATOM     36  C   UNL     1      10.030 -10.199  -1.381  0.00  0.00    +0.044 C 
ENDBRANCH  27  29
ENDBRANCH  23  25
ENDBRANCH   1  19
TORSDOF 5
