REMARK  Name = ZINC09886675
REMARK  10 active torsions:
REMARK  status: ('A' for Active; 'I' for Inactive)
REMARK    1  A    between atoms: C_1  and  C_2
REMARK    2  A    between atoms: C_2  and  C_3
REMARK    3  A    between atoms: C_2  and  C_4
REMARK    4  A    between atoms: C_4  and  C_6
REMARK    5  A    between atoms: C_4  and  N_29
REMARK    6  A    between atoms: N_8  and  N_9
REMARK    7  A    between atoms: C_10  and  C_11
REMARK    8  A    between atoms: N_13  and  C_20
REMARK    9  A    between atoms: C_20  and  C_21
REMARK   10  A    between atoms: C_30  and  C_32
REMARK                            x       y       z     vdW  Elec       q    Type
REMARK                         _______ _______ _______ _____ _____    ______ ____
ROOT
ATOM      1  N   UNL     1      -0.551  -5.627   7.446  0.00  0.00    -0.188 NA
ATOM      2  C   UNL     1       0.548  -4.944   7.555  0.00  0.00    +0.140 C 
ENDROOT
BRANCH   2   3
ATOM      3  C   UNL     1       1.796  -5.457   6.967  0.00  0.00    +0.020 A 
ATOM      4  C   UNL     1       2.074  -6.751   6.652  0.00  0.00    +0.096 A 
ATOM      5  N   UNL     1       3.329  -6.836   6.128  0.00  0.00    -0.337 N 
ATOM      6  C   UNL     1       3.916  -5.589   6.088  0.00  0.00    +0.050 A 
ATOM      7  C   UNL     1       2.987  -4.670   6.603  0.00  0.00    +0.009 A 
ATOM      8  C   UNL     1       3.313  -3.317   6.681  0.00  0.00    +0.010 A 
ATOM      9  C   UNL     1       4.547  -2.887   6.245  0.00  0.00    +0.001 A 
ATOM     10  C   UNL     1       5.464  -3.794   5.731  0.00  0.00    +0.002 A 
ATOM     11  C   UNL     1       5.155  -5.134   5.648  0.00  0.00    +0.026 A 
BRANCH   5  12
ATOM     12  C   UNL     1       3.966  -8.076   5.676  0.00  0.00    +0.217 C 
BRANCH  12  13
ATOM     13  C   UNL     1       4.814  -8.639   6.788  0.00  0.00    +0.235 C 
ATOM     14  O   UNL     1       4.880  -8.061   7.852  0.00  0.00    -0.274 OA
ATOM     15  N   UNL     1       5.498  -9.784   6.599  0.00  0.00    -0.296 N 
ATOM     16  C   UNL     1       6.333 -10.353   7.669  0.00  0.00    +0.136 C 
ATOM     17  C   UNL     1       5.959 -11.830   7.840  0.00  0.00    +0.179 C 
ATOM     18  O   UNL     1       6.024 -12.482   6.570  0.00  0.00    -0.377 OA
ATOM     19  C   UNL     1       5.103 -11.973   5.602  0.00  0.00    +0.179 C 
ATOM     20  C   UNL     1       5.433 -10.503   5.317  0.00  0.00    +0.136 C 
ENDBRANCH  12  13
ENDBRANCH   5  12
ENDBRANCH   2   3
BRANCH   1  23
ATOM     21  C   UNL     1      -1.698  -7.525   6.580  0.00  0.00    +0.253 C 
ATOM     22  O   UNL     1      -2.611  -7.309   7.349  0.00  0.00    -0.272 OA
ATOM     23  N   UNL     1      -0.601  -6.742   6.599  0.00  0.00    -0.205 N 
ATOM     24  H   UNL     1       0.153  -6.951   6.026  0.00  0.00    +0.177 HD
BRANCH  21  25
ATOM     25  C   UNL     1      -1.791  -8.669   5.603  0.00  0.00    +0.163 C 
BRANCH  25  26
ATOM     26  N   UNL     1      -2.760  -9.652   6.093  0.00  0.00    -0.300 N 
ATOM     27  C   UNL     1      -2.667 -10.940   5.707  0.00  0.00    +0.245 C 
ATOM     28  O   UNL     1      -1.779 -11.286   4.953  0.00  0.00    -0.270 OA
ATOM     29  H   UNL     1      -3.469  -9.376   6.694  0.00  0.00    +0.150 HD
BRANCH  27  30
ATOM     30  C   UNL     1      -3.646 -11.932   6.201  0.00  0.00    +0.037 A 
ATOM     31  C   UNL     1      -4.663 -11.538   7.071  0.00  0.00    +0.014 A 
ATOM     32  C   UNL     1      -5.577 -12.467   7.524  0.00  0.00    +0.021 A 
ATOM     33  C   UNL     1      -5.479 -13.790   7.126  0.00  0.00    +0.041 A 
ATOM     34  C   UNL     1      -4.467 -14.187   6.267  0.00  0.00    +0.021 A 
ATOM     35  C   UNL     1      -3.552 -13.267   5.803  0.00  0.00    +0.014 A 
ATOM     36 CL   UNL     1      -6.628 -14.955   7.705  0.00  0.00    -0.084 Cl
ENDBRANCH  27  30
ENDBRANCH  25  26
BRANCH  25  38
ATOM     37  C   UNL     1      -1.266  -7.066   3.759  0.00  0.00    +0.009 C 
ATOM     38  C   UNL     1      -2.244  -8.140   4.240  0.00  0.00    +0.012 C 
ATOM     39  C   UNL     1      -2.274  -9.291   3.232  0.00  0.00    +0.009 C 
ENDBRANCH  25  38
ENDBRANCH  21  25
ENDBRANCH   1  23
TORSDOF 8
