REMARK  Name = ZINC13494482
REMARK  15 active torsions:
REMARK  status: ('A' for Active; 'I' for Inactive)
REMARK    1  A    between atoms: C_1  and  C_2
REMARK    2  A    between atoms: C_2  and  C_3
REMARK    3  A    between atoms: C_3  and  C_5
REMARK    4  A    between atoms: C_3  and  N_14
REMARK    5  A    between atoms: N_9  and  C_10
REMARK    6  A    between atoms: C_10  and  C_11
REMARK    7  A    between atoms: C_10  and  C_12
REMARK    8  A    between atoms: C_10  and  C_13
REMARK    9  A    between atoms: N_14  and  C_15
REMARK   10  A    between atoms: N_14  and  C_25
REMARK   11  A    between atoms: C_15  and  C_16
REMARK   12  A    between atoms: C_25  and  C_26
REMARK   13  A    between atoms: C_30  and  O_38
REMARK   14  A    between atoms: O_38  and  C_39
REMARK   15  A    between atoms: C_39  and  C_40
REMARK                            x       y       z     vdW  Elec       q    Type
REMARK                         _______ _______ _______ _____ _____    ______ ____
ROOT
ATOM      1  N   UNL     1       1.828  -0.150  -1.968  0.00  0.00    -0.284 NA
ENDROOT
BRANCH   1   2
ATOM      2  C   UNL     1       2.575  -0.248  -0.707  0.00  0.00    +0.127 C 
BRANCH   2   3
ATOM      3  C   UNL     1       2.855   1.136  -0.180  0.00  0.00    +0.169 A 
ATOM      4  N   UNL     1       3.022   2.225  -0.891  0.00  0.00    -0.112 NA
ATOM      5  N   UNL     1       3.241   3.201  -0.079  0.00  0.00    -0.023 NA
ATOM      6  N   UNL     1       3.217   2.763   1.131  0.00  0.00    -0.043 NA
ATOM      7  N   UNL     1       2.977   1.496   1.111  0.00  0.00    -0.222 N 
BRANCH   7   8
ATOM      8  C   UNL     1       2.862   0.613   2.274  0.00  0.00    +0.059 C 
ATOM      9  C   UNL     1       3.705  -0.643   2.046  0.00  0.00    +0.036 C 
ATOM     10  C   UNL     1       3.364   1.345   3.521  0.00  0.00    +0.036 C 
ATOM     11  C   UNL     1       1.398   0.216   2.471  0.00  0.00    +0.036 C 
ENDBRANCH   7   8
ENDBRANCH   2   3
BRANCH   2  13
ATOM     12  C   UNL     1       3.612  -2.419  -1.379  0.00  0.00    +0.006 C 
ATOM     13  C   UNL     1       3.897  -0.978  -0.952  0.00  0.00    +0.023 C 
ENDBRANCH   2  13
ENDBRANCH   1   2
BRANCH   1  14
ATOM     14  C   UNL     1       2.741  -0.058  -3.115  0.00  0.00    +0.120 C 
BRANCH  14  15
ATOM     15  C   UNL     1       3.337   1.325  -3.173  0.00  0.00    -0.030 A 
ATOM     16  C   UNL     1       2.661   2.340  -3.825  0.00  0.00    +0.009 A 
ATOM     17  C   UNL     1       3.203   3.610  -3.881  0.00  0.00    +0.050 A 
ATOM     18  C   UNL     1       4.426   3.869  -3.283  0.00  0.00    +0.166 A 
ATOM     19  C   UNL     1       5.106   2.847  -2.626  0.00  0.00    +0.167 A 
ATOM     20  C   UNL     1       4.554   1.577  -2.569  0.00  0.00    +0.054 A 
ATOM     21  O   UNL     1       6.273   3.350  -2.126  0.00  0.00    -0.453 OA
ATOM     22  C   UNL     1       6.493   4.585  -2.833  0.00  0.00    +0.466 C 
ATOM     23  O   UNL     1       5.166   5.013  -3.195  0.00  0.00    -0.453 OA
ENDBRANCH  14  15
ENDBRANCH   1  14
BRANCH   1  24
ATOM     24  C   UNL     1       0.903  -1.281  -2.120  0.00  0.00    +0.126 C 
BRANCH  24  25
ATOM     25  C   UNL     1      -0.322  -1.046  -1.275  0.00  0.00    +0.031 A 
ATOM     26  C   UNL     1      -1.417  -0.461  -1.821  0.00  0.00    +0.020 A 
ATOM     27  C   UNL     1      -2.592  -0.246  -0.973  0.00  0.00    +0.002 A 
ATOM     28  C   UNL     1      -3.749   0.352  -1.482  0.00  0.00    +0.055 A 
ATOM     29  C   UNL     1      -4.839   0.539  -0.655  0.00  0.00    +0.121 A 
ATOM     30  C   UNL     1      -4.788   0.136   0.677  0.00  0.00    +0.047 A 
ATOM     31  C   UNL     1      -3.654  -0.454   1.189  0.00  0.00    +0.030 A 
ATOM     32  C   UNL     1      -2.545  -0.652   0.373  0.00  0.00    +0.049 A 
ATOM     33  N   UNL     1      -1.399  -1.242   0.868  0.00  0.00    -0.322 N 
ATOM     34  H   UNL     1      -1.368  -1.521   1.796  0.00  0.00    +0.169 HD
ATOM     35  C   UNL     1      -0.328  -1.440   0.080  0.00  0.00    +0.254 A 
ATOM     36  O   UNL     1       0.665  -1.969   0.549  0.00  0.00    -0.268 OA
BRANCH  29  37
ATOM     37  O   UNL     1      -5.967   1.121  -1.144  0.00  0.00    -0.492 OA
BRANCH  37  38
ATOM     38  C   UNL     1      -7.058   1.285  -0.236  0.00  0.00    +0.225 C 
ATOM     39  C   UNL     1      -8.229   1.951  -0.960  0.00  0.00    +0.048 C 
ENDBRANCH  37  38
ENDBRANCH  29  37
ENDBRANCH  24  25
ENDBRANCH   1  24
TORSDOF 10
