REMARK  Name = ZINC11663415
REMARK  4 active torsions:
REMARK  status: ('A' for Active; 'I' for Inactive)
REMARK    1  A    between atoms: C_11  and  N_14
REMARK    2  A    between atoms: N_14  and  C_15
REMARK    3  A    between atoms: C_15  and  C_16
REMARK    4  A    between atoms: C_21  and  C_22
REMARK                            x       y       z     vdW  Elec       q    Type
REMARK                         _______ _______ _______ _____ _____    ______ ____
ROOT
ATOM      1  N   UNL     1       4.529  -4.069   1.032  0.00  0.00    +0.385 N 
ATOM      2  H   UNL     1       4.879  -4.328   0.122  0.00  0.00    -0.085 HD
ATOM      3  H   UNL     1       5.172  -4.384   1.743  0.00  0.00    -0.085 HD
ENDROOT
BRANCH   1  14
ATOM      4  C   UNL     1      -0.017   1.382   0.010  0.00  0.00    +0.039 A 
ATOM      5  C   UNL     1       1.192   2.061   0.002  0.00  0.00    +0.116 A 
ATOM      6  N   UNL     1       2.320   1.371  -0.013  0.00  0.00    -0.223 NA
ATOM      7  C   UNL     1       2.303   0.046  -0.020  0.00  0.00    +0.218 A 
ATOM      8  N   UNL     1       1.165  -0.633  -0.013  0.00  0.00    -0.223 NA
ATOM      9  C   UNL     1       0.002  -0.004   0.002  0.00  0.00    +0.116 A 
ATOM     10  N   UNL     1       3.502  -0.645  -0.035  0.00  0.00    -0.301 N 
ATOM     11  C   UNL     1       4.782   0.077  -0.037  0.00  0.00    +0.108 C 
ATOM     12  C   UNL     1       5.642  -0.442   1.119  0.00  0.00    +0.017 C 
ATOM     13  C   UNL     1       5.778  -1.962   1.007  0.00  0.00    -0.013 C 
ATOM     14  C   UNL     1       4.394  -2.608   1.108  0.00  0.00    -0.054 C 
ATOM     15  C   UNL     1       3.520  -2.114  -0.043  0.00  0.00    +0.092 C 
ENDBRANCH   1  14
BRANCH   1  16
ATOM     16  C   UNL     1       3.217  -4.693   1.248  0.00  0.00    -0.043 C 
BRANCH  16  17
ATOM     17  C   UNL     1       3.355  -6.192   1.171  0.00  0.00    -0.024 A 
ATOM     18  C   UNL     1       3.055  -6.965   0.102  0.00  0.00    +0.106 A 
ATOM     19  N   UNL     1       3.317  -8.246   0.434  0.00  0.00    -0.284 N 
ATOM     20  H   UNL     1       3.196  -9.020  -0.138  0.00  0.00    +0.188 HD
ATOM     21  N   UNL     1       3.793  -8.261   1.752  0.00  0.00    -0.178 NA
ATOM     22  C   UNL     1       3.821  -7.029   2.190  0.00  0.00    +0.067 A 
BRANCH  22  23
ATOM     23  C   UNL     1       4.273  -6.588   3.558  0.00  0.00    +0.040 C 
ATOM     24  C   UNL     1       5.733  -6.995   3.769  0.00  0.00    +0.010 C 
ATOM     25  C   UNL     1       6.192  -6.547   5.158  0.00  0.00    +0.001 C 
ATOM     26  C   UNL     1       5.318  -7.213   6.223  0.00  0.00    +0.000 C 
ATOM     27  C   UNL     1       3.858  -6.806   6.013  0.00  0.00    +0.001 C 
ATOM     28  C   UNL     1       3.399  -7.254   4.623  0.00  0.00    +0.010 C 
ENDBRANCH  22  23
ENDBRANCH  16  17
ENDBRANCH   1  16
TORSDOF 4
