REMARK  Name = ZINC06196909
REMARK  11 active torsions:
REMARK  status: ('A' for Active; 'I' for Inactive)
REMARK    1  A    between atoms: C_1  and  C_2
REMARK    2  A    between atoms: C_2  and  O_3
REMARK    3  A    between atoms: O_3  and  C_4
REMARK    4  A    between atoms: C_11  and  C_16
REMARK    5  A    between atoms: C_16  and  C_18
REMARK    6  A    between atoms: C_16  and  N_68
REMARK    7  A    between atoms: N_22  and  C_23
REMARK    8  A    between atoms: C_23  and  C_24
REMARK    9  A    between atoms: C_23  and  C_25
REMARK   10  A    between atoms: C_23  and  C_26
REMARK   11  A    between atoms: C_32  and  C_34
REMARK                            x       y       z     vdW  Elec       q    Type
REMARK                         _______ _______ _______ _____ _____    ______ ____
ROOT
ATOM      1  C   UNL     1       2.847  -0.379   1.681  0.00  0.00    +0.039 C 
ENDROOT
BRANCH   1   9
ATOM      2  C   UNL     1       7.063   3.215   4.463  0.00  0.00    +0.121 A 
ATOM      3  C   UNL     1       7.863   3.404   3.339  0.00  0.00    +0.047 A 
ATOM      4  C   UNL     1       7.529   2.827   2.134  0.00  0.00    +0.030 A 
ATOM      5  C   UNL     1       6.383   2.045   2.032  0.00  0.00    +0.049 A 
ATOM      6  C   UNL     1       5.572   1.850   3.166  0.00  0.00    +0.002 A 
ATOM      7  C   UNL     1       5.921   2.442   4.384  0.00  0.00    +0.055 A 
ATOM      8  C   UNL     1       4.366   1.029   3.043  0.00  0.00    +0.017 A 
ATOM      9  C   UNL     1       4.078   0.475   1.839  0.00  0.00    +0.011 A 
ATOM     10  C   UNL     1       4.925   0.701   0.733  0.00  0.00    +0.251 A 
ATOM     11  O   UNL     1       4.645   0.197  -0.341  0.00  0.00    -0.268 OA
ATOM     12  N   UNL     1       6.032   1.457   0.834  0.00  0.00    -0.322 N 
ATOM     13  H   UNL     1       6.609   1.595   0.029  0.00  0.00    +0.169 HD
BRANCH   2  14
ATOM     14  O   UNL     1       7.407   3.793   5.644  0.00  0.00    -0.492 OA
BRANCH  14  16
ATOM     15  C   UNL     1       8.823   5.144   7.062  0.00  0.00    +0.048 C 
ATOM     16  C   UNL     1       8.600   4.579   5.658  0.00  0.00    +0.225 C 
ENDBRANCH  14  16
ENDBRANCH   2  14
ENDBRANCH   1   9
BRANCH   1  24
ATOM     17  C   UNL     1       0.706  -0.504   0.557  0.00  0.00    -0.058 C 
ATOM     18  C   UNL     1      -0.054  -0.057  -0.697  0.00  0.00    +0.089 C 
ATOM     19  N   UNL     1      -0.092   1.413  -0.721  0.00  0.00    -0.299 N 
ATOM     20  C   UNL     1       1.173   2.145  -0.556  0.00  0.00    +0.089 C 
ATOM     21  C   UNL     1       1.885   1.611   0.692  0.00  0.00    -0.058 C 
ATOM     22  C   UNL     1      -1.254   2.073  -0.895  0.00  0.00    +0.282 C 
ATOM     23  O   UNL     1      -2.281   1.452  -1.102  0.00  0.00    -0.267 OA
ATOM     24  N   UNL     1       2.035   0.145   0.563  0.00  0.00    +0.391 N 
ATOM     25  H   UNL     1       2.511  -0.064  -0.322  0.00  0.00    -0.080 HD
BRANCH  22  26
ATOM     26  C   UNL     1      -1.283   3.538  -0.836  0.00  0.00    +0.189 A 
ATOM     27  C   UNL     1      -2.401   4.321  -0.866  0.00  0.00    +0.054 A 
ATOM     28  C   UNL     1      -1.964   5.652  -0.786  0.00  0.00    +0.042 A 
ATOM     29  C   UNL     1      -0.615   5.624  -0.710  0.00  0.00    +0.196 A 
ATOM     30  O   UNL     1      -0.208   4.348  -0.735  0.00  0.00    -0.458 OA
ENDBRANCH  22  26
ENDBRANCH   1  24
BRANCH   1  31
ATOM     31  C   UNL     1       3.255  -1.794   1.360  0.00  0.00    +0.143 A 
ATOM     32  N   UNL     1       3.790  -2.219   0.241  0.00  0.00    -0.115 NA
ATOM     33  N   UNL     1       3.995  -3.486   0.355  0.00  0.00    -0.023 NA
ATOM     34  N   UNL     1       3.598  -3.881   1.515  0.00  0.00    -0.043 NA
ATOM     35  N   UNL     1       3.135  -2.866   2.164  0.00  0.00    -0.225 N 
BRANCH  35  36
ATOM     36  C   UNL     1       2.583  -2.880   3.521  0.00  0.00    +0.059 C 
ATOM     37  C   UNL     1       1.111  -2.466   3.477  0.00  0.00    +0.036 C 
ATOM     38  C   UNL     1       2.700  -4.289   4.105  0.00  0.00    +0.036 C 
ATOM     39  C   UNL     1       3.363  -1.898   4.398  0.00  0.00    +0.036 C 
ENDBRANCH  35  36
ENDBRANCH   1  31
TORSDOF 7
