REMARK  Name = ZINC39211552
REMARK  10 active torsions:
REMARK  status: ('A' for Active; 'I' for Inactive)
REMARK    1  A    between atoms: C_1  and  C_2
REMARK    2  A    between atoms: C_4  and  C_12
REMARK    3  A    between atoms: C_12  and  C_13
REMARK    4  A    between atoms: C_13  and  N_14
REMARK    5  A    between atoms: N_14  and  C_15
REMARK    6  A    between atoms: C_15  and  C_17
REMARK    7  A    between atoms: C_15  and  C_25
REMARK    8  A    between atoms: N_30  and  C_31
REMARK    9  A    between atoms: C_34  and  O_37
REMARK   10  A    between atoms: O_37  and  C_38
REMARK                            x       y       z     vdW  Elec       q    Type
REMARK                         _______ _______ _______ _____ _____    ______ ____
ROOT
ATOM      1  C   UNL     1      -4.284   4.001   2.508  0.00  0.00    +0.120 C 
ENDROOT
BRANCH   1   2
ATOM      2  C   UNL     1      -5.660   4.030   3.176  0.00  0.00    +0.164 C 
ATOM      3  N   UNL     1      -5.842   2.827   4.025  0.00  0.00    -0.327 NA
ATOM      4  N   UNL     1      -7.251   2.470   3.783  0.00  0.00    +0.410 N 
ATOM      5  N   UNL     1      -7.433   2.806   2.364  0.00  0.00    -0.266 NA
ATOM      6  N   UNL     1      -6.721   3.966   2.157  0.00  0.00    -0.262 N 
ATOM      7  H   UNL     1      -5.226   2.083   3.735  0.00  0.00    +0.106 HD
ATOM      8  H   UNL     1      -7.403   1.485   3.939  0.00  0.00    -0.031 HD
ATOM      9  H   UNL     1      -7.095   2.063   1.771  0.00  0.00    +0.125 HD
ATOM     10  H   UNL     1      -7.864   3.024   4.362  0.00  0.00    -0.031 HD
BRANCH   6  11
ATOM     11  C   UNL     1      -6.962   4.915   1.158  0.00  0.00    +0.045 A 
ATOM     12  C   UNL     1      -6.156   6.042   1.062  0.00  0.00    +0.028 A 
ATOM     13  C   UNL     1      -6.394   6.979   0.074  0.00  0.00    +0.047 A 
ATOM     14  C   UNL     1      -7.438   6.793  -0.821  0.00  0.00    +0.120 A 
ATOM     15  C   UNL     1      -8.243   5.668  -0.725  0.00  0.00    +0.047 A 
ATOM     16  C   UNL     1      -8.003   4.728   0.258  0.00  0.00    +0.028 A 
BRANCH  14  17
ATOM     17  O   UNL     1      -7.671   7.716  -1.792  0.00  0.00    -0.495 OA
ATOM     18  C   UNL     1      -8.762   7.461  -2.680  0.00  0.00    +0.277 C 
ENDBRANCH  14  17
ENDBRANCH   6  11
ENDBRANCH   1   2
BRANCH   1  19
ATOM     19  C   UNL     1      -3.211   4.040   3.566  0.00  0.00    -0.009 A 
ATOM     20  C   UNL     1      -2.572   2.874   3.944  0.00  0.00    +0.008 A 
ATOM     21  C   UNL     1      -1.588   2.908   4.914  0.00  0.00    +0.020 A 
ATOM     22  C   UNL     1      -1.242   4.110   5.506  0.00  0.00    +0.042 A 
ATOM     23  C   UNL     1      -1.881   5.277   5.128  0.00  0.00    +0.040 A 
ATOM     24  C   UNL     1      -2.862   5.242   4.153  0.00  0.00    +0.047 A 
ATOM     25 CL   UNL     1      -3.661   6.707   3.673  0.00  0.00    -0.083 Cl
ATOM     26 CL   UNL     1      -0.006   4.153   6.725  0.00  0.00    -0.083 Cl
ENDBRANCH   1  19
BRANCH   1  27
ATOM     27  N   UNL     1      -4.149   2.770   1.718  0.00  0.00    -0.306 NA
ATOM     28  H   UNL     1      -5.043   2.472   1.356  0.00  0.00    +0.123 HD
BRANCH  27  29
ATOM     29  C   UNL     1      -3.174   2.945   0.633  0.00  0.00    +0.086 C 
BRANCH  29  30
ATOM     30  C   UNL     1      -3.061   1.645  -0.166  0.00  0.00    +0.052 C 
BRANCH  30  34
ATOM     31  C   UNL     1      -0.013   1.086   0.008  0.00  0.00    +0.063 C 
ATOM     32  C   UNL     1      -0.742   1.585  -1.213  0.00  0.00    +0.017 A 
ATOM     33  H   UNL     1       0.790   1.775  -2.611  0.00  0.00    +0.166 HD
ATOM     34  C   UNL     1      -2.061   1.824  -1.279  0.00  0.00    -0.018 A 
ATOM     35  C   UNL     1      -2.344   2.292  -2.638  0.00  0.00    +0.003 A 
ATOM     36  C   UNL     1      -3.503   2.692  -3.304  0.00  0.00    +0.010 A 
ATOM     37  C   UNL     1      -3.433   3.085  -4.611  0.00  0.00    +0.001 A 
ATOM     38  C   UNL     1      -2.218   3.091  -5.281  0.00  0.00    +0.002 A 
ATOM     39  C   UNL     1      -1.061   2.701  -4.642  0.00  0.00    +0.026 A 
ATOM     40  C   UNL     1      -1.109   2.296  -3.312  0.00  0.00    +0.047 A 
ATOM     41  N   UNL     1      -0.156   1.867  -2.417  0.00  0.00    -0.358 N 
ENDBRANCH  30  34
ENDBRANCH  29  30
ENDBRANCH  27  29
ENDBRANCH   1  27
TORSDOF 8
