REMARK  Name = ZINC13065481
REMARK  12 active torsions:
REMARK  status: ('A' for Active; 'I' for Inactive)
REMARK    1  A    between atoms: C_1  and  C_2
REMARK    2  A    between atoms: C_5  and  C_8
REMARK    3  A    between atoms: C_8  and  N_67
REMARK    4  A    between atoms: C_9  and  C_10
REMARK    5  A    between atoms: C_9  and  N_67
REMARK    6  A    between atoms: C_16  and  C_22
REMARK    7  A    between atoms: C_23  and  C_24
REMARK    8  A    between atoms: C_23  and  N_67
REMARK    9  A    between atoms: N_28  and  C_29
REMARK   10  A    between atoms: C_29  and  C_30
REMARK   11  A    between atoms: C_33  and  O_36
REMARK   12  A    between atoms: O_36  and  C_37
REMARK                            x       y       z     vdW  Elec       q    Type
REMARK                         _______ _______ _______ _____ _____    ______ ____
ROOT
ATOM      1  N   UNL     1       1.563  -2.059  -1.357  0.00  0.00    +0.390 N 
ATOM      2  H   UNL     1       0.842  -1.830  -2.052  0.00  0.00    -0.080 HD
ENDROOT
BRANCH   1   3
ATOM      3  C   UNL     1       2.896  -1.876  -1.971  0.00  0.00    -0.042 C 
BRANCH   3   8
ATOM      4  C   UNL     1       2.896  -4.363  -7.187  0.00  0.00    +0.044 C 
ATOM      5  C   UNL     1       2.896  -3.715  -5.827  0.00  0.00    -0.050 A 
ATOM      6  C   UNL     1       2.403  -2.433  -5.672  0.00  0.00    +0.003 A 
ATOM      7  C   UNL     1       2.403  -1.837  -4.424  0.00  0.00    +0.002 A 
ATOM      8  C   UNL     1       2.896  -2.525  -3.331  0.00  0.00    -0.064 A 
ATOM      9  C   UNL     1       3.393  -3.805  -3.486  0.00  0.00    +0.002 A 
ATOM     10  C   UNL     1       3.389  -4.402  -4.733  0.00  0.00    +0.003 A 
ENDBRANCH   3   8
ENDBRANCH   1   3
BRANCH   1  11
ATOM     11  C   UNL     1       1.391  -3.464  -0.932  0.00  0.00    -0.036 C 
BRANCH  11  12
ATOM     12  C   UNL     1      -0.080  -3.740  -0.761  0.00  0.00    +0.001 A 
ATOM     13  C   UNL     1      -0.795  -4.257  -1.791  0.00  0.00    +0.017 A 
ATOM     14  C   UNL     1      -2.221  -4.518  -1.591  0.00  0.00    -0.001 A 
ATOM     15  C   UNL     1      -3.009  -5.055  -2.615  0.00  0.00    +0.010 A 
ATOM     16  C   UNL     1      -4.338  -5.282  -2.398  0.00  0.00    +0.001 A 
ATOM     17  C   UNL     1      -4.915  -4.984  -1.171  0.00  0.00    +0.005 A 
ATOM     18  C   UNL     1      -4.159  -4.454  -0.148  0.00  0.00    -0.026 A 
ATOM     19  C   UNL     1      -2.803  -4.214  -0.346  0.00  0.00    +0.052 A 
ATOM     20  N   UNL     1      -2.022  -3.685   0.659  0.00  0.00    -0.322 N 
ATOM     21  H   UNL     1      -2.424  -3.475   1.517  0.00  0.00    +0.169 HD
ATOM     22  C   UNL     1      -0.711  -3.454   0.469  0.00  0.00    +0.251 A 
ATOM     23  O   UNL     1      -0.052  -2.985   1.380  0.00  0.00    -0.268 OA
ATOM     24  C   UNL     1      -4.798  -4.134   1.178  0.00  0.00    +0.046 C 
ENDBRANCH  11  12
ENDBRANCH   1  11
BRANCH   1  25
ATOM     25  C   UNL     1       1.414  -1.158  -0.195  0.00  0.00    +0.001 C 
BRANCH  25  26
ATOM     26  C   UNL     1       1.440   0.269  -0.679  0.00  0.00    +0.135 A 
ATOM     27  N   UNL     1       2.504   1.006  -0.888  0.00  0.00    -0.115 NA
ATOM     28  N   UNL     1       2.112   2.163  -1.297  0.00  0.00    -0.023 NA
ATOM     29  N   UNL     1       0.826   2.184  -1.355  0.00  0.00    -0.044 NA
ATOM     30  N   UNL     1       0.375   1.034  -0.982  0.00  0.00    -0.227 N 
BRANCH  30  31
ATOM     31  C   UNL     1      -1.033   0.636  -0.903  0.00  0.00    +0.182 C 
BRANCH  31  32
ATOM     32  C   UNL     1      -1.509   0.200  -2.265  0.00  0.00    -0.026 A 
ATOM     33  C   UNL     1      -1.960   1.141  -3.173  0.00  0.00    +0.009 A 
ATOM     34  C   UNL     1      -2.391   0.744  -4.423  0.00  0.00    +0.046 A 
ATOM     35  C   UNL     1      -2.383  -0.601  -4.765  0.00  0.00    +0.120 A 
ATOM     36  C   UNL     1      -1.935  -1.543  -3.850  0.00  0.00    +0.046 A 
ATOM     37  C   UNL     1      -1.500  -1.141  -2.603  0.00  0.00    +0.009 A 
BRANCH  35  38
ATOM     38  O   UNL     1      -2.812  -0.994  -5.993  0.00  0.00    -0.495 OA
ATOM     39  C   UNL     1      -3.258   0.031  -6.883  0.00  0.00    +0.277 C 
ENDBRANCH  35  38
ENDBRANCH  31  32
ENDBRANCH  30  31
ENDBRANCH  25  26
ENDBRANCH   1  25
TORSDOF 9
