REMARK  Name = ZINC63279467
REMARK  6 active torsions:
REMARK  status: ('A' for Active; 'I' for Inactive)
REMARK    1  A    between atoms: C_1  and  C_2
REMARK    2  A    between atoms: C_5  and  C_8
REMARK    3  A    between atoms: C_19  and  C_21
REMARK    4  A    between atoms: N_22  and  C_23
REMARK    5  A    between atoms: C_23  and  C_24
REMARK    6  A    between atoms: C_24  and  C_25
REMARK                            x       y       z     vdW  Elec       q    Type
REMARK                         _______ _______ _______ _____ _____    ______ ____
ROOT
ATOM      1  C   UNL     1       0.059  -4.275  -0.021  0.00  0.00    +0.198 C 
ATOM      2  N   UNL     1       0.675  -4.766  -1.266  0.00  0.00    -0.295 N 
ATOM      3  C   UNL     1       1.227  -6.024  -1.289  0.00  0.00    +0.180 C 
ATOM      4  N   UNL     1       1.485  -6.700  -0.215  0.00  0.00    -0.215 NA
ATOM      5  C   UNL     1       1.180  -6.208   1.123  0.00  0.00    +0.290 C 
ATOM      6  N   UNL     1       0.895  -4.777   1.086  0.00  0.00    -0.238 N 
ATOM      7  C   UNL     1       1.371  -3.928   2.008  0.00  0.00    +0.245 C 
ATOM      8  O   UNL     1       0.987  -2.772   2.019  0.00  0.00    -0.270 OA
ATOM      9  C   UNL     1       2.313  -4.363   2.967  0.00  0.00    +0.085 C 
ATOM     10  C   UNL     1       2.729  -5.644   2.962  0.00  0.00    +0.008 C 
ATOM     11  N   UNL     1       2.241  -6.522   2.061  0.00  0.00    -0.311 N 
ATOM     12  C   UNL     1       3.767  -6.091   3.960  0.00  0.00    +0.060 C 
ATOM     13  N   UNL     1       1.518  -6.590  -2.508  0.00  0.00    -0.317 N 
ATOM     14  H   UNL     1       2.614  -7.418   2.057  0.00  0.00    +0.149 HD
ATOM     15  H   UNL     1       1.334  -6.103  -3.326  0.00  0.00    +0.149 HD
ATOM     16  H   UNL     1       0.691  -4.208  -2.060  0.00  0.00    +0.151 HD
ENDROOT
BRANCH   1  21
ATOM     17  C   UNL     1      -0.016   1.503   0.007  0.00  0.00    +0.044 C 
ATOM     18  C   UNL     1       0.004  -0.004  -0.000  0.00  0.00    -0.050 A 
ATOM     19  C   UNL     1       1.162  -0.678  -0.339  0.00  0.00    +0.004 A 
ATOM     20  C   UNL     1       1.180  -2.061  -0.346  0.00  0.00    +0.007 A 
ATOM     21  C   UNL     1       0.040  -2.768  -0.013  0.00  0.00    -0.009 A 
ATOM     22  C   UNL     1      -1.118  -2.094   0.327  0.00  0.00    +0.007 A 
ATOM     23  C   UNL     1      -1.135  -0.712   0.338  0.00  0.00    +0.004 A 
ENDBRANCH   1  21
BRANCH  13  24
ATOM     24  C   UNL     1       2.107  -7.930  -2.570  0.00  0.00    +0.108 C 
BRANCH  24  25
ATOM     25  C   UNL     1       2.330  -8.322  -4.032  0.00  0.00    +0.052 C 
BRANCH  25  26
ATOM     26  C   UNL     1       2.937  -9.700  -4.096  0.00  0.00    -0.040 C 
ATOM     27  C   UNL     1       2.279 -10.870  -4.265  0.00  0.00    -0.001 A 
ATOM     28  C   UNL     1       0.858 -11.198  -4.432  0.00  0.00    +0.010 A 
ATOM     29  C   UNL     1       0.497 -12.492  -4.582  0.00  0.00    +0.001 A 
ATOM     30  C   UNL     1       1.442 -13.526  -4.583  0.00  0.00    +0.002 A 
ATOM     31  C   UNL     1       2.766 -13.305  -4.435  0.00  0.00    +0.026 A 
ATOM     32  C   UNL     1       3.259 -11.981  -4.269  0.00  0.00    +0.043 A 
ATOM     33  N   UNL     1       4.473 -11.515  -4.109  0.00  0.00    -0.380 N 
ATOM     34  C   UNL     1       4.403 -10.055  -3.991  0.00  0.00    +0.144 C 
ATOM     35  H   UNL     1       5.284 -12.047  -4.078  0.00  0.00    +0.160 HD
ENDBRANCH  25  26
ENDBRANCH  24  25
ENDBRANCH  13  24
TORSDOF 4
