REMARK  Name = ZINC11174441
REMARK  6 active torsions:
REMARK  status: ('A' for Active; 'I' for Inactive)
REMARK    1  A    between atoms: C_6  and  C_7
REMARK    2  A    between atoms: C_7  and  N_60
REMARK    3  A    between atoms: N_11  and  C_14
REMARK    4  A    between atoms: C_17  and  S_23
REMARK    5  A    between atoms: C_19  and  N_20
REMARK    6  A    between atoms: S_23  and  N_26
REMARK                            x       y       z     vdW  Elec       q    Type
REMARK                         _______ _______ _______ _____ _____    ______ ____
ROOT
ATOM      1  C   UNL     1      -2.355   2.659   3.684  0.00  0.00    +0.060 A 
ATOM      2  C   UNL     1      -2.560   1.407   3.119  0.00  0.00    +0.027 A 
ATOM      3  C   UNL     1      -1.846   1.031   1.999  0.00  0.00    +0.030 A 
ATOM      4  C   UNL     1      -0.927   1.900   1.439  0.00  0.00    +0.108 A 
ATOM      5  C   UNL     1      -0.716   3.145   2.003  0.00  0.00    +0.063 A 
ATOM      6  C   UNL     1      -1.431   3.530   3.120  0.00  0.00    +0.149 A 
ENDROOT
BRANCH   1  10
ATOM      7  C   UNL     1      -5.369   2.703   6.806  0.00  0.00    -0.077 C 
ATOM      8  C   UNL     1      -5.232   3.737   5.717  0.00  0.00    +0.000 C 
ATOM      9  C   UNL     1      -4.447   3.122   4.537  0.00  0.00    +0.103 C 
ATOM     10  N   UNL     1      -3.076   3.043   4.817  0.00  0.00    -0.330 N 
ATOM     11  C   UNL     1      -2.734   2.192   5.975  0.00  0.00    +0.086 C 
ATOM     12  C   UNL     1      -2.946   3.002   7.230  0.00  0.00    -0.059 C 
ATOM     13  N   UNL     1      -4.297   2.807   7.848  0.00  0.00    +0.383 N 
ATOM     14  H   UNL     1      -4.502   3.616   8.446  0.00  0.00    -0.081 HD
BRANCH  13  15
ATOM     15  C   UNL     1      -4.290   1.590   8.678  0.00  0.00    -0.043 C 
BRANCH  15  21
ATOM     16  C   UNL     1      -2.021   1.429   9.721  0.00  0.00    +0.003 A 
ATOM     17  C   UNL     1      -1.153   1.633  10.777  0.00  0.00    +0.020 A 
ATOM     18  C   UNL     1      -1.613   2.205  11.950  0.00  0.00    +0.041 A 
ATOM     19  C   UNL     1      -2.940   2.578  12.062  0.00  0.00    +0.020 A 
ATOM     20  C   UNL     1      -3.806   2.379  11.003  0.00  0.00    +0.003 A 
ATOM     21  C   UNL     1      -3.346   1.807   9.832  0.00  0.00    -0.064 A 
ATOM     22 CL   UNL     1      -0.525   2.456  13.279  0.00  0.00    -0.084 Cl
ENDBRANCH  15  21
ENDBRANCH  13  15
ENDBRANCH   1  10
BRANCH   6  23
ATOM     23  N   UNL     1      -1.209   4.865   3.719  0.00  0.00    +0.058 N 
ATOM     24  O   UNL     1      -0.399   5.627   3.223  0.00  0.00    -0.126 OA
ATOM     25  O   UNL     1      -1.837   5.201   4.707  0.00  0.00    -0.126 OA
ENDBRANCH   6  23
BRANCH   4  26
ATOM     26  S   UNL     1      -0.017   1.417   0.010  0.00  0.00    +0.061 S 
ATOM     27  O   UNL     1       0.002  -0.004   0.002  0.00  0.00    -0.153 OA
ATOM     28  O   UNL     1       1.172   2.195   0.003  0.00  0.00    -0.153 OA
BRANCH  26  29
ATOM     29  N   UNL     1      -0.897   1.885  -1.312  0.00  0.00    -0.172 NA
ATOM     30  C   UNL     1      -1.888   0.984  -1.921  0.00  0.00    +0.137 C 
ATOM     31  C   UNL     1      -3.209   1.756  -2.073  0.00  0.00    +0.177 C 
ATOM     32  O   UNL     1      -2.958   2.982  -2.764  0.00  0.00    -0.377 OA
ATOM     33  C   UNL     1      -2.082   3.875  -2.072  0.00  0.00    +0.177 C 
ATOM     34  C   UNL     1      -0.708   3.214  -1.917  0.00  0.00    +0.137 C 
ENDBRANCH  26  29
ENDBRANCH   4  26
TORSDOF 6
