REMARK  Name = ZINC34748644
REMARK  8 active torsions:
REMARK  status: ('A' for Active; 'I' for Inactive)
REMARK    1  A    between atoms: C_1  and  C_2
REMARK    2  A    between atoms: C_3  and  C_33
REMARK    3  A    between atoms: N_9  and  C_24
REMARK    4  A    between atoms: N_15  and  C_18
REMARK    5  A    between atoms: C_18  and  C_19
REMARK    6  A    between atoms: N_21  and  C_22
REMARK    7  A    between atoms: N_21  and  C_23
REMARK    8  A    between atoms: C_24  and  C_25
REMARK                            x       y       z     vdW  Elec       q    Type
REMARK                         _______ _______ _______ _____ _____    ______ ____
ROOT
ATOM      1  C   UNL     1       0.005   1.464  -0.042  0.00  0.00    +0.045 C 
ATOM      2  C   UNL     1       0.074  -0.042  -0.024  0.00  0.00    -0.026 A 
ATOM      3  C   UNL     1       0.161  -0.731  -1.171  0.00  0.00    -0.008 A 
ATOM      4  S   UNL     1       0.214  -2.429  -0.631  0.00  0.00    -0.073 S 
ATOM      5  C   UNL     1       0.117  -2.164   1.121  0.00  0.00    +0.117 A 
ATOM      6  C   UNL     1       0.053  -0.763   1.237  0.00  0.00    +0.075 A 
ATOM      7  C   UNL     1      -0.029  -0.253   2.571  0.00  0.00    +0.264 A 
ATOM      8  O   UNL     1      -0.093   0.948   2.770  0.00  0.00    -0.267 OA
ATOM      9  N   UNL     1      -0.034  -1.116   3.603  0.00  0.00    -0.271 N 
ATOM     10  C   UNL     1       0.038  -2.462   3.400  0.00  0.00    +0.202 A 
ATOM     11  N   UNL     1       0.103  -2.960   2.183  0.00  0.00    -0.208 NA
ATOM     12  N   UNL     1       0.031  -3.311   4.479  0.00  0.00    -0.304 N 
ATOM     13  C   UNL     1       1.285  -3.707   5.138  0.00  0.00    +0.089 C 
ATOM     14  C   UNL     1       1.305  -5.234   5.266  0.00  0.00    -0.059 C 
ATOM     15  N   UNL     1       0.089  -5.682   5.957  0.00  0.00    +0.387 N 
ATOM     16  C   UNL     1      -1.092  -5.370   5.144  0.00  0.00    -0.059 C 
ATOM     17  C   UNL     1      -1.232  -3.845   5.013  0.00  0.00    +0.089 C 
ATOM     18  C   UNL     1       0.203  -0.197  -2.580  0.00  0.00    +0.052 C 
ATOM     19  H   UNL     1       0.017  -5.213   6.847  0.00  0.00    -0.081 HD
ENDROOT
BRANCH  15  20
ATOM     20  C   UNL     1       0.160  -7.133   6.177  0.00  0.00    +0.019 C 
BRANCH  20  21
ATOM     21  C   UNL     1      -1.027  -7.576   6.993  0.00  0.00    +0.199 C 
ATOM     22  O   UNL     1      -1.851  -6.763   7.356  0.00  0.00    -0.278 OA
ATOM     23  N   UNL     1      -1.173  -8.875   7.320  0.00  0.00    -0.309 N 
ATOM     24  C   UNL     1      -2.327  -9.306   8.113  0.00  0.00    +0.131 C 
ATOM     25  C   UNL     1      -0.178  -9.857   6.882  0.00  0.00    +0.131 C 
ENDBRANCH  20  21
ENDBRANCH  15  20
BRANCH   9  26
ATOM     26  C   UNL     1      -0.117  -0.599   4.972  0.00  0.00    +0.224 C 
BRANCH  26  27
ATOM     27  C   UNL     1      -1.563  -0.400   5.346  0.00  0.00    +0.236 C 
ATOM     28  O   UNL     1      -2.438  -0.664   4.549  0.00  0.00    -0.274 OA
ATOM     29  N   UNL     1      -1.884   0.071   6.567  0.00  0.00    -0.300 N 
ATOM     30  C   UNL     1      -0.836   0.401   7.542  0.00  0.00    +0.108 C 
ATOM     31  C   UNL     1      -1.047   1.839   8.026  0.00  0.00    +0.019 C 
ATOM     32  C   UNL     1      -2.473   1.988   8.562  0.00  0.00    +0.003 C 
ATOM     33  C   UNL     1      -3.474   1.704   7.440  0.00  0.00    +0.019 C 
ATOM     34  C   UNL     1      -3.290   0.271   6.947  0.00  0.00    +0.108 C 
ENDBRANCH  26  27
ENDBRANCH   9  26
TORSDOF 4
