REMARK  Name = ZINC62411810
REMARK  11 active torsions:
REMARK  status: ('A' for Active; 'I' for Inactive)
REMARK    1  A    between atoms: C_1  and  C_2
REMARK    2  A    between atoms: C_2  and  C_3
REMARK    3  A    between atoms: C_3  and  C_4
REMARK    4  A    between atoms: C_3  and  N_5
REMARK    5  A    between atoms: C_6  and  C_8
REMARK    6  A    between atoms: C_8  and  C_9
REMARK    7  A    between atoms: C_8  and  N_10
REMARK    8  A    between atoms: N_13  and  C_14
REMARK    9  A    between atoms: C_17  and  C_21
REMARK   10  A    between atoms: C_19  and  C_20
REMARK   11  A    between atoms: N_23  and  C_24
REMARK                            x       y       z     vdW  Elec       q    Type
REMARK                         _______ _______ _______ _____ _____    ______ ____
ROOT
ATOM      1  N   UNL     1      -5.656   0.963   2.448  0.00  0.00    -0.288 N 
ATOM      2  C   UNL     1      -6.487   0.793   3.495  0.00  0.00    +0.304 C 
ATOM      3  O   UNL     1      -6.139   1.136   4.609  0.00  0.00    -0.252 OA
ATOM      4  N   UNL     1      -7.703   0.243   3.308  0.00  0.00    -0.269 N 
ATOM      5  H   UNL     1      -5.933   0.689   1.559  0.00  0.00    +0.151 HD
ATOM      6  H   UNL     1      -8.013   0.045   2.410  0.00  0.00    +0.156 HD
ENDROOT
BRANCH   4   7
ATOM      7  C   UNL     1      -8.516  -0.041   4.405  0.00  0.00    +0.038 A 
ATOM      8  C   UNL     1      -7.945  -0.258   5.655  0.00  0.00    +0.024 A 
ATOM      9  C   UNL     1      -8.744  -0.539   6.739  0.00  0.00    +0.015 A 
ATOM     10  C   UNL     1     -10.132  -0.604   6.584  0.00  0.00    +0.037 A 
ATOM     11  C   UNL     1     -10.703  -0.384   5.328  0.00  0.00    +0.018 A 
ATOM     12  C   UNL     1      -9.897  -0.100   4.248  0.00  0.00    -0.028 A 
ATOM     13  C   UNL     1     -10.512   0.143   2.894  0.00  0.00    +0.045 C 
BRANCH  10  14
ATOM     14  C   UNL     1     -10.992  -0.905   7.745  0.00  0.00    +0.244 C 
ATOM     15  O   UNL     1     -12.199  -0.961   7.609  0.00  0.00    -0.270 OA
ATOM     16  N   UNL     1     -10.440  -1.117   8.956  0.00  0.00    -0.308 N 
ATOM     17  H   UNL     1      -9.477  -1.072   9.065  0.00  0.00    +0.149 HD
BRANCH  16  18
ATOM     18  C   UNL     1     -11.294  -1.415  10.108  0.00  0.00    +0.073 C 
ATOM     19  C   UNL     1     -11.746  -0.104  10.785  0.00  0.00    +0.022 C 
ATOM     20  C   UNL     1     -11.742  -0.437  12.298  0.00  0.00    +0.002 C 
ATOM     21  C   UNL     1     -10.495  -1.344  12.445  0.00  0.00    +0.002 C 
ATOM     22  C   UNL     1     -10.499  -2.203  11.164  0.00  0.00    +0.022 C 
ENDBRANCH  16  18
ENDBRANCH  10  14
ENDBRANCH   4   7
BRANCH   1  23
ATOM     23  C   UNL     1      -4.334   1.561   2.651  0.00  0.00    +0.157 C 
ATOM     24  C   UNL     1      -4.453   3.086   2.616  0.00  0.00    +0.038 C 
BRANCH  23  26
ATOM     25  N   UNL     1      -2.124   1.530   1.540  0.00  0.00    -0.311 N 
ATOM     26  C   UNL     1      -3.403   1.104   1.558  0.00  0.00    +0.233 C 
ATOM     27  O   UNL     1      -3.804   0.353   0.694  0.00  0.00    -0.274 OA
ATOM     28  H   UNL     1      -1.803   2.131   2.231  0.00  0.00    +0.149 HD
BRANCH  25  29
ATOM     29  C   UNL     1      -1.219   1.086   0.477  0.00  0.00    +0.070 C 
ATOM     30  C   UNL     1      -0.609  -0.265   0.857  0.00  0.00    +0.028 C 
BRANCH  29  32
ATOM     31  C   UNL     1      -0.700   3.433  -0.206  0.00  0.00    +0.005 C 
ATOM     32  C   UNL     1      -0.102   2.116   0.295  0.00  0.00    +0.018 C 
ENDBRANCH  29  32
ENDBRANCH  25  29
ENDBRANCH  23  26
ENDBRANCH   1  23
TORSDOF 7
