REMARK  Name = ZINC09665715
REMARK  11 active torsions:
REMARK  status: ('A' for Active; 'I' for Inactive)
REMARK    1  A    between atoms: C_1  and  C_2
REMARK    2  A    between atoms: C_5  and  C_32
REMARK    3  A    between atoms: C_5  and  C_33
REMARK    4  A    between atoms: N_11  and  C_15
REMARK    5  A    between atoms: C_15  and  N_65
REMARK    6  A    between atoms: C_16  and  C_17
REMARK    7  A    between atoms: C_16  and  N_65
REMARK    8  A    between atoms: C_20  and  C_22
REMARK    9  A    between atoms: C_29  and  C_30
REMARK   10  A    between atoms: C_29  and  C_31
REMARK   11  A    between atoms: C_29  and  N_65
REMARK                            x       y       z     vdW  Elec       q    Type
REMARK                         _______ _______ _______ _____ _____    ______ ____
ROOT
ATOM      1  N   UNL     1      -4.780  -3.142  -2.174  0.00  0.00    +0.398 N 
ATOM      2  H   UNL     1      -4.599  -2.166  -1.910  0.00  0.00    -0.078 HD
ENDROOT
BRANCH   1   3
ATOM      3  C   UNL     1      -6.205  -3.449  -1.931  0.00  0.00    -0.072 C 
ATOM      4  C   UNL     1      -6.458  -4.953  -2.051  0.00  0.00    -0.013 C 
ATOM      5  C   UNL     1      -6.576  -2.981  -0.522  0.00  0.00    -0.013 C 
ENDBRANCH   1   3
BRANCH   1   6
ATOM      6  C   UNL     1      -3.925  -4.027  -1.355  0.00  0.00    +0.044 C 
BRANCH   6  16
ATOM      7  C   UNL     1       0.592   1.420  -0.941  0.00  0.00    +0.007 C 
ATOM      8  C   UNL     1       0.501  -0.076  -0.633  0.00  0.00    -0.011 C 
ATOM      9  C   UNL     1       1.210  -0.369   0.690  0.00  0.00    +0.009 C 
ATOM     10  C   UNL     1       1.129  -1.867   0.993  0.00  0.00    -0.032 C 
ATOM     11  C   UNL     1      -0.339  -2.284   1.108  0.00  0.00    +0.041 C 
ATOM     12  C   UNL     1      -1.063  -1.972  -0.197  0.00  0.00    +0.113 C 
ATOM     13  C   UNL     1      -0.970  -0.486  -0.524  0.00  0.00    +0.038 C 
ATOM     14  C   UNL     1      -2.510  -2.402  -0.112  0.00  0.00    +0.245 C 
ATOM     15  O   UNL     1      -3.352  -1.998   0.660  0.00  0.00    -0.273 OA
ATOM     16  N   UNL     1      -2.666  -3.333  -1.077  0.00  0.00    -0.241 N 
ATOM     17  C   UNL     1      -1.527  -3.543  -1.748  0.00  0.00    +0.308 C 
ATOM     18  O   UNL     1      -1.418  -4.336  -2.663  0.00  0.00    -0.252 OA
ATOM     19  N   UNL     1      -0.515  -2.777  -1.296  0.00  0.00    -0.285 N 
ATOM     20  C   UNL     1       1.795  -2.652  -0.139  0.00  0.00    +0.011 C 
ATOM     21  C   UNL     1       1.848  -2.161   2.311  0.00  0.00    +0.011 C 
ATOM     22  H   UNL     1       0.395  -2.761  -1.629  0.00  0.00    +0.151 HD
ENDBRANCH   6  16
ENDBRANCH   1   6
BRANCH   1  23
ATOM     23  C   UNL     1      -4.463  -3.318  -3.607  0.00  0.00    +0.023 C 
BRANCH  23  24
ATOM     24  C   UNL     1      -5.183  -2.257  -4.398  0.00  0.00    +0.202 A 
ATOM     25  N   UNL     1      -4.730  -1.067  -4.680  0.00  0.00    -0.114 NA
ATOM     26  N   UNL     1      -5.605  -0.427  -5.373  0.00  0.00    -0.107 NA
ATOM     27  C   UNL     1      -6.658  -1.190  -5.552  0.00  0.00    +0.248 A 
ATOM     28  O   UNL     1      -6.410  -2.364  -4.937  0.00  0.00    -0.422 OA
BRANCH  27  29
ATOM     29  C   UNL     1      -7.887  -0.829  -6.289  0.00  0.00    +0.039 A 
ATOM     30  C   UNL     1      -8.931  -1.748  -6.403  0.00  0.00    +0.014 A 
ATOM     31  C   UNL     1     -10.078  -1.404  -7.087  0.00  0.00    +0.021 A 
ATOM     32  C   UNL     1     -10.191  -0.153  -7.670  0.00  0.00    +0.041 A 
ATOM     33  C   UNL     1      -9.156   0.762  -7.565  0.00  0.00    +0.021 A 
ATOM     34  C   UNL     1      -8.006   0.431  -6.878  0.00  0.00    +0.014 A 
ATOM     35 CL   UNL     1     -11.634   0.271  -8.537  0.00  0.00    -0.084 Cl
ENDBRANCH  27  29
ENDBRANCH  23  24
ENDBRANCH   1  23
TORSDOF 6
