REMARK  Name = ZINC64409187
REMARK  5 active torsions:
REMARK  status: ('A' for Active; 'I' for Inactive)
REMARK    1  A    between atoms: C_6  and  C_10
REMARK    2  A    between atoms: C_10  and  C_11
REMARK    3  A    between atoms: C_11  and  N_12
REMARK    4  A    between atoms: C_13  and  C_15
REMARK    5  A    between atoms: N_24  and  C_25
REMARK                            x       y       z     vdW  Elec       q    Type
REMARK                         _______ _______ _______ _____ _____    ______ ____
ROOT
ATOM      1  N   UNL     1       3.466  -4.918  -2.499  0.00  0.00    -0.314 N 
ATOM      2  C   UNL     1       3.122  -6.204  -2.705  0.00  0.00    +0.236 C 
ATOM      3  O   UNL     1       2.439  -6.787  -1.890  0.00  0.00    -0.274 OA
ATOM      4  H   UNL     1       4.012  -4.451  -3.151  0.00  0.00    +0.149 HD
ENDROOT
BRANCH   2   5
ATOM      5  C   UNL     1       3.584  -6.918  -3.949  0.00  0.00    +0.187 C 
ATOM      6  C   UNL     1       5.008  -7.442  -3.774  0.00  0.00    +0.066 C 
ATOM      7  C   UNL     1       6.018  -6.845  -4.768  0.00  0.00    +0.012 C 
ATOM      8  C   UNL     1       7.086  -7.964  -4.877  0.00  0.00    +0.007 C 
ATOM      9  C   UNL     1       6.369  -9.273  -4.471  0.00  0.00    +0.053 C 
ATOM     10  C   UNL     1       4.913  -8.902  -4.218  0.00  0.00    +0.042 C 
ATOM     11  N   UNL     1       3.696  -9.214  -4.337  0.00  0.00    -0.192 NA
ATOM     12  N   UNL     1       2.802  -8.151  -4.166  0.00  0.00    -0.238 N 
BRANCH  12  13
ATOM     13  C   UNL     1       1.340  -8.244  -4.195  0.00  0.00    +0.116 C 
ATOM     14  C   UNL     1       0.860  -9.226  -3.113  0.00  0.00    +0.048 C 
ATOM     15  C   UNL     1      -0.630  -9.575  -3.340  0.00  0.00    +0.168 C 
ATOM     16  S   UNL     1      -0.820  -9.371  -5.158  0.00  0.00    -0.029 S 
ATOM     17  O   UNL     1      -1.026 -10.648  -5.747  0.00  0.00    -0.174 OA
ATOM     18  O   UNL     1      -1.749  -8.326  -5.412  0.00  0.00    -0.174 OA
ATOM     19  C   UNL     1       0.875  -8.784  -5.578  0.00  0.00    +0.190 C 
ENDBRANCH  12  13
ENDBRANCH   2   5
BRANCH   1  20
ATOM     20  C   UNL     1       3.016  -4.223  -1.290  0.00  0.00    +0.108 C 
BRANCH  20  21
ATOM     21  C   UNL     1       3.542  -2.787  -1.302  0.00  0.00    +0.065 C 
BRANCH  21  27
ATOM     22  C   UNL     1      -0.016   1.344   0.009  0.00  0.00    +0.002 A 
ATOM     23  C   UNL     1       1.158   2.118   0.002  0.00  0.00    +0.002 A 
ATOM     24  C   UNL     1       2.389   1.570  -0.013  0.00  0.00    +0.027 A 
ATOM     25  C   UNL     1       2.533   0.108  -0.022  0.00  0.00    +0.060 A 
ATOM     26  N   UNL     1       3.569  -0.680  -0.036  0.00  0.00    -0.363 N 
ATOM     27  C   UNL     1       3.071  -2.062  -0.039  0.00  0.00    +0.175 C 
ATOM     28  N   UNL     1       1.606  -1.974  -0.024  0.00  0.00    -0.363 N 
ATOM     29  C   UNL     1       1.290  -0.712  -0.014  0.00  0.00    +0.060 A 
ATOM     30  C   UNL     1       0.002  -0.004   0.002  0.00  0.00    +0.027 A 
ATOM     31  H   UNL     1       4.499  -0.405  -0.045  0.00  0.00    +0.162 HD
ATOM     32  H   UNL     1       0.987  -2.721  -0.022  0.00  0.00    +0.162 HD
ENDBRANCH  21  27
ENDBRANCH  20  21
ENDBRANCH   1  20
TORSDOF 5
