REMARK  Name = ZINC06193609
REMARK  11 active torsions:
REMARK  status: ('A' for Active; 'I' for Inactive)
REMARK    1  A    between atoms: C_1  and  C_2
REMARK    2  A    between atoms: C_2  and  N_67
REMARK    3  A    between atoms: C_3  and  C_4
REMARK    4  A    between atoms: C_3  and  N_67
REMARK    5  A    between atoms: C_10  and  C_12
REMARK    6  A    between atoms: C_10  and  C_26
REMARK    7  A    between atoms: C_10  and  N_67
REMARK    8  A    between atoms: C_16  and  C_25
REMARK    9  A    between atoms: C_18  and  C_24
REMARK   10  A    between atoms: N_30  and  C_31
REMARK   11  A    between atoms: C_31  and  C_32
REMARK                            x       y       z     vdW  Elec       q    Type
REMARK                         _______ _______ _______ _____ _____    ______ ____
ROOT
ATOM      1  C   UNL     1      -1.899   0.787   1.469  0.00  0.00    +0.039 C 
ENDROOT
BRANCH   1   2
ATOM      2  C   UNL     1      -2.725   1.254   2.640  0.00  0.00    +0.011 A 
ATOM      3  C   UNL     1      -2.988   0.404   3.663  0.00  0.00    +0.017 A 
ATOM      4  C   UNL     1      -3.793   0.888   4.786  0.00  0.00    -0.001 A 
ATOM      5  C   UNL     1      -4.097   0.058   5.870  0.00  0.00    +0.013 A 
ATOM      6  C   UNL     1      -4.850   0.540   6.902  0.00  0.00    -0.050 A 
ATOM      7  C   UNL     1      -5.318   1.847   6.885  0.00  0.00    +0.008 A 
ATOM      8  C   UNL     1      -5.031   2.683   5.827  0.00  0.00    -0.026 A 
ATOM      9  C   UNL     1      -4.265   2.214   4.765  0.00  0.00    +0.052 A 
ATOM     10  N   UNL     1      -3.963   3.028   3.694  0.00  0.00    -0.322 N 
ATOM     11  H   UNL     1      -4.303   3.968   3.679  0.00  0.00    +0.169 HD
ATOM     12  C   UNL     1      -3.218   2.576   2.670  0.00  0.00    +0.251 A 
ATOM     13  O   UNL     1      -2.966   3.325   1.742  0.00  0.00    -0.268 OA
ATOM     14  C   UNL     1      -5.544   4.100   5.822  0.00  0.00    +0.046 C 
ATOM     15  C   UNL     1      -5.178  -0.355   8.069  0.00  0.00    +0.044 C 
ENDBRANCH   1   2
BRANCH   1  16
ATOM     16  C   UNL     1      -2.749   0.782   0.225  0.00  0.00    +0.143 A 
ATOM     17  N   UNL     1      -3.093   1.823  -0.492  0.00  0.00    -0.115 NA
ATOM     18  N   UNL     1      -3.820   1.409  -1.473  0.00  0.00    -0.023 NA
ATOM     19  N   UNL     1      -3.948   0.130  -1.399  0.00  0.00    -0.044 NA
ATOM     20  N   UNL     1      -3.297  -0.294  -0.369  0.00  0.00    -0.228 N 
BRANCH  20  21
ATOM     21  C   UNL     1      -3.181  -1.686   0.074  0.00  0.00    +0.178 C 
BRANCH  21  22
ATOM     22  C   UNL     1      -4.325  -2.013   1.036  0.00  0.00    +0.140 C 
ATOM     23  C   UNL     1      -4.146  -3.440   1.597  0.00  0.00    +0.035 C 
ATOM     24  C   UNL     1      -5.606  -3.970   1.620  0.00  0.00    +0.031 C 
ATOM     25  C   UNL     1      -6.192  -3.273   0.367  0.00  0.00    +0.160 C 
ATOM     26  O   UNL     1      -5.574  -1.976   0.336  0.00  0.00    -0.375 OA
ENDBRANCH  21  22
ENDBRANCH  20  21
ENDBRANCH   1  16
BRANCH   1  27
ATOM     27  N   UNL     1      -0.771   1.722   1.277  0.00  0.00    +0.392 N 
ATOM     28  H   UNL     1      -1.142   2.671   1.149  0.00  0.00    -0.080 HD
BRANCH  27  30
ATOM     29  C   UNL     1       0.553  -0.076   0.217  0.00  0.00    -0.017 C 
ATOM     30  C   UNL     1       0.000   1.343   0.074  0.00  0.00    -0.080 C 
ENDBRANCH  27  30
BRANCH  27  31
ATOM     31  C   UNL     1       0.107   1.706   2.466  0.00  0.00    -0.042 C 
BRANCH  31  32
ATOM     32  C   UNL     1       1.116   2.819   2.340  0.00  0.00    -0.064 A 
ATOM     33  C   UNL     1       2.338   2.579   1.740  0.00  0.00    +0.002 A 
ATOM     34  C   UNL     1       3.262   3.600   1.620  0.00  0.00    +0.000 A 
ATOM     35  C   UNL     1       2.968   4.859   2.110  0.00  0.00    +0.000 A 
ATOM     36  C   UNL     1       1.748   5.098   2.715  0.00  0.00    +0.000 A 
ATOM     37  C   UNL     1       0.822   4.077   2.830  0.00  0.00    +0.002 A 
ENDBRANCH  31  32
ENDBRANCH  27  31
ENDBRANCH   1  27
TORSDOF 8
