REMARK  Name = ZINC12722939
REMARK  8 active torsions:
REMARK  status: ('A' for Active; 'I' for Inactive)
REMARK    1  A    between atoms: C_1  and  C_2
REMARK    2  A    between atoms: C_2  and  C_4
REMARK    3  A    between atoms: C_2  and  N_7
REMARK    4  A    between atoms: C_4  and  O_5
REMARK    5  A    between atoms: O_5  and  C_6
REMARK    6  A    between atoms: C_17  and  S_18
REMARK    7  A    between atoms: S_18  and  C_19
REMARK    8  A    between atoms: C_19  and  C_20
REMARK                            x       y       z     vdW  Elec       q    Type
REMARK                         _______ _______ _______ _____ _____    ______ ____
ROOT
ATOM      1  C   UNL     1       4.278   4.989  -0.337  0.00  0.00    +0.153 C 
ENDROOT
BRANCH   1   2
ATOM      2  C   UNL     1       3.190   3.990  -0.040  0.00  0.00    +0.143 A 
ATOM      3  N   UNL     1       3.507   2.717   0.116  0.00  0.00    -0.216 NA
ATOM      4  C   UNL     1       2.598   1.791   0.378  0.00  0.00    +0.128 A 
ATOM      5  C   UNL     1       1.234   2.176   0.496  0.00  0.00    +0.051 A 
ATOM      6  C   UNL     1       0.068   1.332   0.782  0.00  0.00    -0.025 A 
ATOM      7  C   UNL     1      -1.128   1.951   0.837  0.00  0.00    -0.004 A 
ATOM      8  S   UNL     1      -0.783   3.663   0.527  0.00  0.00    -0.073 S 
ATOM      9  C   UNL     1       0.974   3.548   0.317  0.00  0.00    +0.114 A 
ATOM     10  N   UNL     1       1.942   4.406   0.057  0.00  0.00    -0.224 NA
ATOM     11  C   UNL     1      -2.469   1.334   1.091  0.00  0.00    +0.043 C 
ATOM     12  C   UNL     1      -2.385   0.425   2.324  0.00  0.00    +0.005 C 
ATOM     13  C   UNL     1      -1.996  -0.976   1.861  0.00  0.00    +0.001 C 
ATOM     14  C   UNL     1      -1.075  -0.887   0.646  0.00  0.00    +0.005 C 
ATOM     15  C   UNL     1       0.219  -0.170   1.009  0.00  0.00    +0.037 C 
ATOM     16  N   UNL     1       2.970   0.468   0.534  0.00  0.00    -0.343 N 
ATOM     17  H   UNL     1       3.770   0.134   0.099  0.00  0.00    +0.144 HD
ATOM     18  H   UNL     1       2.430  -0.126   1.079  0.00  0.00    +0.144 HD
ENDBRANCH   1   2
BRANCH   1  19
ATOM     19  S   UNL     1       4.496   5.130  -2.128  0.00  0.00    -0.080 S 
BRANCH  19  30
ATOM     20  N   UNL     1       6.261   6.716  -3.406  0.00  0.00    -0.282 N 
ATOM     21  C   UNL     1       7.249   7.637  -3.497  0.00  0.00    +0.263 A 
ATOM     22  O   UNL     1       7.678   7.998  -4.578  0.00  0.00    -0.267 OA
ATOM     23  C   UNL     1       7.788   8.180  -2.243  0.00  0.00    +0.065 A 
ATOM     24  C   UNL     1       8.810   9.128  -2.230  0.00  0.00    +0.015 A 
ATOM     25  C   UNL     1       9.276   9.601  -1.034  0.00  0.00    +0.001 A 
ATOM     26  C   UNL     1       8.741   9.146   0.165  0.00  0.00    +0.002 A 
ATOM     27  C   UNL     1       7.739   8.217   0.181  0.00  0.00    +0.028 A 
ATOM     28  C   UNL     1       7.242   7.715  -1.025  0.00  0.00    +0.079 A 
ATOM     29  N   UNL     1       6.255   6.798  -1.055  0.00  0.00    -0.223 NA
ATOM     30  C   UNL     1       5.789   6.327  -2.185  0.00  0.00    +0.173 A 
BRANCH  20  32
ATOM     31  C   UNL     1       6.815   5.574  -5.497  0.00  0.00    +0.033 C 
ATOM     32  C   UNL     1       5.691   6.138  -4.625  0.00  0.00    +0.115 C 
BRANCH  32  33
ATOM     33  C   UNL     1       4.939   7.222  -5.401  0.00  0.00    +0.184 C 
BRANCH  33  34
ATOM     34  O   UNL     1       5.868   8.198  -5.876  0.00  0.00    -0.381 OA
ATOM     35  C   UNL     1       5.265   9.261  -6.618  0.00  0.00    +0.194 C 
ENDBRANCH  33  34
ENDBRANCH  32  33
ENDBRANCH  20  32
ENDBRANCH  19  30
ENDBRANCH   1  19
TORSDOF 6
