REMARK  Name = ZINC39666634
REMARK  7 active torsions:
REMARK  status: ('A' for Active; 'I' for Inactive)
REMARK    1  A    between atoms: C_1  and  C_2
REMARK    2  A    between atoms: C_2  and  C_4
REMARK    3  A    between atoms: C_2  and  O_31
REMARK    4  A    between atoms: C_4  and  N_5
REMARK    5  A    between atoms: C_6  and  C_8
REMARK    6  A    between atoms: C_19  and  C_21
REMARK    7  A    between atoms: O_31  and  C_32
REMARK                            x       y       z     vdW  Elec       q    Type
REMARK                         _______ _______ _______ _____ _____    ______ ____
ROOT
ATOM      1  C   UNL     1      -4.024  -5.420  -0.802  0.00  0.00    +0.100 C 
ATOM      2  C   UNL     1      -3.586  -6.148  -2.092  0.00  0.00    +0.121 C 
ATOM      3  N   UNL     1      -4.744  -6.999  -2.454  0.00  0.00    -0.295 N 
ATOM      4  C   UNL     1      -5.927  -6.157  -2.155  0.00  0.00    +0.115 C 
ATOM      5  C   UNL     1      -5.561  -5.427  -0.847  0.00  0.00    -0.004 C 
ATOM      6  C   UNL     1      -6.096  -3.998  -0.874  0.00  0.00    -0.010 C 
ATOM      7  C   UNL     1      -7.627  -4.031  -0.860  0.00  0.00    -0.082 C 
ATOM      8  N   UNL     1      -8.092  -4.726   0.346  0.00  0.00    +0.379 N 
ATOM      9  C   UNL     1      -7.652  -6.126   0.318  0.00  0.00    -0.082 C 
ATOM     10  C   UNL     1      -6.122  -6.182   0.354  0.00  0.00    -0.010 C 
ATOM     11  C   UNL     1      -4.726  -8.255  -2.943  0.00  0.00    +0.265 C 
ATOM     12  O   UNL     1      -5.764  -8.795  -3.268  0.00  0.00    -0.268 OA
ATOM     13  H   UNL     1      -7.712  -4.271   1.163  0.00  0.00    -0.086 HD
ATOM     14  H   UNL     1      -9.100  -4.693   0.384  0.00  0.00    -0.086 HD
ENDROOT
BRANCH  11  15
ATOM     15  C   UNL     1      -3.438  -8.976  -3.086  0.00  0.00    +0.126 A 
ATOM     16  C   UNL     1      -3.447 -10.323  -3.477  0.00  0.00    +0.033 A 
ATOM     17  C   UNL     1      -2.269 -10.999  -3.612  0.00  0.00    +0.012 A 
ATOM     18  C   UNL     1      -1.071 -10.308  -3.350  0.00  0.00    +0.000 A 
ATOM     19  C   UNL     1       0.177 -10.941  -3.470  0.00  0.00    +0.010 A 
ATOM     20  C   UNL     1       1.315 -10.240  -3.209  0.00  0.00    +0.001 A 
ATOM     21  C   UNL     1       1.259  -8.902  -2.823  0.00  0.00    +0.002 A 
ATOM     22  C   UNL     1       0.069  -8.256  -2.697  0.00  0.00    +0.028 A 
ATOM     23  C   UNL     1      -1.131  -8.945  -2.958  0.00  0.00    +0.072 A 
ATOM     24  N   UNL     1      -2.311  -8.335  -2.847  0.00  0.00    -0.242 NA
ENDBRANCH  11  15
BRANCH   1  26
ATOM     25  N   UNL     1      -3.239  -3.390   0.373  0.00  0.00    -0.312 N 
ATOM     26  C   UNL     1      -3.506  -4.005  -0.796  0.00  0.00    +0.218 C 
ATOM     27  O   UNL     1      -3.329  -3.420  -1.844  0.00  0.00    -0.275 OA
ATOM     28  H   UNL     1      -3.381  -3.858   1.211  0.00  0.00    +0.149 HD
BRANCH  25  29
ATOM     29  C   UNL     1      -2.735  -2.014   0.378  0.00  0.00    +0.148 C 
BRANCH  29  31
ATOM     30  C   UNL     1      -1.990  -0.120   1.828  0.00  0.00    +0.053 C 
ATOM     31  C   UNL     1      -2.517  -1.557   1.822  0.00  0.00    +0.187 C 
BRANCH  31  32
ATOM     32  O   UNL     1      -3.755  -1.613   2.532  0.00  0.00    -0.486 OA
BRANCH  32  33
ATOM     33  C   UNL     1      -3.686  -1.756   3.882  0.00  0.00    +0.139 A 
ATOM     34  C   UNL     1      -2.456  -1.728   4.522  0.00  0.00    +0.047 A 
ATOM     35  C   UNL     1      -2.388  -1.873   5.894  0.00  0.00    +0.004 A 
ATOM     36  C   UNL     1      -3.546  -2.048   6.630  0.00  0.00    +0.002 A 
ATOM     37  C   UNL     1      -4.774  -2.077   5.996  0.00  0.00    +0.023 A 
ATOM     38  C   UNL     1      -4.847  -1.926   4.624  0.00  0.00    +0.083 A 
ATOM     39 CL   UNL     1      -6.390  -1.955   3.828  0.00  0.00    -0.080 Cl
ENDBRANCH  32  33
ENDBRANCH  31  32
ENDBRANCH  29  31
ENDBRANCH  25  29
ENDBRANCH   1  26
TORSDOF 6
