REMARK  Name = ZINC37576970
REMARK  17 active torsions:
REMARK  status: ('A' for Active; 'I' for Inactive)
REMARK    1  A    between atoms: C_1  and  C_2
REMARK    2  A    between atoms: C_2  and  C_3
REMARK    3  A    between atoms: C_3  and  C_5
REMARK    4  A    between atoms: C_3  and  N_6
REMARK    5  A    between atoms: N_6  and  C_7
REMARK    6  A    between atoms: C_7  and  C_8
REMARK    7  A    between atoms: C_8  and  C_9
REMARK    8  A    between atoms: N_11  and  C_12
REMARK    9  A    between atoms: C_12  and  C_13
REMARK   10  A    between atoms: C_13  and  N_14
REMARK   11  A    between atoms: N_14  and  C_15
REMARK   12  A    between atoms: N_14  and  C_17
REMARK   13  A    between atoms: C_15  and  C_16
REMARK   14  A    between atoms: C_17  and  C_18
REMARK   15  A    between atoms: C_19  and  C_21
REMARK   16  A    between atoms: N_29  and  C_32
REMARK   17  A    between atoms: C_32  and  C_33
REMARK                            x       y       z     vdW  Elec       q    Type
REMARK                         _______ _______ _______ _____ _____    ______ ____
ROOT
ATOM      1  N   UNL     1       2.558   0.221  -1.800  0.00  0.00    -0.293 N 
ATOM      2  C   UNL     1       3.492  -0.057  -0.869  0.00  0.00    +0.267 C 
ATOM      3  O   UNL     1       3.308  -0.955  -0.072  0.00  0.00    -0.268 OA
ENDROOT
BRANCH   2   4
ATOM      4  C   UNL     1       4.741   0.731  -0.818  0.00  0.00    +0.148 A 
ATOM      5  C   UNL     1       5.854   0.481   0.017  0.00  0.00    +0.067 A 
ATOM      6  C   UNL     1       6.746   1.453  -0.288  0.00  0.00    +0.124 A 
ATOM      7  N   UNL     1       6.189   2.248  -1.256  0.00  0.00    -0.258 N 
ATOM      8  N   UNL     1       5.025   1.796  -1.549  0.00  0.00    -0.166 NA
ATOM      9  C   UNL     1       6.866   3.416  -1.824  0.00  0.00    +0.146 C 
ATOM     10  C   UNL     1       6.928   4.544  -0.787  0.00  0.00    +0.042 C 
ATOM     11  C   UNL     1       7.293   3.970   0.581  0.00  0.00    +0.110 C 
ATOM     12  N   UNL     1       8.379   3.004   0.533  0.00  0.00    -0.292 N 
ATOM     13  C   UNL     1       8.098   1.708   0.254  0.00  0.00    +0.265 C 
ATOM     14  O   UNL     1       8.904   0.815   0.436  0.00  0.00    -0.268 OA
BRANCH  12  15
ATOM     15  C   UNL     1       9.759   3.427   0.785  0.00  0.00    +0.143 C 
BRANCH  15  16
ATOM     16  C   UNL     1      10.060   3.310   2.257  0.00  0.00    -0.030 A 
ATOM     17  C   UNL     1       9.818   4.380   3.098  0.00  0.00    +0.005 A 
ATOM     18  C   UNL     1      10.094   4.273   4.449  0.00  0.00    +0.000 A 
ATOM     19  C   UNL     1      10.612   3.096   4.957  0.00  0.00    +0.000 A 
ATOM     20  C   UNL     1      10.853   2.026   4.116  0.00  0.00    +0.000 A 
ATOM     21  C   UNL     1      10.573   2.132   2.766  0.00  0.00    +0.005 A 
ENDBRANCH  15  16
ENDBRANCH  12  15
ENDBRANCH   2   4
BRANCH   1  22
ATOM     22  C   UNL     1       1.272  -0.479  -1.778  0.00  0.00    +0.073 C 
ATOM     23  C   UNL     1       1.498  -1.969  -2.042  0.00  0.00    +0.028 C 
BRANCH  22  25
ATOM     24  C   UNL     1       0.298   1.183  -0.187  0.00  0.00    +0.005 C 
ATOM     25  C   UNL     1       0.615  -0.298  -0.408  0.00  0.00    +0.019 C 
ENDBRANCH  22  25
ENDBRANCH   1  22
BRANCH   1  26
ATOM     26  C   UNL     1       2.829   1.224  -2.833  0.00  0.00    +0.117 C 
BRANCH  26  27
ATOM     27  C   UNL     1       2.432   2.608  -2.317  0.00  0.00    +0.114 C 
BRANCH  27  28
ATOM     28  C   UNL     1       2.711   3.640  -3.380  0.00  0.00    +0.214 C 
ATOM     29  O   UNL     1       3.181   3.301  -4.445  0.00  0.00    -0.276 OA
ATOM     30  N   UNL     1       2.438   4.939  -3.146  0.00  0.00    -0.317 N 
ATOM     31  H   UNL     1       2.063   5.210  -2.294  0.00  0.00    +0.149 HD
BRANCH  30  32
ATOM     32  C   UNL     1       2.709   5.941  -4.180  0.00  0.00    +0.085 C 
BRANCH  32  33
ATOM     33  C   UNL     1       2.313   7.326  -3.663  0.00  0.00    -0.060 C 
BRANCH  33  34
ATOM     34  N   UNL     1       2.510   8.320  -4.727  0.00  0.00    +0.380 N 
ATOM     35  H   UNL     1       3.453   8.254  -5.078  0.00  0.00    -0.082 HD
BRANCH  34  36
ATOM     36  C   UNL     1       1.562   8.063  -5.819  0.00  0.00    -0.082 C 
ATOM     37  C   UNL     1       1.849   9.018  -6.979  0.00  0.00    -0.017 C 
ENDBRANCH  34  36
BRANCH  34  38
ATOM     38  C   UNL     1       2.281   9.667  -4.187  0.00  0.00    -0.082 C 
ATOM     39  C   UNL     1       3.367   9.996  -3.161  0.00  0.00    -0.017 C 
ENDBRANCH  34  38
ENDBRANCH  33  34
ENDBRANCH  32  33
ENDBRANCH  30  32
ENDBRANCH  27  28
ENDBRANCH  26  27
ENDBRANCH   1  26
TORSDOF 13
