REMARK  Name = ZINC49110684
REMARK  9 active torsions:
REMARK  status: ('A' for Active; 'I' for Inactive)
REMARK    1  A    between atoms: C_1  and  C_2
REMARK    2  A    between atoms: C_2  and  O_3
REMARK    3  A    between atoms: O_3  and  C_4
REMARK    4  A    between atoms: C_4  and  C_5
REMARK    5  A    between atoms: C_5  and  N_6
REMARK    6  A    between atoms: C_9  and  C_11
REMARK    7  A    between atoms: C_15  and  N_16
REMARK    8  A    between atoms: C_19  and  C_23
REMARK    9  A    between atoms: N_24  and  C_25
REMARK                            x       y       z     vdW  Elec       q    Type
REMARK                         _______ _______ _______ _____ _____    ______ ____
ROOT
ATOM      1  N   UNL     1       1.456  -3.851  -2.354  0.00  0.00    -0.256 N 
ATOM      2  C   UNL     1       2.690  -4.419  -2.537  0.00  0.00    +0.125 A 
ATOM      3  C   UNL     1       2.493  -5.575  -3.312  0.00  0.00    +0.093 A 
ATOM      4  C   UNL     1       1.109  -5.662  -3.575  0.00  0.00    +0.084 A 
ATOM      5  N   UNL     1       0.510  -4.653  -3.005  0.00  0.00    -0.174 NA
ATOM      6  C   UNL     1       0.434  -6.745  -4.375  0.00  0.00    +0.070 C 
ATOM      7  N   UNL     1       3.555  -6.324  -3.637  0.00  0.00    -0.325 N 
ATOM      8  C   UNL     1       4.764  -5.981  -3.235  0.00  0.00    +0.195 A 
ATOM      9  N   UNL     1       4.989  -4.896  -2.501  0.00  0.00    -0.199 NA
ATOM     10  C   UNL     1       3.994  -4.097  -2.135  0.00  0.00    +0.155 A 
ATOM     11  N   UNL     1       5.839  -6.781  -3.590  0.00  0.00    -0.312 N 
ATOM     12  H   UNL     1       6.735  -6.545  -3.303  0.00  0.00    +0.149 HD
ATOM     13  H   UNL     1       3.435  -7.125  -4.171  0.00  0.00    +0.169 HD
ENDROOT
BRANCH  10  14
ATOM     14  N   UNL     1       4.239  -2.969  -1.369  0.00  0.00    -0.283 N 
ATOM     15  C   UNL     1       5.518  -2.728  -0.874  0.00  0.00    +0.124 A 
ATOM     16  C   UNL     1       6.433  -3.772  -0.793  0.00  0.00    +0.047 A 
ATOM     17  C   UNL     1       7.700  -3.519  -0.299  0.00  0.00    -0.046 A 
ATOM     18  C   UNL     1       8.010  -2.226   0.100  0.00  0.00    +0.023 A 
ATOM     19  C   UNL     1       7.052  -1.237  -0.008  0.00  0.00    +0.113 A 
ATOM     20  N   UNL     1       5.853  -1.507  -0.489  0.00  0.00    -0.240 NA
ATOM     21  C   UNL     1       8.721  -4.623  -0.195  0.00  0.00    +0.044 C 
ATOM     22  H   UNL     1       3.520  -2.346  -1.179  0.00  0.00    +0.155 HD
ENDBRANCH  10  14
BRANCH  11  23
ATOM     23  C   UNL     1       5.621  -7.983  -4.398  0.00  0.00    +0.077 C 
ATOM     24  C   UNL     1       5.253  -9.156  -3.483  0.00  0.00    +0.050 C 
ATOM     25  C   UNL     1       5.105 -10.424  -4.327  0.00  0.00    +0.161 C 
ATOM     26  O   UNL     1       6.323 -10.670  -5.033  0.00  0.00    -0.380 OA
ATOM     27  C   UNL     1       6.693  -9.629  -5.939  0.00  0.00    +0.161 C 
ATOM     28  C   UNL     1       6.905  -8.328  -5.160  0.00  0.00    +0.050 C 
ENDBRANCH  11  23
BRANCH   1  29
ATOM     29  C   UNL     1       1.176  -2.624  -1.604  0.00  0.00    +0.172 C 
BRANCH  29  30
ATOM     30  C   UNL     1       0.987  -2.963  -0.124  0.00  0.00    +0.183 C 
BRANCH  30  31
ATOM     31  O   UNL     1       0.713  -1.767   0.608  0.00  0.00    -0.378 OA
BRANCH  31  33
ATOM     32  C   UNL     1       0.234  -0.632   2.688  0.00  0.00    +0.034 C 
ATOM     33  C   UNL     1       0.519  -1.973   2.009  0.00  0.00    +0.156 C 
ENDBRANCH  31  33
ENDBRANCH  30  31
ENDBRANCH  29  30
ENDBRANCH   1  29
TORSDOF 6
