REMARK  Name = ZINC56541147
REMARK  9 active torsions:
REMARK  status: ('A' for Active; 'I' for Inactive)
REMARK    1  A    between atoms: C_1  and  C_2
REMARK    2  A    between atoms: C_2  and  C_3
REMARK    3  A    between atoms: C_5  and  C_8
REMARK    4  A    between atoms: C_8  and  N_9
REMARK    5  A    between atoms: N_17  and  C_18
REMARK    6  A    between atoms: C_20  and  C_26
REMARK    7  A    between atoms: C_20  and  C_27
REMARK    8  A    between atoms: C_22  and  C_24
REMARK    9  A    between atoms: C_22  and  C_25
REMARK                            x       y       z     vdW  Elec       q    Type
REMARK                         _______ _______ _______ _____ _____    ______ ____
ROOT
ATOM      1  N   UNL     1      -4.513   0.190  -3.053  0.00  0.00    -0.294 NA
ATOM      2  C   UNL     1      -3.668   1.242  -3.634  0.00  0.00    +0.104 C 
ATOM      3  C   UNL     1      -4.506   2.507  -3.845  0.00  0.00    +0.124 C 
ATOM      4  N   UNL     1      -5.693   2.155  -4.638  0.00  0.00    -0.283 N 
ATOM      5  C   UNL     1      -6.515   1.019  -4.194  0.00  0.00    +0.124 C 
ATOM      6  C   UNL     1      -5.597  -0.188  -3.969  0.00  0.00    +0.104 C 
ATOM      7  C   UNL     1      -6.019   2.853  -5.744  0.00  0.00    +0.302 C 
ATOM      8  O   UNL     1      -5.386   3.848  -6.043  0.00  0.00    -0.253 OA
ATOM      9  N   UNL     1      -7.046   2.450  -6.518  0.00  0.00    -0.296 N 
ATOM     10  H   UNL     1      -7.599   1.704  -6.239  0.00  0.00    +0.151 HD
ENDROOT
BRANCH   9  11
ATOM     11  C   UNL     1      -7.327   3.141  -7.783  0.00  0.00    +0.072 C 
ATOM     12  C   UNL     1      -8.239   4.338  -7.510  0.00  0.00    +0.009 C 
ATOM     13  C   UNL     1      -8.551   5.061  -8.820  0.00  0.00    -0.072 C 
ATOM     14  N   UNL     1      -9.097   4.161  -9.826  0.00  0.00    +0.386 N 
ATOM     15  C   UNL     1      -8.425   2.888 -10.029  0.00  0.00    -0.072 C 
ATOM     16  C   UNL     1      -8.058   2.186  -8.726  0.00  0.00    +0.009 C 
ATOM     17  C   UNL     1      -9.404   1.962 -10.789  0.00  0.00    -0.010 C 
ATOM     18  C   UNL     1      -7.180   3.039 -10.909  0.00  0.00    -0.010 C 
ATOM     19  C   UNL     1      -7.313   5.802  -9.323  0.00  0.00    -0.010 C 
ATOM     20  C   UNL     1      -9.629   6.125  -8.511  0.00  0.00    -0.010 C 
ATOM     21  H   UNL     1     -10.075   3.975  -9.592  0.00  0.00    -0.084 HD
ATOM     22  H   UNL     1      -9.125   4.658 -10.720  0.00  0.00    -0.084 HD
ENDBRANCH   9  11
BRANCH   1  23
ATOM     23  C   UNL     1      -3.710  -0.981  -2.676  0.00  0.00    +0.140 C 
BRANCH  23  26
ATOM     24  C   UNL     1      -0.786   0.269  -0.825  0.00  0.00    +0.078 A 
ATOM     25  N   UNL     1      -1.599  -0.054  -1.799  0.00  0.00    -0.248 NA
ATOM     26  C   UNL     1      -2.771  -0.608  -1.558  0.00  0.00    +0.063 A 
ATOM     27  C   UNL     1      -3.093  -0.827  -0.258  0.00  0.00    +0.071 A 
ATOM     28  S   UNL     1      -1.630  -0.203   0.553  0.00  0.00    -0.080 S 
BRANCH  24  30
ATOM     29  C   UNL     1       0.436   2.426  -0.869  0.00  0.00    +0.011 C 
ATOM     30  C   UNL     1       0.578   0.903  -0.915  0.00  0.00    +0.059 C 
ENDBRANCH  24  30
ENDBRANCH  23  26
ENDBRANCH   1  23
TORSDOF 4
