REMARK  Name = ZINC07408937
REMARK  9 active torsions:
REMARK  status: ('A' for Active; 'I' for Inactive)
REMARK    1  A    between atoms: C_1  and  C_2
REMARK    2  A    between atoms: C_3  and  C_29
REMARK    3  A    between atoms: C_4  and  C_28
REMARK    4  A    between atoms: C_5  and  S_10
REMARK    5  A    between atoms: C_6  and  C_9
REMARK    6  A    between atoms: C_7  and  C_8
REMARK    7  A    between atoms: S_10  and  N_13
REMARK    8  A    between atoms: N_13  and  N_14
REMARK    9  A    between atoms: C_15  and  C_17
REMARK                            x       y       z     vdW  Elec       q    Type
REMARK                         _______ _______ _______ _____ _____    ______ ____
ROOT
ATOM      1  N   UNL     1       0.403  -5.327   0.182  0.00  0.00    -0.108 NA
ATOM      2  H   UNL     1       0.593  -5.980  -0.509  0.00  0.00    +0.172 HD
ENDROOT
BRANCH   1   3
ATOM      3  N   UNL     1       1.270  -5.188   1.273  0.00  0.00    -0.229 N 
ATOM      4  C   UNL     1       1.578  -6.260   2.030  0.00  0.00    +0.272 C 
ATOM      5  O   UNL     1       1.104  -7.345   1.766  0.00  0.00    -0.270 OA
ATOM      6  H   UNL     1       1.649  -4.321   1.484  0.00  0.00    +0.171 HD
BRANCH   4   7
ATOM      7  C   UNL     1       2.511  -6.111   3.204  0.00  0.00    +0.297 C 
ATOM      8  C   UNL     1       3.913  -5.735   2.706  0.00  0.00    +0.283 C 
ATOM      9  O   UNL     1       4.776  -5.616   3.842  0.00  0.00    -0.484 OA
ATOM     10  C   UNL     1       4.707  -6.610   4.769  0.00  0.00    +0.162 A 
ATOM     11  C   UNL     1       5.737  -6.758   5.686  0.00  0.00    +0.049 A 
ATOM     12  C   UNL     1       5.680  -7.761   6.636  0.00  0.00    +0.004 A 
ATOM     13  C   UNL     1       4.598  -8.620   6.673  0.00  0.00    +0.004 A 
ATOM     14  C   UNL     1       3.569  -8.479   5.761  0.00  0.00    +0.049 A 
ATOM     15  C   UNL     1       3.620  -7.475   4.805  0.00  0.00    +0.163 A 
ATOM     16  O   UNL     1       2.603  -7.354   3.908  0.00  0.00    -0.472 OA
ENDBRANCH   4   7
ENDBRANCH   1   3
BRANCH   1  17
ATOM     17  S   UNL     1      -0.949  -4.376   0.073  0.00  0.00    +0.074 S 
ATOM     18  O   UNL     1      -1.661  -4.540   1.292  0.00  0.00    -0.152 OA
ATOM     19  O   UNL     1      -1.534  -4.646  -1.193  0.00  0.00    -0.152 OA
BRANCH  17  24
ATOM     20  C   UNL     1       0.918   1.360  -0.077  0.00  0.00    +0.044 C 
ATOM     21  C   UNL     1       0.451  -0.072  -0.040  0.00  0.00    -0.044 A 
ATOM     22  C   UNL     1       0.139  -0.666   1.169  0.00  0.00    -0.043 A 
ATOM     23  C   UNL     1      -0.289  -1.980   1.203  0.00  0.00    -0.021 A 
ATOM     24  C   UNL     1      -0.405  -2.700   0.029  0.00  0.00    +0.113 A 
ATOM     25  C   UNL     1      -0.093  -2.106  -1.180  0.00  0.00    -0.021 A 
ATOM     26  C   UNL     1       0.330  -0.791  -1.215  0.00  0.00    -0.043 A 
ATOM     27  C   UNL     1       0.665  -0.142  -2.533  0.00  0.00    +0.044 C 
ATOM     28  C   UNL     1      -0.220  -2.892  -2.460  0.00  0.00    +0.046 C 
ATOM     29  C   UNL     1      -0.628  -2.628   2.521  0.00  0.00    +0.046 C 
ATOM     30  C   UNL     1       0.266   0.119   2.449  0.00  0.00    +0.044 C 
ENDBRANCH  17  24
ENDBRANCH   1  17
TORSDOF 4
