REMARK  Name = ZINC10049681
REMARK  8 active torsions:
REMARK  status: ('A' for Active; 'I' for Inactive)
REMARK    1  A    between atoms: C_1  and  N_2
REMARK    2  A    between atoms: N_7  and  C_10
REMARK    3  A    between atoms: N_14  and  C_25
REMARK    4  A    between atoms: C_16  and  C_18
REMARK    5  A    between atoms: C_25  and  C_26
REMARK    6  A    between atoms: C_26  and  C_27
REMARK    7  A    between atoms: C_27  and  O_29
REMARK    8  A    between atoms: O_29  and  C_30
REMARK                            x       y       z     vdW  Elec       q    Type
REMARK                         _______ _______ _______ _____ _____    ______ ____
ROOT
ATOM      1  C   UNL     1      -0.794   6.092   0.063  0.00  0.00    +0.155 C 
ATOM      2  N   UNL     1      -1.342   4.734   0.054  0.00  0.00    -0.280 N 
ATOM      3  C   UNL     1      -0.514   3.620   0.035  0.00  0.00    +0.170 A 
ATOM      4  C   UNL     1      -1.071   2.330   0.030  0.00  0.00    +0.153 A 
ATOM      5  C   UNL     1      -2.469   2.157   0.038  0.00  0.00    +0.282 A 
ATOM      6  O   UNL     1      -2.978   1.049   0.031  0.00  0.00    -0.265 OA
ATOM      7  N   UNL     1      -3.219   3.286   0.056  0.00  0.00    -0.262 N 
ATOM      8  C   UNL     1      -2.677   4.512   0.065  0.00  0.00    +0.333 A 
ATOM      9  O   UNL     1      -3.422   5.473   0.082  0.00  0.00    -0.246 OA
ATOM     10  C   UNL     1      -4.679   3.161   0.067  0.00  0.00    +0.157 C 
ATOM     11  N   UNL     1      -0.018   1.458   0.010  0.00  0.00    -0.299 N 
ATOM     12  C   UNL     1       1.123   2.220   0.003  0.00  0.00    +0.221 A 
ATOM     13  N   UNL     1       0.803   3.493   0.021  0.00  0.00    -0.195 NA
ATOM     14  N   UNL     1       2.373   1.634  -0.024  0.00  0.00    -0.192 N 
ATOM     15  N   UNL     1       2.433   0.262  -0.315  0.00  0.00    -0.180 NA
ATOM     16  C   UNL     1       1.389  -0.492  -0.314  0.00  0.00    +0.086 C 
ATOM     17  C   UNL     1       0.002  -0.004   0.002  0.00  0.00    +0.182 C 
ENDROOT
BRANCH  16  18
ATOM     18  C   UNL     1       1.563  -1.919  -0.643  0.00  0.00    -0.000 A 
ATOM     19  C   UNL     1       0.461  -2.778  -0.649  0.00  0.00    +0.011 A 
ATOM     20  C   UNL     1       0.630  -4.110  -0.963  0.00  0.00    +0.020 A 
ATOM     21  C   UNL     1       1.891  -4.600  -1.260  0.00  0.00    +0.041 A 
ATOM     22  C   UNL     1       2.988  -3.755  -1.250  0.00  0.00    +0.020 A 
ATOM     23  C   UNL     1       2.832  -2.420  -0.943  0.00  0.00    +0.011 A 
ATOM     24 CL   UNL     1       2.096  -6.279  -1.648  0.00  0.00    -0.084 Cl
ENDBRANCH  16  18
BRANCH  14  25
ATOM     25  C   UNL     1       3.586   2.412   0.239  0.00  0.00    +0.146 C 
BRANCH  25  26
ATOM     26  C   UNL     1       3.898   2.380   1.736  0.00  0.00    +0.141 C 
BRANCH  26  27
ATOM     27  C   UNL     1       5.146   3.180   2.007  0.00  0.00    +0.308 C 
ATOM     28  O   UNL     1       5.726   3.721   1.096  0.00  0.00    -0.251 OA
BRANCH  27  29
ATOM     29  O   UNL     1       5.612   3.292   3.261  0.00  0.00    -0.468 OA
ATOM     30  C   UNL     1       6.819   4.078   3.447  0.00  0.00    +0.280 C 
ENDBRANCH  27  29
ENDBRANCH  26  27
ENDBRANCH  25  26
ENDBRANCH  14  25
TORSDOF 5
