REMARK  Name = ZINC04178506
REMARK  7 active torsions:
REMARK  status: ('A' for Active; 'I' for Inactive)
REMARK    1  A    between atoms: C_1  and  C_2
REMARK    2  A    between atoms: C_2  and  C_33
REMARK    3  A    between atoms: N_16  and  C_19
REMARK    4  A    between atoms: C_19  and  C_20
REMARK    5  A    between atoms: C_20  and  C_21
REMARK    6  A    between atoms: C_27  and  C_31
REMARK    7  A    between atoms: C_28  and  N_30
REMARK                            x       y       z     vdW  Elec       q    Type
REMARK                         _______ _______ _______ _____ _____    ______ ____
ROOT
ATOM      1  C   UNL     1      -0.751   3.122  -1.243  0.00  0.00    +0.012 C 
ATOM      2  C   UNL     1      -0.751   1.592  -1.233  0.00  0.00    -0.021 C 
ATOM      3  C   UNL     1      -0.013   1.086   0.008  0.00  0.00    +0.081 C 
ATOM      4  C   UNL     1      -0.718   1.572   1.252  0.00  0.00    +0.116 C 
ATOM      5  C   UNL     1      -2.050   1.768   1.255  0.00  0.00    +0.058 C 
ATOM      6  C   UNL     1      -2.826   1.530   0.105  0.00  0.00    +0.165 C 
ATOM      7  O   UNL     1      -4.029   1.694   0.153  0.00  0.00    -0.292 OA
ATOM      8  C   UNL     1      -2.193   1.077  -1.182  0.00  0.00    +0.086 C 
ATOM      9  C   UNL     1      -2.746   2.252   2.501  0.00  0.00    +0.144 C 
ATOM     10  C   UNL     1      -3.516   1.143   3.146  0.00  0.00    -0.001 A 
ATOM     11  C   UNL     1      -3.108  -0.059   3.684  0.00  0.00    +0.007 A 
ATOM     12  C   UNL     1      -4.097  -0.880   4.217  0.00  0.00    +0.000 A 
ATOM     13  C   UNL     1      -5.425  -0.504   4.209  0.00  0.00    +0.002 A 
ATOM     14  C   UNL     1      -5.842   0.703   3.670  0.00  0.00    +0.024 A 
ATOM     15  C   UNL     1      -4.860   1.535   3.130  0.00  0.00    +0.041 A 
ATOM     16  N   UNL     1      -4.991   2.776   2.534  0.00  0.00    -0.269 N 
ATOM     17  C   UNL     1      -3.803   3.273   2.132  0.00  0.00    +0.240 C 
ATOM     18  O   UNL     1      -3.615   4.337   1.580  0.00  0.00    -0.274 OA
ATOM     19  C   UNL     1      -1.761   2.854   3.459  0.00  0.00    +0.110 C 
ATOM     20  C   UNL     1      -0.436   2.596   3.327  0.00  0.00    +0.199 C 
ATOM     21  O   UNL     1       0.026   1.798   2.352  0.00  0.00    -0.445 OA
ATOM     22  C   UNL     1      -0.060   1.065  -2.492  0.00  0.00    +0.012 C 
ENDROOT
BRANCH  20  23
ATOM     23  N   UNL     1       0.451   3.162   4.208  0.00  0.00    -0.328 N 
ATOM     24  H   UNL     1       0.128   3.741   4.917  0.00  0.00    +0.145 HD
ATOM     25  H   UNL     1       1.400   2.984   4.123  0.00  0.00    +0.145 HD
ENDBRANCH  20  23
BRANCH  19  26
ATOM     26  C   UNL     1      -2.221   3.705   4.516  0.00  0.00    +0.102 C 
ATOM     27  N   UNL     1      -2.585   4.379   5.354  0.00  0.00    -0.191 NA
ENDBRANCH  19  26
BRANCH  16  28
ATOM     28  C   UNL     1      -6.269   3.470   2.359  0.00  0.00    +0.118 C 
BRANCH  28  29
ATOM     29  C   UNL     1      -6.545   4.346   3.583  0.00  0.00    +0.054 C 
BRANCH  29  30
ATOM     30  C   UNL     1      -7.860   5.060   3.404  0.00  0.00    -0.046 A 
ATOM     31  C   UNL     1      -7.896   6.303   2.801  0.00  0.00    +0.004 A 
ATOM     32  C   UNL     1      -9.102   6.956   2.632  0.00  0.00    +0.000 A 
ATOM     33  C   UNL     1     -10.273   6.369   3.076  0.00  0.00    +0.000 A 
ATOM     34  C   UNL     1     -10.237   5.128   3.683  0.00  0.00    +0.000 A 
ATOM     35  C   UNL     1      -9.031   4.473   3.848  0.00  0.00    +0.004 A 
ENDBRANCH  29  30
ENDBRANCH  28  29
ENDBRANCH  16  28
TORSDOF 5
