REMARK  Name = ZINC48324789
REMARK  6 active torsions:
REMARK  status: ('A' for Active; 'I' for Inactive)
REMARK    1  A    between atoms: C_9  and  C_10
REMARK    2  A    between atoms: N_15  and  C_16
REMARK    3  A    between atoms: C_16  and  C_17
REMARK    4  A    between atoms: N_19  and  C_20
REMARK    5  A    between atoms: N_19  and  C_25
REMARK    6  A    between atoms: C_20  and  C_21
REMARK                            x       y       z     vdW  Elec       q    Type
REMARK                         _______ _______ _______ _____ _____    ______ ____
ROOT
ATOM      1  C   UNL     1       4.607  -2.418  -1.558  0.00  0.00    +0.020 C 
ENDROOT
BRANCH   1   6
ATOM      2  C   UNL     1       4.879  -0.478  -0.161  0.00  0.00    +0.002 C 
ATOM      3  C   UNL     1       5.338  -0.594   1.308  0.00  0.00    -0.009 C 
ATOM      4  C   UNL     1       6.701  -1.326   1.192  0.00  0.00    -0.020 C 
ATOM      5  C   UNL     1       6.437  -2.293   0.010  0.00  0.00    -0.077 C 
ATOM      6  N   UNL     1       5.585  -1.522  -0.926  0.00  0.00    +0.392 N 
ATOM      7  H   UNL     1       6.159  -1.093  -1.636  0.00  0.00    -0.080 HD
BRANCH   2  16
ATOM      8  C   UNL     1       0.351   0.835  -2.515  0.00  0.00    +0.005 A 
ATOM      9  C   UNL     1       1.639   1.339  -2.769  0.00  0.00    +0.018 A 
ATOM     10  C   UNL     1       2.699   0.888  -2.066  0.00  0.00    +0.094 A 
ATOM     11  N   UNL     1       2.536  -0.062  -1.101  0.00  0.00    -0.288 N 
ATOM     12  C   UNL     1       1.290  -0.573  -0.830  0.00  0.00    +0.161 A 
ATOM     13  C   UNL     1       0.174  -0.112  -1.555  0.00  0.00    +0.048 A 
ATOM     14  N   UNL     1       1.443  -1.461   0.138  0.00  0.00    -0.129 NA
ATOM     15  N   UNL     1       2.684  -1.525   0.471  0.00  0.00    -0.135 NA
ATOM     16  C   UNL     1       3.390  -0.695  -0.252  0.00  0.00    +0.124 A 
ENDBRANCH   2  16
ENDBRANCH   1   6
BRANCH   1  17
ATOM     17  C   UNL     1       5.324  -3.380  -2.471  0.00  0.00    +0.203 C 
ATOM     18  O   UNL     1       6.530  -3.325  -2.583  0.00  0.00    -0.277 OA
ATOM     19  N   UNL     1       4.624  -4.302  -3.162  0.00  0.00    -0.264 N 
BRANCH  19  20
ATOM     20  C   UNL     1       5.297  -5.259  -3.930  0.00  0.00    +0.037 A 
ATOM     21  C   UNL     1       6.037  -4.867  -5.038  0.00  0.00    +0.025 A 
ATOM     22  C   UNL     1       6.699  -5.813  -5.795  0.00  0.00    +0.022 A 
ATOM     23  C   UNL     1       6.625  -7.152  -5.451  0.00  0.00    +0.041 A 
ATOM     24  C   UNL     1       5.888  -7.545  -4.348  0.00  0.00    +0.022 A 
ATOM     25  C   UNL     1       5.229  -6.602  -3.584  0.00  0.00    +0.025 A 
ATOM     26 CL   UNL     1       7.458  -8.339  -6.404  0.00  0.00    -0.084 Cl
ENDBRANCH  19  20
BRANCH  19  27
ATOM     27  C   UNL     1       3.160  -4.302  -3.108  0.00  0.00    +0.226 C 
BRANCH  27  28
ATOM     28  C   UNL     1       2.609  -3.417  -4.228  0.00  0.00    +0.406 C 
ATOM     29  F   UNL     1       3.030  -3.914  -5.465  0.00  0.00    -0.169 F 
ATOM     30  F   UNL     1       1.211  -3.417  -4.176  0.00  0.00    -0.169 F 
ATOM     31  F   UNL     1       3.082  -2.110  -4.065  0.00  0.00    -0.169 F 
ENDBRANCH  27  28
ENDBRANCH  19  27
ENDBRANCH   1  17
TORSDOF 6
