REMARK  Name = ZINC57608608
REMARK  10 active torsions:
REMARK  status: ('A' for Active; 'I' for Inactive)
REMARK    1  A    between atoms: C_1  and  C_2
REMARK    2  A    between atoms: C_5  and  C_41
REMARK    3  A    between atoms: C_9  and  C_14
REMARK    4  A    between atoms: C_14  and  C_16
REMARK    5  A    between atoms: C_14  and  N_27
REMARK    6  A    between atoms: N_20  and  C_21
REMARK    7  A    between atoms: N_27  and  C_28
REMARK    8  A    between atoms: N_27  and  C_35
REMARK    9  A    between atoms: C_28  and  C_29
REMARK   10  A    between atoms: C_35  and  C_36
REMARK                            x       y       z     vdW  Elec       q    Type
REMARK                         _______ _______ _______ _____ _____    ______ ____
ROOT
ATOM      1  C   UNL     1       0.566   0.670   5.059  0.00  0.00    +0.163 C 
ENDROOT
BRANCH   1  10
ATOM      2  C   UNL     1      -3.286  -0.607   1.796  0.00  0.00    +0.044 C 
ATOM      3  C   UNL     1      -2.011  -0.572   0.992  0.00  0.00    -0.041 A 
ATOM      4  C   UNL     1      -2.036  -0.847  -0.346  0.00  0.00    +0.004 A 
ATOM      5  C   UNL     1      -0.868  -0.817  -1.095  0.00  0.00    +0.005 A 
ATOM      6  C   UNL     1       0.339  -0.510  -0.504  0.00  0.00    -0.026 A 
ATOM      7  C   UNL     1       0.389  -0.227   0.857  0.00  0.00    +0.052 A 
ATOM      8  C   UNL     1      -0.799  -0.253   1.612  0.00  0.00    +0.002 A 
ATOM      9  C   UNL     1      -0.737   0.051   3.043  0.00  0.00    +0.021 A 
ATOM     10  C   UNL     1       0.467   0.352   3.589  0.00  0.00    +0.042 A 
ATOM     11  C   UNL     1       1.628   0.371   2.786  0.00  0.00    +0.254 A 
ATOM     12  O   UNL     1       2.700   0.645   3.298  0.00  0.00    -0.268 OA
ATOM     13  N   UNL     1       1.582   0.083   1.474  0.00  0.00    -0.322 N 
ATOM     14  H   UNL     1       2.399   0.104   0.951  0.00  0.00    +0.169 HD
ATOM     15  C   UNL     1       1.600  -0.482  -1.329  0.00  0.00    +0.046 C 
ENDBRANCH   1  10
BRANCH   1  16
ATOM     16  C   UNL     1      -0.813   0.677   5.665  0.00  0.00    +0.173 A 
ATOM     17  N   UNL     1      -1.526  -0.371   6.000  0.00  0.00    -0.111 NA
ATOM     18  N   UNL     1      -2.645   0.047   6.484  0.00  0.00    -0.023 NA
ATOM     19  N   UNL     1      -2.664   1.334   6.467  0.00  0.00    -0.044 NA
ATOM     20  N   UNL     1      -1.550   1.760   5.975  0.00  0.00    -0.224 N 
BRANCH  20  21
ATOM     21  C   UNL     1      -1.162   3.160   5.784  0.00  0.00    +0.111 C 
ATOM     22  C   UNL     1      -1.156   3.876   7.136  0.00  0.00    +0.027 C 
ATOM     23  C   UNL     1      -0.750   5.338   6.938  0.00  0.00    +0.002 C 
ATOM     24  C   UNL     1      -1.750   6.022   6.003  0.00  0.00    +0.000 C 
ATOM     25  C   UNL     1      -1.756   5.306   4.651  0.00  0.00    +0.002 C 
ATOM     26  C   UNL     1      -2.162   3.844   4.850  0.00  0.00    +0.027 C 
ENDBRANCH  20  21
ENDBRANCH   1  16
BRANCH   1  27
ATOM     27  N   UNL     1       1.389  -0.347   5.726  0.00  0.00    -0.277 NA
BRANCH  27  28
ATOM     28  C   UNL     1       1.501  -0.074   7.165  0.00  0.00    +0.121 C 
BRANCH  28  29
ATOM     29  C   UNL     1       2.644  -0.870   7.740  0.00  0.00    -0.033 A 
ATOM     30  C   UNL     1       2.402  -2.089   8.345  0.00  0.00    +0.005 A 
ATOM     31  C   UNL     1       3.451  -2.819   8.873  0.00  0.00    +0.000 A 
ATOM     32  C   UNL     1       4.742  -2.330   8.795  0.00  0.00    +0.000 A 
ATOM     33  C   UNL     1       4.984  -1.111   8.189  0.00  0.00    +0.000 A 
ATOM     34  C   UNL     1       3.935  -0.383   7.658  0.00  0.00    +0.005 A 
ENDBRANCH  28  29
ENDBRANCH  27  28
BRANCH  27  35
ATOM     35  C   UNL     1       0.857  -1.695   5.486  0.00  0.00    +0.160 C 
BRANCH  35  36
ATOM     36  C   UNL     1       1.422  -2.237   4.198  0.00  0.00    +0.119 A 
ATOM     37  C   UNL     1       2.615  -2.842   4.056  0.00  0.00    +0.046 A 
ATOM     38  C   UNL     1       2.739  -3.187   2.690  0.00  0.00    +0.041 A 
ATOM     39  C   UNL     1       1.615  -2.771   2.079  0.00  0.00    +0.195 A 
ATOM     40  O   UNL     1       0.819  -2.201   2.999  0.00  0.00    -0.467 OA
ENDBRANCH  35  36
ENDBRANCH  27  35
ENDBRANCH   1  27
TORSDOF 8
