REMARK  Name = ZINC12064336
REMARK  9 active torsions:
REMARK  status: ('A' for Active; 'I' for Inactive)
REMARK    1  A    between atoms: C_1  and  C_2
REMARK    2  A    between atoms: C_2  and  N_3
REMARK    3  A    between atoms: N_3  and  C_4
REMARK    4  A    between atoms: N_3  and  S_10
REMARK    5  A    between atoms: S_10  and  C_13
REMARK    6  A    between atoms: C_16  and  C_19
REMARK    7  A    between atoms: N_21  and  C_22
REMARK    8  A    between atoms: C_23  and  C_32
REMARK    9  A    between atoms: N_34  and  C_35
REMARK                            x       y       z     vdW  Elec       q    Type
REMARK                         _______ _______ _______ _____ _____    ______ ____
ROOT
ATOM      1  C   UNL     1       8.074   2.840   3.530  0.00  0.00    +0.249 C 
ATOM      2  O   UNL     1       9.002   2.274   4.074  0.00  0.00    -0.270 OA
ATOM      3  N   UNL     1       7.748   4.098   3.891  0.00  0.00    -0.275 N 
ATOM      4  H   UNL     1       7.007   4.550   3.457  0.00  0.00    +0.156 HD
ENDROOT
BRANCH   3   5
ATOM      5  C   UNL     1       8.470   4.744   4.881  0.00  0.00    +0.085 A 
ATOM      6  C   UNL     1       8.293   6.025   5.380  0.00  0.00    +0.069 A 
ATOM      7  C   UNL     1       9.190   6.471   6.437  0.00  0.00    -0.023 A 
ATOM      8  C   UNL     1      10.125   5.570   6.807  0.00  0.00    -0.004 A 
ATOM      9  S   UNL     1       9.819   4.151   5.791  0.00  0.00    -0.077 S 
ATOM     10  C   UNL     1      11.198   5.736   7.838  0.00  0.00    +0.043 C 
ATOM     11  C   UNL     1      10.580   6.292   9.127  0.00  0.00    +0.005 C 
ATOM     12  C   UNL     1      10.613   7.815   9.060  0.00  0.00    +0.001 C 
ATOM     13  C   UNL     1      10.439   8.282   7.616  0.00  0.00    +0.005 C 
ATOM     14  C   UNL     1       9.080   7.849   7.077  0.00  0.00    +0.037 C 
BRANCH   6  15
ATOM     15  C   UNL     1       7.236   6.900   4.863  0.00  0.00    +0.246 C 
ATOM     16  O   UNL     1       6.132   6.889   5.375  0.00  0.00    -0.270 OA
ATOM     17  N   UNL     1       7.486   7.717   3.821  0.00  0.00    -0.314 N 
ATOM     18  C   UNL     1       6.430   8.592   3.305  0.00  0.00    +0.128 C 
ATOM     19  H   UNL     1       8.366   7.726   3.413  0.00  0.00    +0.149 HD
ENDBRANCH   6  15
ENDBRANCH   3   5
BRANCH   1  23
ATOM     20  C   UNL     1       5.859   0.859   0.496  0.00  0.00    +0.109 A 
ATOM     21  C   UNL     1       5.525   2.151   0.860  0.00  0.00    +0.029 A 
ATOM     22  C   UNL     1       6.237   2.799   1.848  0.00  0.00    +0.015 A 
ATOM     23  C   UNL     1       7.303   2.151   2.474  0.00  0.00    +0.037 A 
ATOM     24  C   UNL     1       7.638   0.849   2.099  0.00  0.00    +0.015 A 
ATOM     25  C   UNL     1       6.915   0.211   1.113  0.00  0.00    +0.029 A 
BRANCH  20  26
ATOM     26  S   UNL     1       4.941   0.036  -0.763  0.00  0.00    +0.075 S 
ATOM     27  O   UNL     1       5.840  -0.857  -1.404  0.00  0.00    -0.150 OA
ATOM     28  O   UNL     1       4.232   1.044  -1.472  0.00  0.00    -0.150 OA
BRANCH  26  29
ATOM     29  N   UNL     1       3.802  -0.899  -0.007  0.00  0.00    -0.203 N 
BRANCH  29  30
ATOM     30  C   UNL     1       2.534  -0.378   0.259  0.00  0.00    +0.051 A 
ATOM     31  C   UNL     1       1.443  -1.229   0.381  0.00  0.00    +0.025 A 
ATOM     32  C   UNL     1       0.190  -0.710   0.643  0.00  0.00    +0.002 A 
ATOM     33  C   UNL     1       0.021   0.655   0.784  0.00  0.00    +0.000 A 
ATOM     34  C   UNL     1       1.105   1.505   0.663  0.00  0.00    +0.002 A 
ATOM     35  C   UNL     1       2.361   0.993   0.401  0.00  0.00    +0.025 A 
ENDBRANCH  29  30
BRANCH  29  37
ATOM     36  C   UNL     1       3.662  -3.237  -0.711  0.00  0.00    +0.026 C 
ATOM     37  C   UNL     1       4.126  -2.274   0.384  0.00  0.00    +0.128 C 
ENDBRANCH  29  37
ENDBRANCH  26  29
ENDBRANCH  20  26
ENDBRANCH   1  23
TORSDOF 7
