REMARK  Name = ZINC44259803
REMARK  4 active torsions:
REMARK  status: ('A' for Active; 'I' for Inactive)
REMARK    1  A    between atoms: C_10  and  O_11
REMARK    2  A    between atoms: O_11  and  C_12
REMARK    3  A    between atoms: C_12  and  C_14
REMARK    4  A    between atoms: C_17  and  N_19
REMARK                            x       y       z     vdW  Elec       q    Type
REMARK                         _______ _______ _______ _____ _____    ______ ____
ROOT
ATOM      1  C   UNL     1      -0.005   1.395  -0.144  0.00  0.00    +0.001 A 
ATOM      2  C   UNL     1       1.186   2.119  -0.150  0.00  0.00    +0.001 A 
ATOM      3  C   UNL     1       2.390   1.486  -0.116  0.00  0.00    +0.012 A 
ATOM      4  C   UNL     1       2.437   0.083  -0.074  0.00  0.00    +0.025 A 
ATOM      5  C   UNL     1       1.227  -0.653  -0.068  0.00  0.00    -0.014 A 
ATOM      6  C   UNL     1       0.002   0.035  -0.104  0.00  0.00    +0.008 A 
ATOM      7  C   UNL     1       1.274  -2.057  -0.025  0.00  0.00    +0.009 A 
ATOM      8  C   UNL     1       2.478  -2.693   0.009  0.00  0.00    +0.004 A 
ATOM      9  C   UNL     1       3.670  -1.974   0.004  0.00  0.00    +0.047 A 
ATOM     10  C   UNL     1       3.666  -0.608  -0.038  0.00  0.00    +0.139 A 
ENDROOT
BRANCH  10  11
ATOM     11  O   UNL     1       4.837   0.080  -0.043  0.00  0.00    -0.425 OA
BRANCH  11  12
ATOM     12  C   UNL     1       5.283   0.575   1.123  0.00  0.00    +0.318 C 
ATOM     13  O   UNL     1       4.701   0.318   2.150  0.00  0.00    -0.250 OA
BRANCH  12  14
ATOM     14  C   UNL     1       6.510   1.450   1.150  0.00  0.00    +0.130 C 
ATOM     15  C   UNL     1       6.316   2.928   1.494  0.00  0.00    +0.049 C 
ATOM     16  C   UNL     1       6.966   1.984   2.509  0.00  0.00    +0.184 C 
BRANCH  16  17
ATOM     17  N   UNL     1       6.178   1.606   3.684  0.00  0.00    +0.026 N 
ATOM     18  O   UNL     1       6.696   0.993   4.588  0.00  0.00    -0.131 OA
ATOM     19  O   UNL     1       5.009   1.907   3.750  0.00  0.00    -0.131 OA
ENDBRANCH  16  17
ENDBRANCH  12  14
ENDBRANCH  11  12
ENDBRANCH  10  11
TORSDOF 4
