REMARK  Name = ZINC12496763
REMARK  7 active torsions:
REMARK  status: ('A' for Active; 'I' for Inactive)
REMARK    1  A    between atoms: C_1  and  O_2
REMARK    2  A    between atoms: O_2  and  C_3
REMARK    3  A    between atoms: C_3  and  C_5
REMARK    4  A    between atoms: C_5  and  C_31
REMARK    5  A    between atoms: C_10  and  C_12
REMARK    6  A    between atoms: C_15  and  O_18
REMARK    7  A    between atoms: N_21  and  C_24
REMARK                            x       y       z     vdW  Elec       q    Type
REMARK                         _______ _______ _______ _____ _____    ______ ____
ROOT
ATOM      1  C   UNL     1      -1.222  -3.382   0.347  0.00  0.00    +0.070 C 
ATOM      2  C   UNL     1      -0.690  -2.155  -0.373  0.00  0.00    +0.090 C 
ATOM      3  C   UNL     1       0.741  -2.095   0.277  0.00  0.00    +0.078 C 
ATOM      4  C   UNL     1       1.193  -3.490   0.193  0.00  0.00    -0.026 C 
ATOM      5  C   UNL     1       1.155  -0.749  -0.019  0.00  0.00    +0.229 C 
ATOM      6  O   UNL     1       2.281  -0.355  -0.237  0.00  0.00    -0.275 OA
ATOM      7  N   UNL     1       0.002  -0.004   0.002  0.00  0.00    -0.210 N 
ATOM      8  C   UNL     1      -1.125  -0.776   0.009  0.00  0.00    +0.229 C 
ATOM      9  O   UNL     1      -2.253  -0.415   0.272  0.00  0.00    -0.275 OA
ATOM     10  N   UNL     1      -0.037  -4.247   0.587  0.00  0.00    +0.398 N 
ATOM     11  H   UNL     1      -0.113  -5.101   0.023  0.00  0.00    -0.083 HD
ATOM     12  H   UNL     1       0.014  -4.496   1.581  0.00  0.00    -0.083 HD
ENDROOT
BRANCH   7  13
ATOM     13  C   UNL     1      -0.017   1.399   0.010  0.00  0.00    +0.044 A 
ATOM     14  C   UNL     1      -1.228   2.077   0.019  0.00  0.00    +0.027 A 
ATOM     15  C   UNL     1      -1.245   3.458   0.033  0.00  0.00    +0.040 A 
ATOM     16  C   UNL     1      -0.054   4.166   0.025  0.00  0.00    +0.124 A 
ATOM     17  C   UNL     1       1.155   3.491   0.010  0.00  0.00    +0.040 A 
ATOM     18  C   UNL     1       1.175   2.110   0.002  0.00  0.00    +0.027 A 
ATOM     19  F   UNL     1      -0.073   5.517   0.034  0.00  0.00    -0.205 F 
ENDBRANCH   7  13
BRANCH   4  20
ATOM     20  C   UNL     1       2.319  -3.746   1.160  0.00  0.00    -0.060 A 
ATOM     21  C   UNL     1       2.056  -3.853   2.514  0.00  0.00    +0.005 A 
ATOM     22  C   UNL     1       3.086  -4.093   3.402  0.00  0.00    +0.045 A 
ATOM     23  C   UNL     1       4.387  -4.217   2.937  0.00  0.00    +0.117 A 
ATOM     24  C   UNL     1       4.650  -4.104   1.579  0.00  0.00    +0.045 A 
ATOM     25  C   UNL     1       3.615  -3.869   0.694  0.00  0.00    +0.005 A 
BRANCH  23  26
ATOM     26  O   UNL     1       5.403  -4.447   3.809  0.00  0.00    -0.507 OA
ATOM     27  H   UNL     1       5.813  -3.643   4.157  0.00  0.00    +0.292 HD
ENDBRANCH  23  26
ENDBRANCH   4  20
BRANCH   1  28
ATOM     28  C   UNL     1      -2.228  -4.097  -0.519  0.00  0.00    -0.047 A 
ATOM     29  C   UNL     1      -2.999  -3.382  -1.416  0.00  0.00    +0.003 A 
ATOM     30  C   UNL     1      -3.918  -4.039  -2.213  0.00  0.00    +0.000 A 
ATOM     31  C   UNL     1      -4.072  -5.409  -2.106  0.00  0.00    +0.000 A 
ATOM     32  C   UNL     1      -3.304  -6.122  -1.205  0.00  0.00    +0.000 A 
ATOM     33  C   UNL     1      -2.382  -5.466  -0.411  0.00  0.00    +0.003 A 
ENDBRANCH   1  28
BRANCH   1  34
ATOM     34  C   UNL     1      -1.853  -2.983   1.656  0.00  0.00    +0.301 C 
ATOM     35  O   UNL     1      -2.287  -1.865   1.803  0.00  0.00    -0.252 OA
BRANCH  34  37
ATOM     36  C   UNL     1      -2.551  -3.418   3.893  0.00  0.00    +0.280 C 
ATOM     37  O   UNL     1      -1.932  -3.870   2.660  0.00  0.00    -0.469 OA
ENDBRANCH  34  37
ENDBRANCH   1  34
TORSDOF 6
