REMARK  Name = ZINC13498567
REMARK  12 active torsions:
REMARK  status: ('A' for Active; 'I' for Inactive)
REMARK    1  A    between atoms: C_1  and  C_2
REMARK    2  A    between atoms: C_7  and  C_14
REMARK    3  A    between atoms: C_14  and  N_66
REMARK    4  A    between atoms: C_15  and  C_16
REMARK    5  A    between atoms: C_15  and  N_66
REMARK    6  A    between atoms: C_16  and  O_17
REMARK    7  A    between atoms: C_18  and  C_20
REMARK    8  A    between atoms: C_18  and  C_31
REMARK    9  A    between atoms: C_18  and  N_66
REMARK   10  A    between atoms: N_24  and  C_25
REMARK   11  A    between atoms: C_31  and  C_32
REMARK   12  A    between atoms: C_31  and  C_33
REMARK                            x       y       z     vdW  Elec       q    Type
REMARK                         _______ _______ _______ _____ _____    ______ ____
ROOT
ATOM      1  N   UNL     1      -0.364   1.832   0.612  0.00  0.00    +0.391 N 
ATOM      2  H   UNL     1      -0.271   2.845   0.751  0.00  0.00    -0.080 HD
ENDROOT
BRANCH   1   3
ATOM      3  C   UNL     1      -1.757   1.526   0.224  0.00  0.00    -0.036 C 
BRANCH   3  10
ATOM      4  C   UNL     1      -6.694   6.321   4.255  0.00  0.00    +0.044 C 
ATOM      5  C   UNL     1      -5.764   5.581   3.329  0.00  0.00    -0.048 A 
ATOM      6  C   UNL     1      -5.410   6.149   2.113  0.00  0.00    +0.004 A 
ATOM      7  C   UNL     1      -4.567   5.496   1.259  0.00  0.00    +0.010 A 
ATOM      8  C   UNL     1      -4.057   4.242   1.613  0.00  0.00    -0.001 A 
ATOM      9  C   UNL     1      -3.152   3.514   0.722  0.00  0.00    +0.017 A 
ATOM     10  C   UNL     1      -2.689   2.302   1.117  0.00  0.00    +0.001 A 
ATOM     11  C   UNL     1      -3.083   1.763   2.361  0.00  0.00    +0.251 A 
ATOM     12  O   UNL     1      -2.659   0.670   2.695  0.00  0.00    -0.268 OA
ATOM     13  N   UNL     1      -3.909   2.427   3.189  0.00  0.00    -0.322 N 
ATOM     14  H   UNL     1      -4.155   2.029   4.038  0.00  0.00    +0.169 HD
ATOM     15  C   UNL     1      -4.414   3.663   2.845  0.00  0.00    +0.049 A 
ATOM     16  C   UNL     1      -5.273   4.347   3.698  0.00  0.00    +0.029 A 
ENDBRANCH   3  10
ENDBRANCH   1   3
BRANCH   1  17
ATOM     17  C   UNL     1      -0.029   1.141   1.876  0.00  0.00    -0.049 C 
BRANCH  17  18
ATOM     18  C   UNL     1      -0.139  -0.375   1.704  0.00  0.00    +0.137 C 
BRANCH  18  19
ATOM     19  O   UNL     1       0.895  -0.831   0.828  0.00  0.00    -0.397 OA
ATOM     20  H   UNL     1       0.841  -1.772   0.613  0.00  0.00    +0.209 HD
ENDBRANCH  18  19
ENDBRANCH  17  18
ENDBRANCH   1  17
BRANCH   1  21
ATOM     21  C   UNL     1       0.564   1.406  -0.457  0.00  0.00    +0.006 C 
BRANCH  21  22
ATOM     22  C   UNL     1       0.295   2.229  -1.691  0.00  0.00    +0.139 A 
ATOM     23  N   UNL     1       0.134   3.529  -1.744  0.00  0.00    -0.115 NA
ATOM     24  N   UNL     1      -0.073   3.853  -2.974  0.00  0.00    -0.023 NA
ATOM     25  N   UNL     1      -0.055   2.794  -3.705  0.00  0.00    -0.044 NA
ATOM     26  N   UNL     1       0.170   1.772  -2.950  0.00  0.00    -0.228 N 
BRANCH  26  27
ATOM     27  C   UNL     1       0.269   0.376  -3.383  0.00  0.00    +0.111 C 
ATOM     28  C   UNL     1       1.412   0.234  -4.389  0.00  0.00    +0.027 C 
ATOM     29  C   UNL     1       1.516  -1.224  -4.841  0.00  0.00    +0.002 C 
ATOM     30  C   UNL     1       0.202  -1.649  -5.499  0.00  0.00    +0.000 C 
ATOM     31  C   UNL     1      -0.942  -1.507  -4.493  0.00  0.00    +0.002 C 
ATOM     32  C   UNL     1      -1.046  -0.049  -4.041  0.00  0.00    +0.027 C 
ENDBRANCH  26  27
ENDBRANCH  21  22
BRANCH  21  33
ATOM     33  C   UNL     1       2.002   1.640   0.009  0.00  0.00    -0.024 C 
ATOM     34  C   UNL     1       2.973   1.162  -1.073  0.00  0.00    +0.006 C 
ATOM     35  C   UNL     1       2.220   3.132   0.266  0.00  0.00    +0.006 C 
ENDBRANCH  21  33
ENDBRANCH   1  21
TORSDOF 9
