REMARK  Name = ZINC16958138
REMARK  11 active torsions:
REMARK  status: ('A' for Active; 'I' for Inactive)
REMARK    1  A    between atoms: C_1  and  O_2
REMARK    2  A    between atoms: O_2  and  C_3
REMARK    3  A    between atoms: C_5  and  C_13
REMARK    4  A    between atoms: C_7  and  O_11
REMARK    5  A    between atoms: C_8  and  O_9
REMARK    6  A    between atoms: O_9  and  C_10
REMARK    7  A    between atoms: O_11  and  C_12
REMARK    8  A    between atoms: C_13  and  C_15
REMARK    9  A    between atoms: C_13  and  O_38
REMARK   10  A    between atoms: C_17  and  C_23
REMARK   11  A    between atoms: C_23  and  C_29
REMARK                            x       y       z     vdW  Elec       q    Type
REMARK                         _______ _______ _______ _____ _____    ______ ____
ROOT
ATOM      1  C   UNL     1       2.810  -3.904   0.110  0.00  0.00    +0.139 C 
ATOM      2  C   UNL     1       3.652  -4.511   1.255  0.00  0.00    +0.074 C 
ATOM      3  C   UNL     1       5.006  -4.803   0.574  0.00  0.00    +0.239 C 
ATOM      4  O   UNL     1       4.723  -4.787  -0.857  0.00  0.00    -0.464 OA
ATOM      5  C   UNL     1       3.740  -3.896  -1.086  0.00  0.00    +0.314 C 
ATOM      6  O   UNL     1       3.621  -3.210  -2.073  0.00  0.00    -0.250 OA
ENDROOT
BRANCH   2   7
ATOM      7  C   UNL     1       3.014  -5.803   1.768  0.00  0.00    +0.094 C 
ATOM      8  S   UNL     1       2.907  -7.011   0.416  0.00  0.00    -0.138 S 
ATOM      9  C   UNL     1       4.640  -7.339  -0.007  0.00  0.00    +0.071 C 
ATOM     10  C   UNL     1       5.363  -7.950   1.188  0.00  0.00    +0.021 C 
ATOM     11  C   UNL     1       5.600  -6.904   2.272  0.00  0.00    +0.071 C 
ATOM     12  S   UNL     1       4.037  -6.500   3.098  0.00  0.00    -0.138 S 
BRANCH   7  13
ATOM     13  C   UNL     1       1.633  -5.511   2.294  0.00  0.00    -0.018 A 
ATOM     14  C   UNL     1       0.533  -6.122   1.722  0.00  0.00    +0.009 A 
ATOM     15  C   UNL     1      -0.737  -5.856   2.201  0.00  0.00    +0.050 A 
ATOM     16  C   UNL     1      -0.909  -4.976   3.257  0.00  0.00    +0.166 A 
ATOM     17  C   UNL     1       0.199  -4.360   3.833  0.00  0.00    +0.167 A 
ATOM     18  C   UNL     1       1.468  -4.631   3.348  0.00  0.00    +0.055 A 
ATOM     19  O   UNL     1      -0.229  -3.552   4.846  0.00  0.00    -0.453 OA
ATOM     20  C   UNL     1      -1.638  -3.358   4.612  0.00  0.00    +0.466 C 
ATOM     21  O   UNL     1      -2.032  -4.549   3.905  0.00  0.00    -0.453 OA
ENDBRANCH   7  13
ENDBRANCH   2   7
BRANCH   1  22
ATOM     22  C   UNL     1       1.585  -4.776  -0.172  0.00  0.00    +0.159 C 
BRANCH  22  25
ATOM     23  C   UNL     1      -0.902  -3.050  -2.433  0.00  0.00    +0.166 A 
ATOM     24  C   UNL     1       0.143  -3.848  -1.993  0.00  0.00    +0.055 A 
ATOM     25  C   UNL     1       0.449  -3.908  -0.646  0.00  0.00    -0.011 A 
ATOM     26  C   UNL     1      -0.289  -3.178   0.267  0.00  0.00    +0.055 A 
ATOM     27  C   UNL     1      -1.332  -2.373  -0.166  0.00  0.00    +0.166 A 
ATOM     28  C   UNL     1      -1.642  -2.310  -1.519  0.00  0.00    +0.204 A 
BRANCH  23  30
ATOM     29  C   UNL     1      -0.398  -3.777  -4.641  0.00  0.00    +0.277 C 
ATOM     30  O   UNL     1      -1.202  -2.990  -3.759  0.00  0.00    -0.491 OA
ENDBRANCH  23  30
BRANCH  28  31
ATOM     31  O   UNL     1      -2.668  -1.525  -1.947  0.00  0.00    -0.488 OA
ATOM     32  C   UNL     1      -3.962  -2.127  -2.013  0.00  0.00    +0.277 C 
ENDBRANCH  28  31
BRANCH  27  33
ATOM     33  O   UNL     1      -2.053  -1.652   0.733  0.00  0.00    -0.491 OA
ATOM     34  C   UNL     1      -1.678  -1.766   2.107  0.00  0.00    +0.277 C 
ENDBRANCH  27  33
ENDBRANCH  22  25
BRANCH  22  35
ATOM     35  O   UNL     1       1.906  -5.735  -1.181  0.00  0.00    -0.386 OA
ATOM     36  H   UNL     1       2.768  -6.158  -1.063  0.00  0.00    +0.210 HD
ENDBRANCH  22  35
ENDBRANCH   1  22
TORSDOF 8
