REMARK  Name = ZINC65004328
REMARK  6 active torsions:
REMARK  status: ('A' for Active; 'I' for Inactive)
REMARK    1  A    between atoms: C_6  and  C_7
REMARK    2  A    between atoms: C_7  and  N_8
REMARK    3  A    between atoms: N_8  and  S_9
REMARK    4  A    between atoms: S_9  and  C_12
REMARK    5  A    between atoms: C_15  and  C_17
REMARK    6  A    between atoms: C_20  and  C_22
REMARK                            x       y       z     vdW  Elec       q    Type
REMARK                         _______ _______ _______ _____ _____    ______ ____
ROOT
ATOM      1  S   UNL     1      -2.900  -2.141  -1.682  0.00  0.00    +0.065 S 
ATOM      2  O   UNL     1      -3.115  -2.123  -3.087  0.00  0.00    -0.153 OA
ATOM      3  O   UNL     1      -2.529  -3.321  -0.983  0.00  0.00    -0.153 OA
ENDROOT
BRANCH   1   4
ATOM      4  C   UNL     1      -4.389  -1.562  -0.938  0.00  0.00    +0.143 A 
ATOM      5  C   UNL     1      -5.361  -0.779  -1.472  0.00  0.00    +0.037 A 
ATOM      6  C   UNL     1      -6.453  -0.444  -0.701  0.00  0.00    +0.021 A 
ATOM      7  C   UNL     1      -6.520  -0.917   0.585  0.00  0.00    +0.058 A 
ATOM      8  S   UNL     1      -5.011  -1.862   0.708  0.00  0.00    -0.065 S 
BRANCH   7   9
ATOM      9  C   UNL     1      -7.567  -0.705   1.597  0.00  0.00    +0.162 A 
ATOM     10  C   UNL     1      -8.709   0.020   1.445  0.00  0.00    +0.161 A 
ATOM     11  N   UNL     1      -9.384  -0.042   2.602  0.00  0.00    -0.221 NA
ATOM     12  C   UNL     1      -8.707  -0.768   3.448  0.00  0.00    +0.199 A 
ATOM     13  O   UNL     1      -7.583  -1.197   2.856  0.00  0.00    -0.439 OA
BRANCH  12  14
ATOM     14  C   UNL     1      -9.125  -1.079   4.862  0.00  0.00    +0.075 C 
ATOM     15  C   UNL     1     -10.637  -1.309   5.021  0.00  0.00    +0.013 C 
ATOM     16  C   UNL     1     -10.538  -0.522   6.339  0.00  0.00    +0.001 C 
ATOM     17  C   UNL     1      -9.302   0.170   5.741  0.00  0.00    +0.013 C 
ENDBRANCH  12  14
ENDBRANCH   7   9
ENDBRANCH   1   4
BRANCH   1  18
ATOM     18  N   UNL     1      -1.727  -1.016  -1.368  0.00  0.00    -0.185 NA
ATOM     19  H   UNL     1      -1.326  -0.517  -2.097  0.00  0.00    +0.148 HD
BRANCH  18  20
ATOM     20  C   UNL     1      -1.294  -0.774   0.010  0.00  0.00    +0.141 C 
BRANCH  20  26
ATOM     21  C   UNL     1      -0.017   1.378   0.010  0.00  0.00    +0.009 A 
ATOM     22  C   UNL     1       1.170   2.088   0.002  0.00  0.00    +0.050 A 
ATOM     23  C   UNL     1       2.380   1.416  -0.013  0.00  0.00    +0.166 A 
ATOM     24  C   UNL     1       2.399   0.023  -0.021  0.00  0.00    +0.167 A 
ATOM     25  C   UNL     1       1.207  -0.682  -0.014  0.00  0.00    +0.054 A 
ATOM     26  C   UNL     1       0.002  -0.004   0.002  0.00  0.00    -0.028 A 
ATOM     27  O   UNL     1       3.698  -0.395  -0.036  0.00  0.00    -0.453 OA
ATOM     28  C   UNL     1       4.466   0.750  -0.450  0.00  0.00    +0.466 C 
ATOM     29  O   UNL     1       3.668   1.870  -0.024  0.00  0.00    -0.453 OA
ENDBRANCH  20  26
ENDBRANCH  18  20
ENDBRANCH   1  18
TORSDOF 6
