REMARK  Name = ZINC12882558
REMARK  4 active torsions:
REMARK  status: ('A' for Active; 'I' for Inactive)
REMARK    1  A    between atoms: C_4  and  C_7
REMARK    2  A    between atoms: C_7  and  N_8
REMARK    3  A    between atoms: C_13  and  C_30
REMARK    4  A    between atoms: C_30  and  C_31
REMARK                            x       y       z     vdW  Elec       q    Type
REMARK                         _______ _______ _______ _____ _____    ______ ____
ROOT
ATOM      1  N   UNL     1       7.048  -0.505  -0.546  0.00  0.00    -0.237 N 
ATOM      2  C   UNL     1       6.298   0.564  -0.255  0.00  0.00    +0.224 C 
ATOM      3  O   UNL     1       6.147   1.033   0.853  0.00  0.00    -0.275 OA
ATOM      4  C   UNL     1       5.668   1.096  -1.522  0.00  0.00    +0.073 C 
ATOM      5  C   UNL     1       4.143   0.863  -1.471  0.00  0.00    -0.053 C 
ATOM      6  C   UNL     1       4.928  -0.608  -3.108  0.00  0.00    +0.050 C 
ATOM      7  C   UNL     1       6.185   0.121  -2.616  0.00  0.00    +0.088 C 
ATOM      8  C   UNL     1       7.059  -0.840  -1.841  0.00  0.00    +0.225 C 
ATOM      9  O   UNL     1       7.673  -1.769  -2.320  0.00  0.00    -0.275 OA
ATOM     10  C   UNL     1       4.399   0.001  -4.376  0.00  0.00    -0.026 A 
ATOM     11  C   UNL     1       3.958   1.262  -4.710  0.00  0.00    +0.024 A 
ATOM     12  C   UNL     1       3.519   1.524  -5.997  0.00  0.00    +0.041 A 
ATOM     13  C   UNL     1       3.526   0.516  -6.944  0.00  0.00    +0.022 A 
ATOM     14  C   UNL     1       3.967  -0.748  -6.613  0.00  0.00    +0.025 A 
ATOM     15  C   UNL     1       4.410  -1.020  -5.321  0.00  0.00    +0.036 A 
ATOM     16  N   UNL     1       4.896  -2.200  -4.752  0.00  0.00    -0.286 N 
ATOM     17  C   UNL     1       5.223  -2.041  -3.455  0.00  0.00    +0.211 C 
ATOM     18  O   UNL     1       5.670  -2.889  -2.712  0.00  0.00    -0.277 OA
ATOM     19 CL   UNL     1       2.964   3.114  -6.420  0.00  0.00    -0.084 Cl
ATOM     20  H   UNL     1       4.986  -3.037  -5.235  0.00  0.00    +0.155 HD
ATOM     21  N   UNL     1       3.972  -0.483  -2.022  0.00  0.00    +0.394 N 
ATOM     22  H   UNL     1       3.015  -0.603  -2.376  0.00  0.00    -0.083 HD
ATOM     23  H   UNL     1       4.161  -1.189  -1.301  0.00  0.00    -0.083 HD
ENDROOT
BRANCH   1  24
ATOM     24  C   UNL     1       7.797  -1.248   0.470  0.00  0.00    +0.151 C 
BRANCH  24  28
ATOM     25  C   UNL     1       5.344  -4.367   2.052  0.00  0.00    +0.000 A 
ATOM     26  C   UNL     1       6.146  -4.609   0.952  0.00  0.00    +0.000 A 
ATOM     27  C   UNL     1       6.939  -3.599   0.440  0.00  0.00    +0.005 A 
ATOM     28  C   UNL     1       6.931  -2.348   1.028  0.00  0.00    -0.030 A 
ATOM     29  C   UNL     1       6.134  -2.108   2.131  0.00  0.00    +0.005 A 
ATOM     30  C   UNL     1       5.336  -3.116   2.640  0.00  0.00    +0.000 A 
ENDBRANCH  24  28
ENDBRANCH   1  24
BRANCH   5  31
ATOM     31  C   UNL     1       3.640   0.944  -0.028  0.00  0.00    +0.022 C 
BRANCH  31  32
ATOM     32  C   UNL     1       2.137   0.836  -0.014  0.00  0.00    -0.024 A 
ATOM     33  C   UNL     1       1.264   1.855   0.000  0.00  0.00    +0.087 A 
ATOM     34  N   UNL     1      -0.017   1.373   0.010  0.00  0.00    -0.360 N 
ATOM     35  H   UNL     1      -0.818   1.919   0.017  0.00  0.00    +0.165 HD
ATOM     36  C   UNL     1       0.002  -0.004   0.002  0.00  0.00    +0.047 A 
ATOM     37  C   UNL     1       1.352  -0.401  -0.013  0.00  0.00    +0.003 A 
ATOM     38  C   UNL     1       1.679  -1.758  -0.024  0.00  0.00    +0.010 A 
ATOM     39  C   UNL     1       0.685  -2.695  -0.020  0.00  0.00    +0.001 A 
ATOM     40  C   UNL     1      -0.648  -2.309  -0.005  0.00  0.00    +0.002 A 
ATOM     41  C   UNL     1      -0.993  -0.975   0.006  0.00  0.00    +0.026 A 
ENDBRANCH  31  32
ENDBRANCH   5  31
TORSDOF 4
