REMARK  Name = ZINC39710414
REMARK  11 active torsions:
REMARK  status: ('A' for Active; 'I' for Inactive)
REMARK    1  A    between atoms: C_1  and  C_2
REMARK    2  A    between atoms: C_2  and  C_3
REMARK    3  A    between atoms: C_10  and  C_15
REMARK    4  A    between atoms: C_15  and  C_17
REMARK    5  A    between atoms: C_15  and  N_26
REMARK    6  A    between atoms: N_21  and  C_22
REMARK    7  A    between atoms: C_22  and  C_23
REMARK    8  A    between atoms: C_23  and  O_24
REMARK    9  A    between atoms: O_24  and  C_25
REMARK   10  A    between atoms: N_29  and  C_32
REMARK   11  A    between atoms: C_37  and  C_38
REMARK                            x       y       z     vdW  Elec       q    Type
REMARK                         _______ _______ _______ _____ _____    ______ ____
ROOT
ATOM      1  C   UNL     1       5.375  -3.216  -3.436  0.00  0.00    +0.142 C 
ENDROOT
BRANCH   1   9
ATOM      2  C   UNL     1       0.707  -0.490  -1.238  0.00  0.00    -0.047 A 
ATOM      3  C   UNL     1      -0.031  -0.716  -2.400  0.00  0.00    +0.005 A 
ATOM      4  C   UNL     1       0.535  -1.153  -3.555  0.00  0.00    +0.024 A 
ATOM      5  C   UNL     1       1.918  -1.400  -3.623  0.00  0.00    +0.040 A 
ATOM      6  N   UNL     1       2.463  -1.829  -4.762  0.00  0.00    -0.284 N 
ATOM      7  C   UNL     1       3.754  -2.080  -4.895  0.00  0.00    +0.226 C 
ATOM      8  O   UNL     1       4.194  -2.469  -5.960  0.00  0.00    -0.275 OA
ATOM      9  C   UNL     1       4.682  -1.881  -3.718  0.00  0.00    +0.123 C 
ATOM     10  C   UNL     1       4.068  -1.393  -2.421  0.00  0.00    -0.003 C 
ATOM     11  C   UNL     1       2.723  -1.170  -2.411  0.00  0.00    -0.007 A 
ATOM     12  C   UNL     1       2.050  -0.694  -1.202  0.00  0.00    +0.013 A 
ATOM     13  H   UNL     1       1.884  -1.962  -5.529  0.00  0.00    +0.155 HD
BRANCH   2  15
ATOM     14  C   UNL     1      -0.019   1.526   0.010  0.00  0.00    +0.009 C 
ATOM     15  C   UNL     1       0.002  -0.004   0.002  0.00  0.00    +0.032 C 
ENDBRANCH   2  15
ENDBRANCH   1   9
BRANCH   1  16
ATOM     16  N   UNL     1       6.138  -3.632  -4.621  0.00  0.00    -0.289 NA
ATOM     17  C   UNL     1       7.245  -2.704  -4.886  0.00  0.00    +0.104 C 
ATOM     18  C   UNL     1       7.901  -3.066  -6.223  0.00  0.00    +0.120 C 
ATOM     19  N   UNL     1       8.275  -4.488  -6.191  0.00  0.00    -0.327 N 
ATOM     20  C   UNL     1       7.251  -5.468  -5.798  0.00  0.00    +0.120 C 
ATOM     21  C   UNL     1       6.621  -5.012  -4.478  0.00  0.00    +0.104 C 
BRANCH  19  22
ATOM     22  C   UNL     1       9.568  -4.897  -6.524  0.00  0.00    +0.034 A 
ATOM     23  C   UNL     1      10.543  -4.993  -5.540  0.00  0.00    +0.043 A 
ATOM     24  C   UNL     1      11.822  -5.397  -5.873  0.00  0.00    +0.043 A 
ATOM     25  C   UNL     1      12.130  -5.708  -7.186  0.00  0.00    +0.020 A 
ATOM     26  C   UNL     1      11.161  -5.613  -8.168  0.00  0.00    +0.006 A 
ATOM     27  C   UNL     1       9.880  -5.215  -7.840  0.00  0.00    -0.029 A 
ATOM     28  C   UNL     1       8.823  -5.119  -8.910  0.00  0.00    +0.045 C 
ATOM     29 CL   UNL     1      13.042  -5.517  -4.644  0.00  0.00    -0.083 Cl
ENDBRANCH  19  22
ENDBRANCH   1  16
BRANCH   1  30
ATOM     30  C   UNL     1       6.312  -3.058  -2.266  0.00  0.00    +0.170 A 
ATOM     31  N   UNL     1       7.475  -2.454  -2.270  0.00  0.00    -0.112 NA
ATOM     32  N   UNL     1       7.968  -2.531  -1.082  0.00  0.00    -0.023 NA
ATOM     33  N   UNL     1       7.149  -3.168  -0.320  0.00  0.00    -0.044 NA
ATOM     34  N   UNL     1       6.113  -3.505  -1.012  0.00  0.00    -0.225 N 
BRANCH  34  35
ATOM     35  C   UNL     1       4.943  -4.240  -0.525  0.00  0.00    +0.175 C 
BRANCH  35  36
ATOM     36  C   UNL     1       5.175  -5.742  -0.699  0.00  0.00    +0.183 C 
BRANCH  36  37
ATOM     37  O   UNL     1       4.033  -6.458  -0.224  0.00  0.00    -0.381 OA
ATOM     38  C   UNL     1       4.147  -7.878  -0.341  0.00  0.00    +0.194 C 
ENDBRANCH  36  37
ENDBRANCH  35  36
ENDBRANCH  34  35
ENDBRANCH   1  30
TORSDOF 8
