REMARK  Name = ZINC06165872
REMARK  16 active torsions:
REMARK  status: ('A' for Active; 'I' for Inactive)
REMARK    1  A    between atoms: C_1  and  N_66
REMARK    2  A    between atoms: C_2  and  N_66
REMARK    3  A    between atoms: C_3  and  C_4
REMARK    4  A    between atoms: C_3  and  N_66
REMARK    5  A    between atoms: C_4  and  C_5
REMARK    6  A    between atoms: C_5  and  N_6
REMARK    7  A    between atoms: C_7  and  C_28
REMARK    8  A    between atoms: C_9  and  C_14
REMARK    9  A    between atoms: C_10  and  O_13
REMARK   10  A    between atoms: C_14  and  C_16
REMARK   11  A    between atoms: C_19  and  S_22
REMARK   12  A    between atoms: S_22  and  N_25
REMARK   13  A    between atoms: N_25  and  C_26
REMARK   14  A    between atoms: N_25  and  C_27
REMARK   15  A    between atoms: C_31  and  O_34
REMARK   16  A    between atoms: O_34  and  C_35
REMARK                            x       y       z     vdW  Elec       q    Type
REMARK                         _______ _______ _______ _____ _____    ______ ____
ROOT
ATOM      1  N   UNL     1      -2.569   4.111   0.504  0.00  0.00    -0.284 N 
ATOM      2  C   UNL     1      -1.269   3.515   0.174  0.00  0.00    +0.144 C 
ATOM      3  C   UNL     1      -1.503   2.026   0.070  0.00  0.00    +0.071 C 
ATOM      4  C   UNL     1      -2.818   1.819   0.315  0.00  0.00    +0.188 C 
ATOM      5  C   UNL     1      -3.471   3.117   0.588  0.00  0.00    +0.282 C 
ATOM      6  O   UNL     1      -4.649   3.264   0.847  0.00  0.00    -0.267 OA
ENDROOT
BRANCH   2   7
ATOM      7  C   UNL     1      -0.770   4.055  -1.141  0.00  0.00    -0.022 A 
ATOM      8  C   UNL     1      -1.624   4.125  -2.227  0.00  0.00    +0.009 A 
ATOM      9  C   UNL     1      -1.170   4.625  -3.432  0.00  0.00    +0.046 A 
ATOM     10  C   UNL     1       0.146   5.046  -3.556  0.00  0.00    +0.120 A 
ATOM     11  C   UNL     1       1.002   4.969  -2.467  0.00  0.00    +0.046 A 
ATOM     12  C   UNL     1       0.542   4.474  -1.262  0.00  0.00    +0.009 A 
BRANCH  10  13
ATOM     13  O   UNL     1       0.596   5.532  -4.743  0.00  0.00    -0.495 OA
ATOM     14  C   UNL     1      -0.341   5.581  -5.821  0.00  0.00    +0.277 C 
ENDBRANCH  10  13
ENDBRANCH   2   7
BRANCH   4  15
ATOM     15  O   UNL     1      -3.435   0.616   0.312  0.00  0.00    -0.502 OA
ATOM     16  H   UNL     1      -4.405   0.738   0.522  0.00  0.00    +0.292 HD
ENDBRANCH   4  15
BRANCH   3  17
ATOM     17  C   UNL     1      -0.500   1.004  -0.243  0.00  0.00    +0.195 C 
ATOM     18  O   UNL     1      -0.576   0.374  -1.282  0.00  0.00    -0.287 OA
BRANCH  17  19
ATOM     19  C   UNL     1       0.608   0.742   0.700  0.00  0.00    +0.022 A 
ATOM     20  C   UNL     1       0.738   1.508   1.860  0.00  0.00    +0.013 A 
ATOM     21  C   UNL     1       1.770   1.255   2.739  0.00  0.00    +0.029 A 
ATOM     22  C   UNL     1       2.683   0.251   2.468  0.00  0.00    +0.105 A 
ATOM     23  C   UNL     1       2.564  -0.509   1.317  0.00  0.00    +0.029 A 
ATOM     24  C   UNL     1       1.533  -0.270   0.433  0.00  0.00    +0.013 A 
BRANCH  22  25
ATOM     25  S   UNL     1       4.003  -0.061   3.592  0.00  0.00    +0.060 S 
ATOM     26  O   UNL     1       3.580   0.421   4.860  0.00  0.00    -0.153 OA
ATOM     27  O   UNL     1       4.404  -1.409   3.384  0.00  0.00    -0.153 OA
BRANCH  25  28
ATOM     28  N   UNL     1       5.278   0.888   3.126  0.00  0.00    -0.183 NA
ATOM     29  C   UNL     1       5.422   2.240   3.671  0.00  0.00    +0.131 C 
ATOM     30  C   UNL     1       6.261   0.376   2.168  0.00  0.00    +0.131 C 
ENDBRANCH  25  28
ENDBRANCH  22  25
ENDBRANCH  17  19
ENDBRANCH   3  17
BRANCH   1  31
ATOM     31  C   UNL     1      -2.837   5.537   0.706  0.00  0.00    +0.107 C 
BRANCH  31  32
ATOM     32  C   UNL     1      -3.220   6.178  -0.630  0.00  0.00    +0.000 C 
BRANCH  32  33
ATOM     33  C   UNL     1      -3.501   7.668  -0.419  0.00  0.00    -0.078 C 
BRANCH  33  36
ATOM     34  C   UNL     1      -4.372   9.649  -1.504  0.00  0.00    -0.097 C 
ATOM     35  C   UNL     1      -2.736   8.269  -2.636  0.00  0.00    -0.097 C 
ATOM     36  N   UNL     1      -3.890   8.267  -1.713  0.00  0.00    +0.376 N 
ATOM     37  H   UNL     1      -4.646   7.708  -2.125  0.00  0.00    -0.083 HD
ENDBRANCH  33  36
ENDBRANCH  32  33
ENDBRANCH  31  32
ENDBRANCH   1  31
TORSDOF 11
