REMARK  Name = ZINC09136468
REMARK  12 active torsions:
REMARK  status: ('A' for Active; 'I' for Inactive)
REMARK    1  A    between atoms: C_1  and  C_2
REMARK    2  A    between atoms: C_2  and  O_3
REMARK    3  A    between atoms: O_3  and  C_4
REMARK    4  A    between atoms: C_4  and  C_6
REMARK    5  A    between atoms: C_7  and  C_35
REMARK    6  A    between atoms: C_14  and  C_15
REMARK    7  A    between atoms: C_19  and  O_21
REMARK    8  A    between atoms: C_23  and  C_25
REMARK    9  A    between atoms: C_28  and  O_33
REMARK   10  A    between atoms: C_29  and  O_31
REMARK   11  A    between atoms: O_31  and  C_32
REMARK   12  A    between atoms: O_33  and  C_34
REMARK                            x       y       z     vdW  Elec       q    Type
REMARK                         _______ _______ _______ _____ _____    ______ ____
ROOT
ATOM      1  C   UNL     1       1.546  -0.153   1.603  0.00  0.00    +0.085 C 
ATOM      2  C   UNL     1       2.543   0.754   1.374  0.00  0.00    +0.053 C 
ATOM      3  N   UNL     1       2.253   2.014   1.076  0.00  0.00    -0.228 NA
ATOM      4  C   UNL     1       1.041   2.498   0.975  0.00  0.00    +0.178 A 
ATOM      5  N   UNL     1      -0.103   1.757   1.166  0.00  0.00    -0.275 N 
ATOM      6  C   UNL     1      -1.290   2.364   1.041  0.00  0.00    +0.268 A 
ATOM      7  O   UNL     1      -2.329   1.751   1.206  0.00  0.00    -0.266 OA
ATOM      8  C   UNL     1      -1.301   3.794   0.693  0.00  0.00    +0.081 A 
ATOM      9  C   UNL     1      -2.355   4.628   0.506  0.00  0.00    +0.028 C 
ATOM     10  S   UNL     1       0.449   4.135   0.590  0.00  0.00    -0.046 S 
ATOM     11  C   UNL     1       0.115   0.323   1.507  0.00  0.00    +0.162 C 
ATOM     12  C   UNL     1       3.983   0.319   1.461  0.00  0.00    +0.066 C 
ENDROOT
BRANCH   9  13
ATOM     13  C   UNL     1      -3.721   4.088   0.461  0.00  0.00    -0.020 A 
ATOM     14  C   UNL     1      -4.770   4.774   1.084  0.00  0.00    +0.008 A 
ATOM     15  C   UNL     1      -6.049   4.263   1.038  0.00  0.00    +0.004 A 
ATOM     16  C   UNL     1      -6.302   3.074   0.378  0.00  0.00    +0.045 A 
ATOM     17  C   UNL     1      -5.269   2.384  -0.244  0.00  0.00    +0.117 A 
ATOM     18  C   UNL     1      -3.980   2.888  -0.210  0.00  0.00    +0.053 A 
BRANCH  17  19
ATOM     19  O   UNL     1      -5.524   1.216  -0.890  0.00  0.00    -0.507 OA
ATOM     20  H   UNL     1      -5.750   1.325  -1.824  0.00  0.00    +0.292 HD
ENDBRANCH  17  19
ENDBRANCH   9  13
BRANCH  11  21
ATOM     21  C   UNL     1      -0.553   0.055   2.831  0.00  0.00    -0.016 A 
ATOM     22  C   UNL     1      -1.397  -1.032   2.970  0.00  0.00    +0.010 A 
ATOM     23  C   UNL     1      -2.007  -1.285   4.184  0.00  0.00    +0.050 A 
ATOM     24  C   UNL     1      -1.783  -0.444   5.262  0.00  0.00    +0.162 A 
ATOM     25  C   UNL     1      -0.939   0.653   5.120  0.00  0.00    +0.162 A 
ATOM     26  C   UNL     1      -0.325   0.899   3.902  0.00  0.00    +0.055 A 
BRANCH  25  27
ATOM     27  O   UNL     1      -0.716   1.483   6.174  0.00  0.00    -0.491 OA
ATOM     28  C   UNL     1       0.072   2.649   5.928  0.00  0.00    +0.277 C 
ENDBRANCH  25  27
BRANCH  24  29
ATOM     29  O   UNL     1      -2.388  -0.688   6.455  0.00  0.00    -0.491 OA
ATOM     30  C   UNL     1      -3.242  -1.832   6.527  0.00  0.00    +0.277 C 
ENDBRANCH  24  29
ENDBRANCH  11  21
BRANCH   1  31
ATOM     31  C   UNL     1       1.844  -1.489   1.920  0.00  0.00    +0.339 C 
ATOM     32  O   UNL     1       2.993  -1.887   1.862  0.00  0.00    -0.245 OA
BRANCH  31  33
ATOM     33  O   UNL     1       0.855  -2.332   2.289  0.00  0.00    -0.462 OA
BRANCH  33  35
ATOM     34  C   UNL     1      -0.009  -4.486   2.961  0.00  0.00    +0.048 C 
ATOM     35  C   UNL     1       1.241  -3.644   2.703  0.00  0.00    +0.229 C 
ENDBRANCH  33  35
ENDBRANCH  31  33
ENDBRANCH   1  31
TORSDOF 8
