REMARK  Name = ZINC12186453
REMARK  7 active torsions:
REMARK  status: ('A' for Active; 'I' for Inactive)
REMARK    1  A    between atoms: C_1  and  C_2
REMARK    2  A    between atoms: C_5  and  C_7
REMARK    3  A    between atoms: C_7  and  N_45
REMARK    4  A    between atoms: C_8  and  C_9
REMARK    5  A    between atoms: C_8  and  N_45
REMARK    6  A    between atoms: C_12  and  C_26
REMARK    7  A    between atoms: N_14  and  C_20
REMARK                            x       y       z     vdW  Elec       q    Type
REMARK                         _______ _______ _______ _____ _____    ______ ____
ROOT
ATOM      1  C   UNL     1      -4.437   2.057   0.895  0.00  0.00    +0.001 A 
ATOM      2  C   UNL     1      -3.190   1.730   0.466  0.00  0.00    +0.020 A 
ATOM      3  C   UNL     1      -2.103   1.834   1.364  0.00  0.00    +0.040 A 
ATOM      4  C   UNL     1      -0.718   1.572   1.248  0.00  0.00    +0.070 A 
ATOM      5  N   UNL     1      -0.156   1.828   2.395  0.00  0.00    -0.169 NA
ATOM      6  N   UNL     1      -1.129   2.257   3.305  0.00  0.00    -0.216 N 
ATOM      7  C   UNL     1      -2.332   2.259   2.675  0.00  0.00    +0.145 A 
ATOM      8  N   UNL     1      -3.600   2.582   3.076  0.00  0.00    -0.307 N 
ATOM      9  H   UNL     1      -3.755   2.881   3.986  0.00  0.00    +0.170 HD
ATOM     10  C   UNL     1      -4.635   2.488   2.220  0.00  0.00    +0.252 A 
ATOM     11  O   UNL     1      -5.758   2.780   2.597  0.00  0.00    -0.268 OA
ATOM     12  C   UNL     1      -0.013   1.086   0.008  0.00  0.00    +0.068 C 
ENDROOT
BRANCH   6  13
ATOM     13  C   UNL     1      -0.901   2.623   4.639  0.00  0.00    +0.068 A 
ATOM     14  C   UNL     1      -1.639   3.648   5.215  0.00  0.00    +0.028 A 
ATOM     15  C   UNL     1      -1.416   4.003   6.531  0.00  0.00    +0.002 A 
ATOM     16  C   UNL     1      -0.450   3.346   7.271  0.00  0.00    +0.000 A 
ATOM     17  C   UNL     1       0.291   2.328   6.698  0.00  0.00    +0.002 A 
ATOM     18  C   UNL     1       0.069   1.966   5.385  0.00  0.00    +0.028 A 
ENDBRANCH   6  13
BRANCH   1  19
ATOM     19  C   UNL     1      -5.609   1.959  -0.048  0.00  0.00    -0.041 C 
BRANCH  19  20
ATOM     20  N   UNL     1      -6.267   0.652   0.134  0.00  0.00    +0.387 N 
ATOM     21  H   UNL     1      -5.595  -0.097  -0.067  0.00  0.00    -0.085 HD
ATOM     22  H   UNL     1      -6.593   0.569   1.104  0.00  0.00    -0.085 HD
BRANCH  20  23
ATOM     23  C   UNL     1      -7.420   0.528  -0.778  0.00  0.00    -0.006 C 
BRANCH  23  28
ATOM     24  C   UNL     1      -8.508  -4.373  -1.264  0.00  0.00    +0.086 C 
ATOM     25  C   UNL     1      -8.545  -2.946  -0.782  0.00  0.00    +0.102 A 
ATOM     26  C   UNL     1      -9.367  -2.456   0.164  0.00  0.00    +0.044 A 
ATOM     27  C   UNL     1      -9.062  -1.082   0.300  0.00  0.00    +0.043 A 
ATOM     28  C   UNL     1      -8.072  -0.815  -0.570  0.00  0.00    +0.088 A 
ATOM     29  O   UNL     1      -7.767  -1.946  -1.227  0.00  0.00    -0.467 OA
ENDBRANCH  23  28
ENDBRANCH  20  23
ENDBRANCH  19  20
ENDBRANCH   1  19
TORSDOF 5
