REMARK  Name = ZINC24196120
REMARK  9 active torsions:
REMARK  status: ('A' for Active; 'I' for Inactive)
REMARK    1  A    between atoms: C_1  and  C_2
REMARK    2  A    between atoms: C_5  and  N_9
REMARK    3  A    between atoms: C_7  and  C_8
REMARK    4  A    between atoms: C_10  and  C_31
REMARK    5  A    between atoms: C_13  and  S_14
REMARK    6  A    between atoms: S_14  and  C_15
REMARK    7  A    between atoms: C_15  and  C_16
REMARK    8  A    between atoms: C_28  and  C_29
REMARK    9  A    between atoms: C_28  and  C_30
REMARK                            x       y       z     vdW  Elec       q    Type
REMARK                         _______ _______ _______ _____ _____    ______ ____
ROOT
ATOM      1  N   UNL     1       2.399   4.536   1.361  0.00  0.00    -0.270 N 
ATOM      2  C   UNL     1       1.290   3.726   1.481  0.00  0.00    +0.169 A 
ATOM      3  N   UNL     1       0.240   4.470   1.219  0.00  0.00    -0.128 NA
ATOM      4  N   UNL     1       0.609   5.670   0.943  0.00  0.00    -0.122 NA
ATOM      5  C   UNL     1       1.919   5.767   1.010  0.00  0.00    +0.197 A 
ENDROOT
BRANCH   1  10
ATOM      6  C   UNL     1       7.824   3.065   2.143  0.00  0.00    +0.044 C 
ATOM      7  C   UNL     1       6.384   3.455   1.936  0.00  0.00    -0.047 A 
ATOM      8  C   UNL     1       5.660   2.895   0.899  0.00  0.00    +0.005 A 
ATOM      9  C   UNL     1       4.339   3.251   0.706  0.00  0.00    +0.026 A 
ATOM     10  C   UNL     1       3.739   4.172   1.554  0.00  0.00    +0.051 A 
ATOM     11  C   UNL     1       4.470   4.736   2.591  0.00  0.00    +0.030 A 
ATOM     12  C   UNL     1       5.789   4.372   2.782  0.00  0.00    -0.046 A 
ATOM     13  C   UNL     1       6.582   4.981   3.910  0.00  0.00    +0.044 C 
ENDBRANCH   1  10
BRANCH   2  14
ATOM     14  C   UNL     1       1.284   2.294   1.843  0.00  0.00    +0.022 A 
ATOM     15  C   UNL     1       0.144   1.506   1.640  0.00  0.00    +0.031 A 
ATOM     16  C   UNL     1       0.182   0.173   1.992  0.00  0.00    +0.111 A 
ATOM     17  N   UNL     1       1.271  -0.360   2.512  0.00  0.00    -0.263 NA
ATOM     18  C   UNL     1       2.366   0.347   2.720  0.00  0.00    +0.111 A 
ATOM     19  C   UNL     1       2.417   1.687   2.398  0.00  0.00    +0.031 A 
ENDBRANCH   2  14
BRANCH   5  20
ATOM     20  S   UNL     1       2.877   7.216   0.712  0.00  0.00    -0.076 S 
BRANCH  20  21
ATOM     21  C   UNL     1       1.556   8.391   0.322  0.00  0.00    +0.173 C 
BRANCH  21  22
ATOM     22  C   UNL     1       2.156   9.740   0.023  0.00  0.00    +0.231 C 
ATOM     23  O   UNL     1       3.335   9.834  -0.245  0.00  0.00    -0.274 OA
ATOM     24  N   UNL     1       1.382  10.844   0.054  0.00  0.00    -0.255 N 
ATOM     25  C   UNL     1       0.034  10.772   0.436  0.00  0.00    +0.059 A 
ATOM     26  C   UNL     1      -0.710   9.625   0.221  0.00  0.00    +0.025 A 
ATOM     27  C   UNL     1      -2.038   9.587   0.605  0.00  0.00    +0.002 A 
ATOM     28  C   UNL     1      -2.622  10.690   1.202  0.00  0.00    +0.002 A 
ATOM     29  C   UNL     1      -1.884  11.838   1.422  0.00  0.00    +0.025 A 
ATOM     30  C   UNL     1      -0.552  11.885   1.042  0.00  0.00    +0.055 A 
ATOM     31  N   UNL     1       0.216  13.033   1.265  0.00  0.00    -0.282 N 
ATOM     32  C   UNL     1       1.409  13.191   0.662  0.00  0.00    +0.241 C 
ATOM     33  O   UNL     1       2.077  14.174   0.903  0.00  0.00    -0.273 OA
ATOM     34  C   UNL     1       1.926  12.162  -0.305  0.00  0.00    +0.113 C 
ATOM     35  C   UNL     1       3.454  12.121  -0.240  0.00  0.00    +0.042 C 
ATOM     36  C   UNL     1       1.482  12.529  -1.723  0.00  0.00    +0.042 C 
ATOM     37  H   UNL     1      -0.153  13.819   1.940  0.00  0.00    +0.155 HD
ENDBRANCH  21  22
ENDBRANCH  20  21
ENDBRANCH   5  20
TORSDOF 5
