REMARK  Name = ZINC44728475
REMARK  11 active torsions:
REMARK  status: ('A' for Active; 'I' for Inactive)
REMARK    1  A    between atoms: C_1  and  C_2
REMARK    2  A    between atoms: C_11  and  C_12
REMARK    3  A    between atoms: C_12  and  C_13
REMARK    4  A    between atoms: C_13  and  N_14
REMARK    5  A    between atoms: C_15  and  C_17
REMARK    6  A    between atoms: C_28  and  C_30
REMARK    7  A    between atoms: C_32  and  C_39
REMARK    8  A    between atoms: N_34  and  C_35
REMARK    9  A    between atoms: C_35  and  C_36
REMARK   10  A    between atoms: C_35  and  C_37
REMARK   11  A    between atoms: C_35  and  C_38
REMARK                            x       y       z     vdW  Elec       q    Type
REMARK                         _______ _______ _______ _____ _____    ______ ____
ROOT
ATOM      1  C   UNL     1       2.753  -8.297   4.056  0.00  0.00    +0.100 C 
ATOM      2  C   UNL     1       1.999  -8.194   5.401  0.00  0.00    +0.121 C 
ATOM      3  N   UNL     1       2.749  -9.084   6.319  0.00  0.00    -0.295 N 
ATOM      4  C   UNL     1       4.172  -8.858   5.971  0.00  0.00    +0.115 C 
ATOM      5  C   UNL     1       4.178  -8.733   4.434  0.00  0.00    -0.004 C 
ATOM      6  C   UNL     1       4.506 -10.079   3.796  0.00  0.00    -0.010 C 
ATOM      7  C   UNL     1       5.948 -10.464   4.140  0.00  0.00    -0.082 C 
ATOM      8  N   UNL     1       6.864  -9.429   3.645  0.00  0.00    +0.379 N 
ATOM      9  C   UNL     1       6.602  -8.159   4.332  0.00  0.00    -0.082 C 
ATOM     10  C   UNL     1       5.188  -7.676   3.997  0.00  0.00    -0.010 C 
ATOM     11  C   UNL     1       2.249  -9.911   7.259  0.00  0.00    +0.265 C 
ATOM     12  O   UNL     1       3.000 -10.590   7.933  0.00  0.00    -0.268 OA
ATOM     13  H   UNL     1       7.816  -9.714   3.819  0.00  0.00    -0.086 HD
ATOM     14  H   UNL     1       6.727  -9.308   2.653  0.00  0.00    -0.086 HD
ENDROOT
BRANCH  11  15
ATOM     15  C   UNL     1       0.795  -9.993   7.469  0.00  0.00    +0.124 A 
ATOM     16  C   UNL     1      -0.169  -9.149   6.946  0.00  0.00    +0.057 A 
ATOM     17  C   UNL     1      -1.387  -9.633   7.429  0.00  0.00    +0.061 A 
ATOM     18  N   UNL     1      -1.135 -10.678   8.175  0.00  0.00    -0.175 NA
ATOM     19  N   UNL     1       0.125 -10.920   8.216  0.00  0.00    -0.254 N 
ATOM     20  C   UNL     1      -2.748  -9.053   7.143  0.00  0.00    +0.067 C 
BRANCH  19  21
ATOM     21  C   UNL     1       0.750 -12.021   8.954  0.00  0.00    +0.056 C 
ATOM     22  C   UNL     1       1.646 -11.452  10.056  0.00  0.00    +0.036 C 
ATOM     23  C   UNL     1      -0.337 -12.896   9.581  0.00  0.00    +0.036 C 
ATOM     24  C   UNL     1       1.594 -12.864   7.995  0.00  0.00    +0.036 C 
ENDBRANCH  19  21
ENDBRANCH  11  15
BRANCH   1  26
ATOM     25  N   UNL     1       2.801  -6.894   2.020  0.00  0.00    -0.315 N 
ATOM     26  C   UNL     1       2.779  -6.958   3.366  0.00  0.00    +0.218 C 
ATOM     27  O   UNL     1       2.781  -5.938   4.021  0.00  0.00    -0.275 OA
ATOM     28  H   UNL     1       2.873  -7.708   1.497  0.00  0.00    +0.149 HD
BRANCH  25  29
ATOM     29  C   UNL     1       2.716  -5.596   1.347  0.00  0.00    +0.109 C 
BRANCH  29  30
ATOM     30  C   UNL     1       2.762  -5.803  -0.169  0.00  0.00    +0.056 C 
BRANCH  30  41
ATOM     31  C   UNL     1       3.467  -0.204  -2.903  0.00  0.00    +0.046 C 
ATOM     32  C   UNL     1       4.051  -1.403  -2.202  0.00  0.00    -0.027 A 
ATOM     33  C   UNL     1       5.405  -1.468  -1.955  0.00  0.00    +0.005 A 
ATOM     34  C   UNL     1       5.956  -2.566  -1.310  0.00  0.00    +0.001 A 
ATOM     35  C   UNL     1       5.163  -3.604  -0.908  0.00  0.00    +0.010 A 
ATOM     36  C   UNL     1       3.788  -3.559  -1.147  0.00  0.00    +0.003 A 
ATOM     37  C   UNL     1       3.225  -2.445  -1.796  0.00  0.00    +0.050 A 
ATOM     38  N   UNL     1       1.870  -2.672  -1.889  0.00  0.00    -0.360 N 
ATOM     39  H   UNL     1       1.230  -2.067  -2.296  0.00  0.00    +0.165 HD
ATOM     40  C   UNL     1       1.560  -3.877  -1.321  0.00  0.00    +0.087 A 
ATOM     41  C   UNL     1       2.675  -4.467  -0.861  0.00  0.00    -0.021 A 
ENDBRANCH  30  41
ENDBRANCH  29  30
ENDBRANCH  25  29
ENDBRANCH   1  26
TORSDOF 6
