REMARK  Name = ZINC39214645
REMARK  5 active torsions:
REMARK  status: ('A' for Active; 'I' for Inactive)
REMARK    1  A    between atoms: C_1  and  O_2
REMARK    2  A    between atoms: O_2  and  C_3
REMARK    3  A    between atoms: C_6  and  C_9
REMARK    4  A    between atoms: C_20  and  N_24
REMARK    5  A    between atoms: C_21  and  C_22
REMARK                            x       y       z     vdW  Elec       q    Type
REMARK                         _______ _______ _______ _____ _____    ______ ____
ROOT
ATOM      1  C   UNL     1      -4.981  -2.629   0.035  0.00  0.00    +0.085 C 
ATOM      2  C   UNL     1      -5.087  -3.505   1.287  0.00  0.00    +0.175 C 
ATOM      3  C   UNL     1      -4.215  -4.719   1.004  0.00  0.00    +0.212 C 
ATOM      4  N   UNL     1      -3.211  -4.960   1.801  0.00  0.00    -0.207 NA
ATOM      5  C   UNL     1      -2.923  -4.168   2.829  0.00  0.00    +0.214 C 
ATOM      6  N   UNL     1      -3.576  -3.081   3.152  0.00  0.00    -0.168 NA
ATOM      7  C   UNL     1      -4.657  -2.649   2.466  0.00  0.00    +0.251 C 
ATOM      8  O   UNL     1      -5.252  -1.633   2.765  0.00  0.00    -0.273 OA
ATOM      9  O   UNL     1      -4.508  -5.474  -0.063  0.00  0.00    -0.426 OA
ATOM     10  C   UNL     1      -4.864  -4.814  -1.191  0.00  0.00    +0.200 C 
ATOM     11  C   UNL     1      -5.103  -3.486  -1.195  0.00  0.00    +0.095 C 
ENDROOT
BRANCH   1  15
ATOM     12  C   UNL     1      -1.200  -0.637   0.010  0.00  0.00    +0.120 A 
ATOM     13  C   UNL     1      -2.375   0.101   0.019  0.00  0.00    +0.046 A 
ATOM     14  C   UNL     1      -3.596  -0.545   0.027  0.00  0.00    +0.008 A 
ATOM     15  C   UNL     1      -3.648  -1.927   0.026  0.00  0.00    -0.038 A 
ATOM     16  C   UNL     1      -2.479  -2.665   0.017  0.00  0.00    +0.008 A 
ATOM     17  C   UNL     1      -1.255  -2.024   0.003  0.00  0.00    +0.046 A 
BRANCH  12  19
ATOM     18  C   UNL     1      -0.017   1.425   0.010  0.00  0.00    +0.277 C 
ATOM     19  O   UNL     1       0.002  -0.004   0.002  0.00  0.00    -0.495 OA
ENDBRANCH  12  19
ENDBRANCH   1  15
BRANCH  10  20
ATOM     20  N   UNL     1      -4.982  -5.517  -2.365  0.00  0.00    -0.328 N 
ATOM     21  H   UNL     1      -4.813  -6.472  -2.377  0.00  0.00    +0.145 HD
ATOM     22  H   UNL     1      -5.236  -5.059  -3.181  0.00  0.00    +0.145 HD
ENDBRANCH  10  20
BRANCH  11  23
ATOM     23  C   UNL     1      -5.492  -2.866  -2.426  0.00  0.00    +0.100 C 
ATOM     24  N   UNL     1      -5.800  -2.374  -3.402  0.00  0.00    -0.191 NA
ENDBRANCH  11  23
TORSDOF 4
