REMARK  Name = ZINC06409822
REMARK  9 active torsions:
REMARK  status: ('A' for Active; 'I' for Inactive)
REMARK    1  A    between atoms: C_1  and  C_2
REMARK    2  A    between atoms: C_7  and  C_14
REMARK    3  A    between atoms: C_14  and  C_16
REMARK    4  A    between atoms: C_14  and  N_67
REMARK    5  A    between atoms: N_20  and  C_21
REMARK    6  A    between atoms: C_26  and  C_27
REMARK    7  A    between atoms: C_26  and  N_67
REMARK    8  A    between atoms: C_34  and  C_35
REMARK    9  A    between atoms: C_34  and  N_67
REMARK                            x       y       z     vdW  Elec       q    Type
REMARK                         _______ _______ _______ _____ _____    ______ ____
ROOT
ATOM      1  C   UNL     1       2.491  -1.111  -0.468  0.00  0.00    +0.040 C 
ENDROOT
BRANCH   1   8
ATOM      2  C   UNL     1       4.436  -4.261   6.598  0.00  0.00    +0.044 C 
ATOM      3  C   UNL     1       4.029  -3.469   5.382  0.00  0.00    -0.048 A 
ATOM      4  C   UNL     1       3.659  -2.138   5.521  0.00  0.00    +0.004 A 
ATOM      5  C   UNL     1       3.285  -1.402   4.433  0.00  0.00    +0.010 A 
ATOM      6  C   UNL     1       3.276  -1.995   3.165  0.00  0.00    -0.001 A 
ATOM      7  C   UNL     1       2.887  -1.235   1.976  0.00  0.00    +0.017 A 
ATOM      8  C   UNL     1       2.891  -1.864   0.775  0.00  0.00    +0.011 A 
ATOM      9  C   UNL     1       3.276  -3.219   0.684  0.00  0.00    +0.251 A 
ATOM     10  O   UNL     1       3.277  -3.764  -0.406  0.00  0.00    -0.268 OA
ATOM     11  N   UNL     1       3.640  -3.923   1.769  0.00  0.00    -0.322 N 
ATOM     12  H   UNL     1       3.899  -4.853   1.671  0.00  0.00    +0.169 HD
ATOM     13  C   UNL     1       3.651  -3.344   3.020  0.00  0.00    +0.049 A 
ATOM     14  C   UNL     1       4.027  -4.073   4.144  0.00  0.00    +0.029 A 
ENDBRANCH   1   8
BRANCH   1  15
ATOM     15  C   UNL     1       2.234   0.332  -0.120  0.00  0.00    +0.143 A 
ATOM     16  N   UNL     1       3.093   1.179   0.392  0.00  0.00    -0.115 NA
ATOM     17  N   UNL     1       2.495   2.310   0.544  0.00  0.00    -0.023 NA
ATOM     18  N   UNL     1       1.278   2.208   0.137  0.00  0.00    -0.044 NA
ATOM     19  N   UNL     1       1.077   1.002  -0.275  0.00  0.00    -0.227 N 
BRANCH  19  20
ATOM     20  C   UNL     1      -0.175   0.465  -0.814  0.00  0.00    +0.111 C 
ATOM     21  C   UNL     1      -1.308   0.622   0.221  0.00  0.00    +0.027 C 
ATOM     22  C   UNL     1      -2.015   1.939  -0.188  0.00  0.00    +0.002 C 
ATOM     23  C   UNL     1      -1.977   1.882  -1.735  0.00  0.00    +0.002 C 
ATOM     24  C   UNL     1      -0.600   1.266  -2.057  0.00  0.00    +0.027 C 
ENDBRANCH  19  20
ENDBRANCH   1  15
BRANCH   1  25
ATOM     25  N   UNL     1       3.578  -1.219  -1.463  0.00  0.00    +0.397 N 
ATOM     26  H   UNL     1       3.792  -2.212  -1.617  0.00  0.00    -0.079 HD
BRANCH  25  27
ATOM     27  C   UNL     1       3.153  -0.615  -2.743  0.00  0.00    -0.039 C 
BRANCH  27  28
ATOM     28  C   UNL     1       4.186  -0.927  -3.795  0.00  0.00    -0.046 A 
ATOM     29  C   UNL     1       5.053   0.059  -4.227  0.00  0.00    +0.003 A 
ATOM     30  C   UNL     1       6.003  -0.229  -5.189  0.00  0.00    +0.000 A 
ATOM     31  C   UNL     1       6.082  -1.500  -5.725  0.00  0.00    +0.001 A 
ATOM     32  C   UNL     1       5.213  -2.486  -5.298  0.00  0.00    +0.020 A 
ATOM     33  C   UNL     1       4.264  -2.200  -4.332  0.00  0.00    +0.042 A 
ATOM     34 CL   UNL     1       3.172  -3.438  -3.794  0.00  0.00    -0.083 Cl
ENDBRANCH  27  28
ENDBRANCH  25  27
BRANCH  25  35
ATOM     35  C   UNL     1       4.791  -0.539  -0.961  0.00  0.00    -0.001 C 
BRANCH  35  36
ATOM     36  C   UNL     1       5.492  -1.456   0.007  0.00  0.00    +0.089 A 
ATOM     37  C   UNL     1       6.337  -2.450  -0.321  0.00  0.00    +0.042 A 
ATOM     38  C   UNL     1       6.758  -3.047   0.889  0.00  0.00    +0.041 A 
ATOM     39  C   UNL     1       6.146  -2.381   1.885  0.00  0.00    +0.195 A 
ATOM     40  O   UNL     1       5.385  -1.415   1.345  0.00  0.00    -0.470 OA
ENDBRANCH  35  36
ENDBRANCH  25  35
ENDBRANCH   1  25
TORSDOF 8
