REMARK  Name = ZINC05056129
REMARK  10 active torsions:
REMARK  status: ('A' for Active; 'I' for Inactive)
REMARK    1  A    between atoms: C_1  and  C_2
REMARK    2  A    between atoms: C_2  and  C_3
REMARK    3  A    between atoms: C_6  and  C_9
REMARK    4  A    between atoms: C_11  and  C_15
REMARK    5  A    between atoms: C_12  and  C_14
REMARK    6  A    between atoms: C_15  and  N_16
REMARK    7  A    between atoms: C_20  and  C_23
REMARK    8  A    between atoms: N_25  and  C_26
REMARK    9  A    between atoms: C_26  and  C_27
REMARK   10  A    between atoms: C_27  and  C_28
REMARK                            x       y       z     vdW  Elec       q    Type
REMARK                         _______ _______ _______ _____ _____    ______ ____
ROOT
ATOM      1  N   UNL     1       2.731  -4.471   8.150  0.00  0.00    +0.384 N 
ATOM      2  C   UNL     1       1.458  -4.755   7.476  0.00  0.00    -0.078 C 
ATOM      3  C   UNL     1       1.212  -6.265   7.458  0.00  0.00    -0.018 C 
ATOM      4  C   UNL     1       1.156  -6.785   8.898  0.00  0.00    +0.009 C 
ATOM      5  C   UNL     1       2.459  -6.417   9.614  0.00  0.00    +0.058 C 
ATOM      6  C   UNL     1       2.659  -4.902   9.552  0.00  0.00    -0.066 C 
ATOM      7  H   UNL     1       3.475  -4.969   7.684  0.00  0.00    -0.081 HD
ENDROOT
BRANCH   5   8
ATOM      8  C   UNL     1       2.383  -6.857  11.053  0.00  0.00    +0.214 C 
ATOM      9  O   UNL     1       2.483  -6.039  11.943  0.00  0.00    -0.276 OA
ATOM     10  N   UNL     1       2.204  -8.159  11.351  0.00  0.00    -0.315 N 
ATOM     11  H   UNL     1       2.124  -8.813  10.640  0.00  0.00    +0.149 HD
BRANCH  10  12
ATOM     12  C   UNL     1       2.130  -8.587  12.751  0.00  0.00    +0.108 C 
BRANCH  12  13
ATOM     13  C   UNL     1       1.925 -10.102  12.811  0.00  0.00    +0.049 C 
BRANCH  13  14
ATOM     14  C   UNL     1       1.849 -10.541  14.251  0.00  0.00    -0.072 C 
ATOM     15  C   UNL     1       0.678 -10.666  14.786  0.00  0.00    -0.028 C 
ATOM     16  C   UNL     1       0.444 -11.083  16.209  0.00  0.00    +0.027 C 
ATOM     17  C   UNL     1       1.704 -11.735  16.781  0.00  0.00    +0.004 C 
ATOM     18  C   UNL     1       2.900 -10.821  16.485  0.00  0.00    +0.005 C 
ATOM     19  C   UNL     1       3.137 -10.814  14.972  0.00  0.00    +0.030 C 
ENDBRANCH  13  14
ENDBRANCH  12  13
ENDBRANCH  10  12
ENDBRANCH   5   8
BRANCH   1  20
ATOM     20  C   UNL     1       3.001  -3.028   8.096  0.00  0.00    -0.019 C 
BRANCH  20  23
ATOM     21  C   UNL     1       2.785  -1.912   4.664  0.00  0.00    +0.228 A 
ATOM     22  N   UNL     1       2.237  -2.191   5.823  0.00  0.00    -0.216 NA
ATOM     23  C   UNL     1       3.197  -2.607   6.662  0.00  0.00    +0.066 A 
ATOM     24  C   UNL     1       4.366  -2.582   5.997  0.00  0.00    +0.124 A 
ATOM     25  O   UNL     1       4.105  -2.152   4.746  0.00  0.00    -0.440 OA
ATOM     26  C   UNL     1       5.715  -2.968   6.546  0.00  0.00    +0.088 C 
BRANCH  21  30
ATOM     27  C   UNL     1       0.731  -0.503   1.223  0.00  0.00    -0.048 A 
ATOM     28  C   UNL     1       2.098  -0.709   1.173  0.00  0.00    +0.004 A 
ATOM     29  C   UNL     1       2.772  -1.166   2.287  0.00  0.00    +0.013 A 
ATOM     30  C   UNL     1       2.070  -1.421   3.466  0.00  0.00    +0.037 A 
ATOM     31  C   UNL     1       0.691  -1.211   3.510  0.00  0.00    +0.013 A 
ATOM     32  C   UNL     1       0.031  -0.749   2.391  0.00  0.00    +0.004 A 
BRANCH  27  34
ATOM     33  C   UNL     1      -0.019   1.526   0.010  0.00  0.00    +0.009 C 
ATOM     34  C   UNL     1       0.002  -0.004   0.002  0.00  0.00    +0.032 C 
ENDBRANCH  27  34
ENDBRANCH  21  30
ENDBRANCH  20  23
ENDBRANCH   1  20
TORSDOF 8
