REMARK  Name = ZINC67497554
REMARK  10 active torsions:
REMARK  status: ('A' for Active; 'I' for Inactive)
REMARK    1  A    between atoms: C_1  and  C_2
REMARK    2  A    between atoms: C_2  and  C_3
REMARK    3  A    between atoms: C_3  and  C_4
REMARK    4  A    between atoms: C_4  and  N_5
REMARK    5  A    between atoms: C_11  and  N_14
REMARK    6  A    between atoms: C_15  and  C_17
REMARK    7  A    between atoms: N_19  and  C_20
REMARK    8  A    between atoms: C_20  and  C_21
REMARK    9  A    between atoms: C_21  and  N_22
REMARK   10  A    between atoms: C_27  and  C_29
REMARK                            x       y       z     vdW  Elec       q    Type
REMARK                         _______ _______ _______ _____ _____    ______ ____
ROOT
ATOM      1  N   UNL     1       2.387  -6.644  -3.788  0.00  0.00    -0.278 N 
ATOM      2  C   UNL     1       2.639  -7.827  -4.380  0.00  0.00    +0.303 C 
ATOM      3  O   UNL     1       2.448  -7.963  -5.572  0.00  0.00    -0.265 OA
ATOM      4  H   UNL     1       2.614  -6.511  -2.854  0.00  0.00    +0.155 HD
ENDROOT
BRANCH   1  11
ATOM      5  N   UNL     1       2.954  -2.251  -3.352  0.00  0.00    +0.385 N 
ATOM      6  C   UNL     1       1.788  -1.951  -4.214  0.00  0.00    -0.042 C 
ATOM      7  C   UNL     1       1.408  -3.265  -4.858  0.00  0.00    -0.061 A 
ATOM      8  C   UNL     1       0.632  -3.558  -5.964  0.00  0.00    +0.002 A 
ATOM      9  C   UNL     1       0.437  -4.871  -6.350  0.00  0.00    +0.002 A 
ATOM     10  C   UNL     1       1.018  -5.897  -5.630  0.00  0.00    +0.023 A 
ATOM     11  C   UNL     1       1.798  -5.608  -4.518  0.00  0.00    +0.035 A 
ATOM     12  C   UNL     1       1.992  -4.288  -4.133  0.00  0.00    -0.041 A 
ATOM     13  C   UNL     1       2.773  -3.675  -2.993  0.00  0.00    -0.040 C 
ATOM     14  H   UNL     1       3.815  -2.121  -3.861  0.00  0.00    -0.081 HD
BRANCH   5  15
ATOM     15  C   UNL     1       2.934  -1.409  -2.148  0.00  0.00    -0.078 C 
BRANCH  15  16
ATOM     16  C   UNL     1       3.247   0.038  -2.533  0.00  0.00    -0.019 C 
BRANCH  16  18
ATOM     17  C   UNL     1       3.540   2.363  -1.664  0.00  0.00    +0.004 C 
ATOM     18  C   UNL     1       3.227   0.915  -1.279  0.00  0.00    -0.005 C 
ENDBRANCH  16  18
ENDBRANCH  15  16
ENDBRANCH   5  15
ENDBRANCH   1  11
BRANCH   2  19
ATOM     19  C   UNL     1       3.153  -8.973  -3.572  0.00  0.00    +0.299 C 
ATOM     20  O   UNL     1       3.344  -8.838  -2.381  0.00  0.00    -0.265 OA
ATOM     21  N   UNL     1       3.405 -10.157  -4.165  0.00  0.00    -0.309 N 
ATOM     22  H   UNL     1       3.253 -10.265  -5.116  0.00  0.00    +0.149 HD
BRANCH  21  23
ATOM     23  C   UNL     1       3.910 -11.281  -3.371  0.00  0.00    +0.086 C 
BRANCH  23  24
ATOM     24  C   UNL     1       4.110 -12.496  -4.279  0.00  0.00    -0.059 C 
BRANCH  24  25
ATOM     25  N   UNL     1       4.616 -13.623  -3.483  0.00  0.00    +0.382 N 
ATOM     26  C   UNL     1       3.599 -14.023  -2.503  0.00  0.00    -0.078 C 
ATOM     27  C   UNL     1       4.152 -15.143  -1.618  0.00  0.00    -0.019 C 
ATOM     28  C   UNL     1       4.519 -16.344  -2.494  0.00  0.00    -0.003 C 
ATOM     29  C   UNL     1       5.524 -15.898  -3.560  0.00  0.00    -0.016 C 
ATOM     30  C   UNL     1       4.921 -14.750  -4.373  0.00  0.00    -0.072 C 
ATOM     31  C   UNL     1       5.922 -14.300  -5.439  0.00  0.00    -0.013 C 
ATOM     32  H   UNL     1       5.455 -13.341  -2.999  0.00  0.00    -0.081 HD
ENDBRANCH  24  25
ENDBRANCH  23  24
ENDBRANCH  21  23
ENDBRANCH   2  19
TORSDOF 8
