REMARK  Name = ZINC08662274
REMARK  4 active torsions:
REMARK  status: ('A' for Active; 'I' for Inactive)
REMARK    1  A    between atoms: N_15  and  C_17
REMARK    2  A    between atoms: C_20  and  C_26
REMARK    3  A    between atoms: C_22  and  N_23
REMARK    4  A    between atoms: N_28  and  C_29
REMARK                            x       y       z     vdW  Elec       q    Type
REMARK                         _______ _______ _______ _____ _____    ______ ____
ROOT
ATOM      1  C   UNL     1       3.464   0.578   3.183  0.00  0.00    +0.060 A 
ATOM      2  C   UNL     1       2.223  -0.032   3.021  0.00  0.00    +0.026 A 
ATOM      3  C   UNL     1       1.506  -0.439   4.123  0.00  0.00    +0.015 A 
ATOM      4  C   UNL     1       2.025  -0.238   5.406  0.00  0.00    +0.039 A 
ATOM      5  C   UNL     1       3.271   0.375   5.565  0.00  0.00    +0.047 A 
ATOM      6  C   UNL     1       3.985   0.775   4.458  0.00  0.00    +0.148 A 
ENDROOT
BRANCH   1  19
ATOM      7  C   UNL     1      -0.016   1.360   0.009  0.00  0.00    +0.007 A 
ATOM      8  C   UNL     1       1.199   2.053   0.002  0.00  0.00    +0.022 A 
ATOM      9  C   UNL     1       2.379   1.378  -0.046  0.00  0.00    +0.027 A 
ATOM     10  N   UNL     1       2.393   0.029  -0.142  0.00  0.00    -0.312 N 
ATOM     11  C   UNL     1       1.236  -0.669  -0.036  0.00  0.00    +0.251 A 
ATOM     12  O   UNL     1       1.268  -1.887   0.028  0.00  0.00    -0.268 OA
ATOM     13  C   UNL     1       0.002  -0.004   0.002  0.00  0.00    +0.070 A 
ATOM     14  C   UNL     1       3.607  -0.740  -0.420  0.00  0.00    +0.130 C 
ATOM     15  C   UNL     1       4.870   0.034  -0.087  0.00  0.00    +0.027 C 
ATOM     16  C   UNL     1       4.785   1.444  -0.671  0.00  0.00    +0.018 C 
ATOM     17  C   UNL     1       3.650   2.192   0.032  0.00  0.00    +0.053 C 
ATOM     18  C   UNL     1       4.018   2.342   1.518  0.00  0.00    +0.114 C 
ATOM     19  N   UNL     1       4.186   0.988   2.067  0.00  0.00    -0.327 N 
ATOM     20  C   UNL     1       5.124   0.092   1.413  0.00  0.00    +0.110 C 
ENDBRANCH   1  19
BRANCH   4  21
ATOM     21  C   UNL     1       1.258  -0.672   6.589  0.00  0.00    +0.244 C 
ATOM     22  O   UNL     1       1.711  -0.497   7.704  0.00  0.00    -0.270 OA
ATOM     23  N   UNL     1       0.057  -1.263   6.435  0.00  0.00    -0.308 N 
ATOM     24  H   UNL     1      -0.304  -1.403   5.545  0.00  0.00    +0.149 HD
BRANCH  23  25
ATOM     25  C   UNL     1      -0.704  -1.694   7.610  0.00  0.00    +0.073 C 
ATOM     26  C   UNL     1      -0.238  -3.087   8.037  0.00  0.00    +0.022 C 
ATOM     27  C   UNL     1      -1.032  -3.538   9.264  0.00  0.00    +0.002 C 
ATOM     28  C   UNL     1      -2.522  -3.582   8.919  0.00  0.00    +0.000 C 
ATOM     29  C   UNL     1      -2.989  -2.189   8.492  0.00  0.00    +0.002 C 
ATOM     30  C   UNL     1      -2.194  -1.738   7.265  0.00  0.00    +0.022 C 
ENDBRANCH  23  25
ENDBRANCH   4  21
BRANCH   6  31
ATOM     31  N   UNL     1       5.307   1.419   4.625  0.00  0.00    +0.058 N 
ATOM     32  O   UNL     1       5.761   1.591   5.733  0.00  0.00    -0.126 OA
ATOM     33  O   UNL     1       5.934   1.775   3.654  0.00  0.00    -0.126 OA
ENDBRANCH   6  31
TORSDOF 4
