REMARK  Name = ZINC45922209
REMARK  12 active torsions:
REMARK  status: ('A' for Active; 'I' for Inactive)
REMARK    1  A    between atoms: C_1  and  C_2
REMARK    2  A    between atoms: C_4  and  C_37
REMARK    3  A    between atoms: C_6  and  N_8
REMARK    4  A    between atoms: C_9  and  C_11
REMARK    5  A    between atoms: C_11  and  N_12
REMARK    6  A    between atoms: N_21  and  C_24
REMARK    7  A    between atoms: C_24  and  C_25
REMARK    8  A    between atoms: C_25  and  C_26
REMARK    9  A    between atoms: C_26  and  C_27
REMARK   10  A    between atoms: C_27  and  C_28
REMARK   11  A    between atoms: N_30  and  C_31
REMARK   12  A    between atoms: C_31  and  C_32
REMARK                            x       y       z     vdW  Elec       q    Type
REMARK                         _______ _______ _______ _____ _____    ______ ____
ROOT
ATOM      1  N   UNL     1       0.370  -1.959   5.973  0.00  0.00    -0.284 N 
ATOM      2  C   UNL     1       1.611  -1.496   6.383  0.00  0.00    +0.059 A 
ATOM      3  C   UNL     1       2.781  -1.903   5.760  0.00  0.00    +0.027 A 
ATOM      4  C   UNL     1       3.997  -1.418   6.199  0.00  0.00    +0.002 A 
ATOM      5  C   UNL     1       4.060  -0.528   7.260  0.00  0.00    +0.001 A 
ATOM      6  C   UNL     1       2.908  -0.111   7.893  0.00  0.00    +0.015 A 
ATOM      7  C   UNL     1       1.675  -0.592   7.458  0.00  0.00    +0.063 A 
ATOM      8  C   UNL     1       0.413  -0.181   8.099  0.00  0.00    +0.264 A 
ATOM      9  O   UNL     1       0.412   0.598   9.032  0.00  0.00    -0.267 OA
ATOM     10  N   UNL     1      -0.743  -0.691   7.622  0.00  0.00    -0.260 N 
ATOM     11  C   UNL     1      -0.752  -1.548   6.588  0.00  0.00    +0.333 A 
ATOM     12  O   UNL     1      -1.821  -1.973   6.194  0.00  0.00    -0.246 OA
ENDROOT
BRANCH   1  13
ATOM     13  C   UNL     1       0.280  -2.900   4.854  0.00  0.00    +0.222 C 
BRANCH  13  15
ATOM     14  N   UNL     1       0.052  -2.797   2.393  0.00  0.00    -0.284 N 
ATOM     15  C   UNL     1       0.150  -2.134   3.562  0.00  0.00    +0.237 C 
ATOM     16  O   UNL     1       0.134  -0.922   3.575  0.00  0.00    -0.274 OA
ATOM     17  H   UNL     1      -0.012  -3.765   2.388  0.00  0.00    +0.155 HD
BRANCH  14  23
ATOM     18  C   UNL     1      -1.512  -2.365  -2.248  0.00  0.00    +0.044 C 
ATOM     19  C   UNL     1      -0.707  -1.857  -1.080  0.00  0.00    -0.048 A 
ATOM     20  C   UNL     1       0.025  -0.690  -1.201  0.00  0.00    +0.006 A 
ATOM     21  C   UNL     1       0.765  -0.220  -0.131  0.00  0.00    -0.048 A 
ATOM     22  C   UNL     1       0.776  -0.917   1.061  0.00  0.00    +0.026 A 
ATOM     23  C   UNL     1       0.043  -2.089   1.186  0.00  0.00    +0.034 A 
ATOM     24  C   UNL     1      -0.704  -2.555   0.112  0.00  0.00    +0.026 A 
ATOM     25  C   UNL     1       1.561   1.052  -0.268  0.00  0.00    +0.044 C 
ENDBRANCH  14  23
ENDBRANCH  13  15
ENDBRANCH   1  13
BRANCH  10  26
ATOM     26  C   UNL     1      -2.012  -0.299   8.241  0.00  0.00    +0.130 C 
BRANCH  26  27
ATOM     27  C   UNL     1      -2.561   0.943   7.535  0.00  0.00    +0.022 C 
BRANCH  27  28
ATOM     28  C   UNL     1      -3.885   1.353   8.182  0.00  0.00    +0.011 C 
BRANCH  28  29
ATOM     29  C   UNL     1      -4.435   2.594   7.476  0.00  0.00    +0.096 C 
BRANCH  29  30
ATOM     30  C   UNL     1      -5.739   2.998   8.113  0.00  0.00    +0.213 C 
ATOM     31  O   UNL     1      -6.186   2.356   9.040  0.00  0.00    -0.276 OA
ATOM     32  N   UNL     1      -6.410   4.073   7.652  0.00  0.00    -0.311 N 
ATOM     33  H   UNL     1      -6.053   4.586   6.911  0.00  0.00    +0.149 HD
BRANCH  32  34
ATOM     34  C   UNL     1      -7.678   4.465   8.271  0.00  0.00    +0.146 C 
BRANCH  34  35
ATOM     35  C   UNL     1      -8.219   5.688   7.577  0.00  0.00    +0.007 A 
ATOM     36  C   UNL     1      -9.051   5.766   6.509  0.00  0.00    +0.013 A 
ATOM     37  C   UNL     1      -9.420   7.011   6.036  0.00  0.00    +0.008 A 
ATOM     38  C   UNL     1      -8.940   8.118   6.653  0.00  0.00    +0.045 A 
ATOM     39  S   UNL     1      -7.937   7.411   7.950  0.00  0.00    -0.100 S 
ENDBRANCH  34  35
ENDBRANCH  32  34
ENDBRANCH  29  30
ENDBRANCH  28  29
ENDBRANCH  27  28
ENDBRANCH  26  27
ENDBRANCH  10  26
TORSDOF 10
