REMARK  Name = ZINC01557940
REMARK  7 active torsions:
REMARK  status: ('A' for Active; 'I' for Inactive)
REMARK    1  A    between atoms: C_1  and  N_23
REMARK    2  A    between atoms: C_2  and  N_23
REMARK    3  A    between atoms: C_3  and  C_4
REMARK    4  A    between atoms: C_3  and  N_23
REMARK    5  A    between atoms: C_4  and  C_6
REMARK    6  A    between atoms: C_4  and  O_10
REMARK    7  A    between atoms: O_10  and  C_11
REMARK                            x       y       z     vdW  Elec       q    Type
REMARK                         _______ _______ _______ _____ _____    ______ ____
ROOT
ATOM      1  C   UNL     1      -0.729   1.579   1.267  0.00  0.00    +0.152 C 
ENDROOT
BRANCH   1   2
ATOM      2  C   UNL     1       0.011   1.072   2.506  0.00  0.00    +0.214 C 
ATOM      3 CL   UNL     1       1.703   1.696   2.494  0.00  0.00    -0.081 Cl
ATOM      4 CL   UNL     1      -0.833   1.654   3.990  0.00  0.00    -0.081 Cl
ATOM      5 CL   UNL     1       0.036  -0.730   2.496  0.00  0.00    -0.081 Cl
ENDBRANCH   1   2
BRANCH   1   6
ATOM      6  O   UNL     1      -0.748   3.008   1.275  0.00  0.00    -0.377 OA
ATOM      7  C   UNL     1      -1.880   3.570   1.941  0.00  0.00    +0.194 C 
ENDBRANCH   1   6
BRANCH   1   8
ATOM      8  C   UNL     1      -0.013   1.086   0.008  0.00  0.00    -0.043 C 
BRANCH   8  11
ATOM      9  C   UNL     1       0.059   1.323  -2.401  0.00  0.00    -0.096 C 
ATOM     10  C   UNL     1      -2.059   0.969  -1.281  0.00  0.00    -0.096 C 
ATOM     11  N   UNL     1      -0.727   1.601  -1.179  0.00  0.00    +0.378 N 
ATOM     12  H   UNL     1      -0.845   2.616  -1.083  0.00  0.00    -0.083 HD
ENDBRANCH   8  11
ENDBRANCH   1   8
TORSDOF 4
