REMARK  Name = ZINC09767816
REMARK  7 active torsions:
REMARK  status: ('A' for Active; 'I' for Inactive)
REMARK    1  A    between atoms: C_1  and  C_2
REMARK    2  A    between atoms: C_2  and  O_3
REMARK    3  A    between atoms: O_3  and  C_4
REMARK    4  A    between atoms: C_4  and  C_6
REMARK    5  A    between atoms: C_6  and  N_7
REMARK    6  A    between atoms: N_17  and  C_18
REMARK    7  A    between atoms: C_18  and  C_20
REMARK                            x       y       z     vdW  Elec       q    Type
REMARK                         _______ _______ _______ _____ _____    ______ ____
ROOT
ATOM      1  N   UNL     1       0.002  -0.004   0.002  0.00  0.00    -0.309 N 
ATOM      2  C   UNL     1      -0.017   1.378  -0.031  0.00  0.00    +0.077 A 
ATOM      3  C   UNL     1       1.247   1.986  -0.035  0.00  0.00    +0.040 A 
ATOM      4  C   UNL     1       1.410   3.351  -0.066  0.00  0.00    +0.017 A 
ATOM      5  C   UNL     1       0.296   4.171  -0.094  0.00  0.00    +0.003 A 
ATOM      6  C   UNL     1      -0.966   3.600  -0.090  0.00  0.00    +0.022 A 
ATOM      7  C   UNL     1      -1.130   2.235  -0.054  0.00  0.00    +0.066 A 
ATOM      8 CL   UNL     1      -2.730   1.562  -0.044  0.00  0.00    -0.081 Cl
ATOM      9  S   UNL     1       2.362   0.606   0.006  0.00  0.00    -0.052 S 
ATOM     10  C   UNL     1       1.187  -0.669   0.027  0.00  0.00    +0.167 A 
ATOM     11  N   UNL     1       1.395  -1.984   0.061  0.00  0.00    -0.153 NA
ENDROOT
BRANCH  11  12
ATOM     12  C   UNL     1       2.635  -2.460   0.082  0.00  0.00    +0.283 C 
ATOM     13  O   UNL     1       3.581  -1.694   0.071  0.00  0.00    -0.269 OA
BRANCH  12  14
ATOM     14  C   UNL     1       2.871  -3.948   0.120  0.00  0.00    +0.298 C 
ATOM     15  C   UNL     1       2.372  -4.584  -1.184  0.00  0.00    +0.283 C 
ATOM     16  O   UNL     1       2.623  -5.992  -1.121  0.00  0.00    -0.484 OA
ATOM     17  C   UNL     1       3.857  -6.375  -0.691  0.00  0.00    +0.162 A 
ATOM     18  C   UNL     1       4.294  -7.668  -0.940  0.00  0.00    +0.049 A 
ATOM     19  C   UNL     1       5.543  -8.072  -0.507  0.00  0.00    +0.004 A 
ATOM     20  C   UNL     1       6.359  -7.189   0.175  0.00  0.00    +0.004 A 
ATOM     21  C   UNL     1       5.931  -5.899   0.425  0.00  0.00    +0.049 A 
ATOM     22  C   UNL     1       4.679  -5.487  -0.008  0.00  0.00    +0.163 A 
ATOM     23  O   UNL     1       4.273  -4.212   0.241  0.00  0.00    -0.472 OA
ENDBRANCH  12  14
ENDBRANCH  11  12
BRANCH   1  24
ATOM     24  C   UNL     1      -1.257  -0.753   0.010  0.00  0.00    +0.244 C 
BRANCH  24  25
ATOM     25  C   UNL     1      -1.766  -0.895  -1.401  0.00  0.00    +0.327 C 
ATOM     26  O   UNL     1      -1.141  -0.420  -2.320  0.00  0.00    -0.249 OA
BRANCH  25  27
ATOM     27  O   UNL     1      -2.913  -1.550  -1.638  0.00  0.00    -0.464 OA
BRANCH  27  29
ATOM     28  C   UNL     1      -4.660  -2.423  -3.093  0.00  0.00    +0.048 C 
ATOM     29  C   UNL     1      -3.343  -1.648  -3.022  0.00  0.00    +0.229 C 
ENDBRANCH  27  29
ENDBRANCH  25  27
ENDBRANCH  24  25
ENDBRANCH   1  24
TORSDOF 6
