REMARK  Name = ZINC50044565
REMARK  6 active torsions:
REMARK  status: ('A' for Active; 'I' for Inactive)
REMARK    1  A    between atoms: C_1  and  C_2
REMARK    2  A    between atoms: C_12  and  C_14
REMARK    3  A    between atoms: N_21  and  C_22
REMARK    4  A    between atoms: C_22  and  C_23
REMARK    5  A    between atoms: C_26  and  O_29
REMARK    6  A    between atoms: O_29  and  C_30
REMARK                            x       y       z     vdW  Elec       q    Type
REMARK                         _______ _______ _______ _____ _____    ______ ____
ROOT
ATOM      1  C   UNL     1      -0.459   1.461   0.290  0.00  0.00    +0.066 C 
ATOM      2  C   UNL     1      -0.322  -0.038   0.209  0.00  0.00    +0.047 C 
ATOM      3  C   UNL     1      -1.443  -0.819   0.214  0.00  0.00    +0.091 C 
ATOM      4  C   UNL     1      -1.294  -2.216   0.137  0.00  0.00    +0.249 C 
ATOM      5  O   UNL     1      -2.269  -2.950   0.139  0.00  0.00    -0.270 OA
ATOM      6  N   UNL     1      -0.029  -2.730   0.060  0.00  0.00    -0.215 N 
ATOM      7  C   UNL     1       1.058  -1.897   0.058  0.00  0.00    +0.229 C 
ATOM      8  N   UNL     1       0.885  -0.580   0.127  0.00  0.00    -0.219 NA
ATOM      9  N   UNL     1       2.298  -2.396  -0.017  0.00  0.00    -0.183 NA
ATOM     10  C   UNL     1       2.571  -3.678  -0.092  0.00  0.00    +0.194 C 
ATOM     11  N   UNL     1       1.593  -4.631  -0.102  0.00  0.00    -0.339 N 
ATOM     12  C   UNL     1       0.191  -4.180  -0.022  0.00  0.00    +0.184 C 
ATOM     13  N   UNL     1       3.877  -4.071  -0.165  0.00  0.00    -0.311 N 
ATOM     14  H   UNL     1       4.096  -5.014  -0.222  0.00  0.00    +0.149 HD
ATOM     15  H   UNL     1       1.813  -5.574  -0.159  0.00  0.00    +0.164 HD
ENDROOT
BRANCH  12  16
ATOM     16  C   UNL     1      -0.545  -4.701  -1.259  0.00  0.00    +0.034 C 
ATOM     17  C   UNL     1      -0.335  -6.215  -1.384  0.00  0.00    +0.011 C 
ATOM     18  C   UNL     1      -1.222  -6.735  -2.517  0.00  0.00    +0.027 C 
ATOM     19  C   UNL     1      -1.037  -5.893  -3.746  0.00  0.00    -0.031 C 
ATOM     20  C   UNL     1      -0.502  -4.714  -3.743  0.00  0.00    -0.031 C 
ATOM     21  C   UNL     1       0.013  -4.025  -2.513  0.00  0.00    +0.034 C 
ENDBRANCH  12  16
BRANCH  13  22
ATOM     22  C   UNL     1       4.945  -3.069  -0.157  0.00  0.00    +0.139 C 
BRANCH  22  23
ATOM     23  C   UNL     1       6.282  -3.759  -0.246  0.00  0.00    -0.030 A 
ATOM     24  C   UNL     1       6.939  -4.141   0.909  0.00  0.00    +0.009 A 
ATOM     25  C   UNL     1       8.165  -4.774   0.830  0.00  0.00    +0.046 A 
ATOM     26  C   UNL     1       8.736  -5.026  -0.409  0.00  0.00    +0.120 A 
ATOM     27  C   UNL     1       8.074  -4.642  -1.566  0.00  0.00    +0.046 A 
ATOM     28  C   UNL     1       6.846  -4.015  -1.482  0.00  0.00    +0.009 A 
BRANCH  26  29
ATOM     29  O   UNL     1       9.942  -5.648  -0.489  0.00  0.00    -0.495 OA
ATOM     30  C   UNL     1      10.469  -5.875  -1.798  0.00  0.00    +0.277 C 
ENDBRANCH  26  29
ENDBRANCH  22  23
ENDBRANCH  13  22
TORSDOF 4
