REMARK  Name = ZINC39690705
REMARK  4 active torsions:
REMARK  status: ('A' for Active; 'I' for Inactive)
REMARK    1  A    between atoms: C_5  and  C_7
REMARK    2  A    between atoms: C_7  and  N_8
REMARK    3  A    between atoms: C_9  and  C_11
REMARK    4  A    between atoms: C_22  and  C_24
REMARK                            x       y       z     vdW  Elec       q    Type
REMARK                         _______ _______ _______ _____ _____    ______ ____
ROOT
ATOM      1  C   UNL     1       1.818  -4.511   2.961  0.00  0.00    +0.100 C 
ATOM      2  C   UNL     1       0.744  -3.986   3.940  0.00  0.00    +0.121 C 
ATOM      3  N   UNL     1      -0.263  -5.071   4.007  0.00  0.00    -0.297 N 
ATOM      4  C   UNL     1       0.538  -6.319   4.005  0.00  0.00    +0.115 C 
ATOM      5  C   UNL     1       1.682  -6.043   3.009  0.00  0.00    -0.004 C 
ATOM      6  C   UNL     1       1.322  -6.585   1.629  0.00  0.00    -0.010 C 
ATOM      7  C   UNL     1       1.248  -8.113   1.690  0.00  0.00    -0.082 C 
ATOM      8  N   UNL     1       2.542  -8.650   2.127  0.00  0.00    +0.379 N 
ATOM      9  C   UNL     1       2.838  -8.198   3.492  0.00  0.00    -0.082 C 
ATOM     10  C   UNL     1       2.979  -6.673   3.507  0.00  0.00    -0.010 C 
ATOM     11  C   UNL     1      -1.605  -4.951   4.059  0.00  0.00    +0.260 C 
ATOM     12  O   UNL     1      -2.301  -5.943   4.112  0.00  0.00    -0.271 OA
ATOM     13  H   UNL     1       2.510  -9.659   2.107  0.00  0.00    -0.086 HD
ATOM     14  H   UNL     1       3.266  -8.328   1.503  0.00  0.00    -0.086 HD
ENDROOT
BRANCH  11  15
ATOM     15  C   UNL     1      -2.240  -3.584   4.051  0.00  0.00    +0.296 C 
ATOM     16  C   UNL     1      -1.863  -2.831   5.334  0.00  0.00    +0.283 C 
ATOM     17  O   UNL     1      -2.492  -1.546   5.300  0.00  0.00    -0.484 OA
ATOM     18  C   UNL     1      -3.805  -1.517   4.943  0.00  0.00    +0.162 A 
ATOM     19  C   UNL     1      -4.565  -0.393   5.232  0.00  0.00    +0.049 A 
ATOM     20  C   UNL     1      -5.899  -0.348   4.872  0.00  0.00    +0.004 A 
ATOM     21  C   UNL     1      -6.479  -1.422   4.224  0.00  0.00    +0.004 A 
ATOM     22  C   UNL     1      -5.728  -2.545   3.934  0.00  0.00    +0.049 A 
ATOM     23  C   UNL     1      -4.389  -2.598   4.293  0.00  0.00    +0.163 A 
ATOM     24  O   UNL     1      -3.665  -3.714   4.008  0.00  0.00    -0.473 OA
ENDBRANCH  11  15
BRANCH   1  26
ATOM     25  N   UNL     1       2.574  -3.821   0.709  0.00  0.00    -0.311 N 
ATOM     26  C   UNL     1       1.551  -4.005   1.567  0.00  0.00    +0.218 C 
ATOM     27  O   UNL     1       0.416  -3.762   1.218  0.00  0.00    -0.275 OA
ATOM     28  H   UNL     1       3.483  -4.015   0.989  0.00  0.00    +0.149 HD
BRANCH  25  29
ATOM     29  C   UNL     1       2.315  -3.328  -0.645  0.00  0.00    +0.140 C 
BRANCH  29  34
ATOM     30  C   UNL     1       5.425  -1.873  -2.216  0.00  0.00    +0.000 A 
ATOM     31  C   UNL     1       6.005  -2.998  -2.773  0.00  0.00    +0.001 A 
ATOM     32  C   UNL     1       5.391  -4.229  -2.642  0.00  0.00    +0.015 A 
ATOM     33  C   UNL     1       4.197  -4.337  -1.953  0.00  0.00    +0.023 A 
ATOM     34  C   UNL     1       3.616  -3.212  -1.396  0.00  0.00    -0.016 A 
ATOM     35  C   UNL     1       4.231  -1.980  -1.527  0.00  0.00    +0.006 A 
ATOM     36 BR   UNL     1       3.356  -6.021  -1.774  0.00  0.00    -0.050 Br
ENDBRANCH  29  34
ENDBRANCH  25  29
ENDBRANCH   1  26
TORSDOF 4
