REMARK  Name = ZINC26780679
REMARK  12 active torsions:
REMARK  status: ('A' for Active; 'I' for Inactive)
REMARK    1  A    between atoms: C_4  and  C_7
REMARK    2  A    between atoms: C_7  and  C_8
REMARK    3  A    between atoms: C_7  and  N_14
REMARK    4  A    between atoms: N_17  and  C_20
REMARK    5  A    between atoms: C_20  and  C_21
REMARK    6  A    between atoms: C_21  and  C_23
REMARK    7  A    between atoms: C_21  and  O_35
REMARK    8  A    between atoms: C_23  and  O_24
REMARK    9  A    between atoms: O_24  and  C_25
REMARK   10  A    between atoms: C_25  and  C_26
REMARK   11  A    between atoms: C_26  and  O_27
REMARK   12  A    between atoms: O_27  and  C_28
REMARK                            x       y       z     vdW  Elec       q    Type
REMARK                         _______ _______ _______ _____ _____    ______ ____
ROOT
ATOM      1  N   UNL     1      -1.044  -0.513   0.900  0.00  0.00    +0.389 N 
ATOM      2  C   UNL     1      -0.880   0.026   2.257  0.00  0.00    -0.062 C 
ATOM      3  C   UNL     1      -2.032  -0.463   3.139  0.00  0.00    +0.066 C 
ATOM      4  N   UNL     1      -2.042  -1.933   3.156  0.00  0.00    -0.303 NA
ATOM      5  C   UNL     1      -2.205  -2.472   1.799  0.00  0.00    +0.066 C 
ATOM      6  C   UNL     1      -1.054  -1.982   0.917  0.00  0.00    -0.062 C 
ATOM      7  H   UNL     1      -2.015  -0.171   0.513  0.00  0.00    -0.080 HD
ENDROOT
BRANCH   1   8
ATOM      8  C   UNL     1       0.002  -0.004   0.002  0.00  0.00    -0.007 C 
BRANCH   8  12
ATOM      9  C   UNL     1      -0.056   4.267   0.025  0.00  0.00    +0.000 A 
ATOM     10  C   UNL     1       1.151   3.592   0.010  0.00  0.00    +0.000 A 
ATOM     11  C   UNL     1       1.169   2.210   0.003  0.00  0.00    +0.002 A 
ATOM     12  C   UNL     1      -0.018   1.503   0.010  0.00  0.00    -0.057 A 
ATOM     13  C   UNL     1      -1.225   2.178   0.020  0.00  0.00    +0.002 A 
ATOM     14  C   UNL     1      -1.244   3.560   0.032  0.00  0.00    +0.000 A 
ENDBRANCH   8  12
BRANCH   8  15
ATOM     15  C   UNL     1      -0.251  -0.502  -1.398  0.00  0.00    -0.057 A 
ATOM     16  C   UNL     1      -1.542  -0.557  -1.889  0.00  0.00    +0.002 A 
ATOM     17  C   UNL     1      -1.774  -1.009  -3.174  0.00  0.00    +0.000 A 
ATOM     18  C   UNL     1      -0.716  -1.416  -3.965  0.00  0.00    +0.000 A 
ATOM     19  C   UNL     1       0.575  -1.367  -3.472  0.00  0.00    +0.000 A 
ATOM     20  C   UNL     1       0.807  -0.910  -2.188  0.00  0.00    +0.002 A 
ENDBRANCH   8  15
ENDBRANCH   1   8
BRANCH   4  21
ATOM     21  C   UNL     1      -3.087  -2.442   4.054  0.00  0.00    +0.117 C 
BRANCH  21  22
ATOM     22  C   UNL     1      -3.039  -1.677   5.378  0.00  0.00    +0.154 C 
BRANCH  22  23
ATOM     23  O   UNL     1      -1.759  -1.859   5.987  0.00  0.00    -0.388 OA
ATOM     24  H   UNL     1      -1.536  -1.381   6.952  0.00  0.00    +0.210 HD
ENDBRANCH  22  23
BRANCH  22  25
ATOM     25  C   UNL     1      -4.128  -2.207   6.313  0.00  0.00    +0.192 C 
BRANCH  25  26
ATOM     26  O   UNL     1      -4.160  -1.417   7.503  0.00  0.00    -0.374 OA
BRANCH  26  27
ATOM     27  C   UNL     1      -5.148  -1.830   8.449  0.00  0.00    +0.201 C 
BRANCH  27  28
ATOM     28  C   UNL     1      -5.092  -0.919   9.677  0.00  0.00    +0.257 C 
BRANCH  28  29
ATOM     29  O   UNL     1      -5.461   0.409   9.301  0.00  0.00    -0.490 OA
BRANCH  29  30
ATOM     30  C   UNL     1      -5.462   1.350  10.282  0.00  0.00    +0.121 A 
ATOM     31  C   UNL     1      -5.122   1.000  11.581  0.00  0.00    +0.047 A 
ATOM     32  C   UNL     1      -5.118   1.959  12.575  0.00  0.00    +0.019 A 
ATOM     33  C   UNL     1      -5.465   3.265  12.279  0.00  0.00    +0.018 A 
ATOM     34  C   UNL     1      -5.811   3.615  10.986  0.00  0.00    +0.019 A 
ATOM     35  C   UNL     1      -5.810   2.660   9.988  0.00  0.00    +0.047 A 
ATOM     36 BR   UNL     1      -5.466   4.574  13.644  0.00  0.00    -0.050 Br
ENDBRANCH  29  30
ENDBRANCH  28  29
ENDBRANCH  27  28
ENDBRANCH  26  27
ENDBRANCH  25  26
ENDBRANCH  22  25
ENDBRANCH  21  22
ENDBRANCH   4  21
TORSDOF 12
