REMARK  Name = ZINC06265583
REMARK  8 active torsions:
REMARK  status: ('A' for Active; 'I' for Inactive)
REMARK    1  A    between atoms: C_1  and  C_2
REMARK    2  A    between atoms: C_2  and  O_3
REMARK    3  A    between atoms: O_3  and  C_4
REMARK    4  A    between atoms: C_13  and  C_25
REMARK    5  A    between atoms: C_15  and  C_21
REMARK    6  A    between atoms: C_15  and  C_23
REMARK    7  A    between atoms: C_16  and  N_20
REMARK    8  A    between atoms: C_17  and  C_18
REMARK                            x       y       z     vdW  Elec       q    Type
REMARK                         _______ _______ _______ _____ _____    ______ ____
ROOT
ATOM      1  C   UNL     1       0.660  -1.887  -1.745  0.00  0.00    +0.403 C 
ATOM      2  O   UNL     1       0.158  -2.601  -0.900  0.00  0.00    -0.226 OA
ATOM      3  N   UNL     1       1.377  -2.432  -2.748  0.00  0.00    -0.263 N 
ATOM      4  C   UNL     1       2.005  -1.594  -3.786  0.00  0.00    +0.138 C 
ATOM      5  C   UNL     1       3.478  -1.919  -3.785  0.00  0.00    -0.003 C 
ATOM      6  C   UNL     1       3.915  -3.105  -3.407  0.00  0.00    -0.026 C 
ATOM      7  C   UNL     1       3.029  -4.238  -2.984  0.00  0.00    +0.044 C 
ATOM      8  C   UNL     1       1.571  -3.882  -2.849  0.00  0.00    +0.120 C 
ATOM      9  C   UNL     1       3.594  -4.835  -1.695  0.00  0.00    +0.045 C 
ATOM     10  C   UNL     1       4.978  -5.417  -1.986  0.00  0.00    +0.185 C 
ATOM     11  C   UNL     1       5.854  -4.434  -2.701  0.00  0.00    +0.054 C 
ATOM     12  C   UNL     1       5.380  -3.358  -3.379  0.00  0.00    +0.074 C 
ENDROOT
BRANCH   9  13
ATOM     13  C   UNL     1       2.665  -5.941  -1.191  0.00  0.00    +0.018 C 
ATOM     14  C   UNL     1       3.302  -6.627   0.020  0.00  0.00    +0.008 C 
ATOM     15  C   UNL     1       2.491  -7.887   0.346  0.00  0.00    +0.005 C 
ATOM     16  C   UNL     1       2.677  -8.891  -0.794  0.00  0.00    +0.027 C 
ATOM     17  C   UNL     1       2.439  -8.221  -2.116  0.00  0.00    -0.031 C 
ATOM     18  C   UNL     1       2.441  -6.940  -2.289  0.00  0.00    -0.027 C 
ENDBRANCH   9  13
BRANCH  11  19
ATOM     19  N   UNL     1       7.206  -4.632  -2.669  0.00  0.00    -0.358 N 
ATOM     20  H   UNL     1       7.574  -5.392  -2.193  0.00  0.00    +0.142 HD
ATOM     21  H   UNL     1       7.798  -4.012  -3.123  0.00  0.00    +0.142 HD
ENDBRANCH  11  19
BRANCH  12  22
ATOM     22  C   UNL     1       6.281  -2.477  -4.059  0.00  0.00    +0.101 C 
ATOM     23  N   UNL     1       6.995  -1.778  -4.599  0.00  0.00    -0.191 NA
ENDBRANCH  12  22
BRANCH  10  24
ATOM     24  C   UNL     1       5.618  -5.793  -0.715  0.00  0.00    +0.091 C 
ATOM     25  N   UNL     1       6.111  -6.084   0.267  0.00  0.00    -0.195 NA
ENDBRANCH  10  24
BRANCH  10  26
ATOM     26  C   UNL     1       4.827  -6.621  -2.820  0.00  0.00    +0.091 C 
ATOM     27  N   UNL     1       4.710  -7.550  -3.463  0.00  0.00    -0.195 NA
ENDBRANCH  10  26
BRANCH   1  28
ATOM     28  O   UNL     1       0.501  -0.552  -1.679  0.00  0.00    -0.451 OA
BRANCH  28  30
ATOM     29  C   UNL     1      -0.342   1.482  -0.682  0.00  0.00    +0.048 C 
ATOM     30  C   UNL     1      -0.271  -0.044  -0.589  0.00  0.00    +0.230 C 
ENDBRANCH  28  30
ENDBRANCH   1  28
TORSDOF 7
