REMARK  Name = ZINC09925605
REMARK  8 active torsions:
REMARK  status: ('A' for Active; 'I' for Inactive)
REMARK    1  A    between atoms: C_4  and  N_16
REMARK    2  A    between atoms: C_5  and  C_7
REMARK    3  A    between atoms: N_9  and  C_10
REMARK    4  A    between atoms: C_10  and  C_11
REMARK    5  A    between atoms: C_17  and  C_19
REMARK    6  A    between atoms: C_22  and  O_26
REMARK    7  A    between atoms: O_26  and  C_27
REMARK    8  A    between atoms: C_27  and  C_28
REMARK                            x       y       z     vdW  Elec       q    Type
REMARK                         _______ _______ _______ _____ _____    ______ ____
ROOT
ATOM      1  N   UNL     1       0.127   0.706   0.068  0.00  0.00    -0.281 N 
ATOM      2  C   UNL     1       1.320   1.328   0.146  0.00  0.00    +0.248 C 
ATOM      3  O   UNL     1       1.377   2.542   0.108  0.00  0.00    -0.270 OA
ATOM      4  H   UNL     1       0.086  -0.262   0.033  0.00  0.00    +0.155 HD
ENDROOT
BRANCH   2   5
ATOM      5  C   UNL     1       2.558   0.535   0.279  0.00  0.00    +0.038 A 
ATOM      6  C   UNL     1       3.796   1.178   0.361  0.00  0.00    +0.017 A 
ATOM      7  C   UNL     1       4.949   0.436   0.486  0.00  0.00    +0.047 A 
ATOM      8  C   UNL     1       4.883  -0.952   0.530  0.00  0.00    +0.135 A 
ATOM      9  C   UNL     1       3.653  -1.596   0.449  0.00  0.00    +0.060 A 
ATOM     10  C   UNL     1       2.494  -0.860   0.330  0.00  0.00    +0.032 A 
ATOM     11 BR   UNL     1       3.570  -3.484   0.511  0.00  0.00    -0.046 Br
BRANCH   8  12
ATOM     12  O   UNL     1       6.021  -1.680   0.653  0.00  0.00    -0.488 OA
BRANCH  12  13
ATOM     13  C   UNL     1       7.250  -0.955   0.731  0.00  0.00    +0.260 C 
BRANCH  13  14
ATOM     14  C   UNL     1       8.415  -1.938   0.865  0.00  0.00    +0.156 C 
ATOM     15  C   UNL     1       9.752  -1.174   0.831  0.00  0.00    +0.037 C 
ATOM     16  C   UNL     1      10.430  -1.535   2.175  0.00  0.00    +0.031 C 
ATOM     17  C   UNL     1       9.698  -2.844   2.567  0.00  0.00    +0.160 C 
ATOM     18  O   UNL     1       8.339  -2.616   2.130  0.00  0.00    -0.373 OA
ENDBRANCH  13  14
ENDBRANCH  12  13
ENDBRANCH   8  12
ENDBRANCH   2   5
BRANCH   1  22
ATOM     19  C   UNL     1      -3.386   2.948  -0.045  0.00  0.00    +0.001 A 
ATOM     20  C   UNL     1      -2.240   3.414  -0.669  0.00  0.00    +0.002 A 
ATOM     21  C   UNL     1      -1.074   2.676  -0.629  0.00  0.00    +0.024 A 
ATOM     22  C   UNL     1      -1.046   1.454   0.030  0.00  0.00    +0.046 A 
ATOM     23  C   UNL     1      -2.205   0.980   0.663  0.00  0.00    +0.058 A 
ATOM     24  C   UNL     1      -3.376   1.740   0.618  0.00  0.00    +0.015 A 
BRANCH  23  25
ATOM     25  C   UNL     1      -2.187  -0.313   1.372  0.00  0.00    +0.246 C 
ATOM     26  O   UNL     1      -1.143  -0.925   1.494  0.00  0.00    -0.270 OA
ATOM     27  N   UNL     1      -3.327  -0.817   1.884  0.00  0.00    -0.304 N 
ATOM     28  H   UNL     1      -4.160  -0.329   1.787  0.00  0.00    +0.149 HD
BRANCH  27  29
ATOM     29  C   UNL     1      -3.309  -2.102   2.588  0.00  0.00    +0.179 C 
BRANCH  29  30
ATOM     30  C   UNL     1      -4.701  -2.436   3.059  0.00  0.00    +0.122 A 
ATOM     31  C   UNL     1      -5.622  -3.129   2.364  0.00  0.00    +0.046 A 
ATOM     32  C   UNL     1      -6.775  -3.207   3.178  0.00  0.00    +0.041 A 
ATOM     33  C   UNL     1      -6.491  -2.558   4.321  0.00  0.00    +0.195 A 
ATOM     34  O   UNL     1      -5.232  -2.098   4.246  0.00  0.00    -0.466 OA
ENDBRANCH  29  30
ENDBRANCH  27  29
ENDBRANCH  23  25
ENDBRANCH   1  22
TORSDOF 8
