REMARK  Name = ZINC39914868
REMARK  12 active torsions:
REMARK  status: ('A' for Active; 'I' for Inactive)
REMARK    1  A    between atoms: C_1  and  C_2
REMARK    2  A    between atoms: C_4  and  O_39
REMARK    3  A    between atoms: C_5  and  C_9
REMARK    4  A    between atoms: N_17  and  C_30
REMARK    5  A    between atoms: C_18  and  C_20
REMARK    6  A    between atoms: C_23  and  O_28
REMARK    7  A    between atoms: C_24  and  O_26
REMARK    8  A    between atoms: O_26  and  C_27
REMARK    9  A    between atoms: O_28  and  C_29
REMARK   10  A    between atoms: C_30  and  C_31
REMARK   11  A    between atoms: C_34  and  O_37
REMARK   12  A    between atoms: O_37  and  C_38
REMARK                            x       y       z     vdW  Elec       q    Type
REMARK                         _______ _______ _______ _____ _____    ______ ____
ROOT
ATOM      1  C   UNL     1      -0.185  -3.949   0.176  0.00  0.00    +0.102 A 
ATOM      2  C   UNL     1       0.049  -4.914   1.162  0.00  0.00    +0.035 A 
ATOM      3  C   UNL     1       0.046  -6.130   0.507  0.00  0.00    +0.126 A 
ATOM      4  N   UNL     1      -0.184  -5.851  -0.810  0.00  0.00    -0.272 N 
ATOM      5  H   UNL     1      -0.242  -6.513  -1.518  0.00  0.00    +0.189 HD
ATOM      6  N   UNL     1      -0.320  -4.583  -0.972  0.00  0.00    -0.173 NA
ATOM      7  C   UNL     1       0.287  -7.191   1.492  0.00  0.00    +0.266 C 
ATOM      8  O   UNL     1       0.344  -8.378   1.233  0.00  0.00    -0.268 OA
ATOM      9  N   UNL     1       0.437  -6.664   2.720  0.00  0.00    -0.281 N 
ATOM     10  C   UNL     1       0.301  -5.205   2.616  0.00  0.00    +0.142 C 
ENDROOT
BRANCH   1  15
ATOM     11  C   UNL     1      -0.527   1.746   0.990  0.00  0.00    +0.045 C 
ATOM     12  C   UNL     1      -0.437   0.258   0.775  0.00  0.00    -0.029 A 
ATOM     13  C   UNL     1      -0.477  -0.256  -0.508  0.00  0.00    +0.050 A 
ATOM     14  C   UNL     1      -0.396  -1.623  -0.711  0.00  0.00    +0.126 A 
ATOM     15  C   UNL     1      -0.273  -2.482   0.385  0.00  0.00    +0.045 A 
ATOM     16  C   UNL     1      -0.233  -1.956   1.673  0.00  0.00    +0.034 A 
ATOM     17  C   UNL     1      -0.310  -0.590   1.862  0.00  0.00    +0.045 A 
ATOM     18 CL   UNL     1      -0.253   0.066   3.468  0.00  0.00    -0.083 Cl
BRANCH  14  19
ATOM     19  O   UNL     1      -0.436  -2.129  -1.972  0.00  0.00    -0.506 OA
ATOM     20  H   UNL     1       0.432  -2.215  -2.389  0.00  0.00    +0.292 HD
ENDBRANCH  14  19
ENDBRANCH   1  15
BRANCH  10  21
ATOM     21  C   UNL     1       1.572  -4.532   3.067  0.00  0.00    -0.019 A 
ATOM     22  C   UNL     1       1.524  -3.541   4.029  0.00  0.00    +0.009 A 
ATOM     23  C   UNL     1       2.686  -2.921   4.447  0.00  0.00    +0.050 A 
ATOM     24  C   UNL     1       3.904  -3.292   3.900  0.00  0.00    +0.162 A 
ATOM     25  C   UNL     1       3.953  -4.290   2.932  0.00  0.00    +0.162 A 
ATOM     26  C   UNL     1       2.784  -4.912   2.521  0.00  0.00    +0.055 A 
BRANCH  25  27
ATOM     27  O   UNL     1       5.146  -4.659   2.392  0.00  0.00    -0.491 OA
ATOM     28  C   UNL     1       5.110  -5.608   1.325  0.00  0.00    +0.277 C 
ENDBRANCH  25  27
BRANCH  24  29
ATOM     29  O   UNL     1       5.049  -2.683   4.309  0.00  0.00    -0.491 OA
ATOM     30  C   UNL     1       4.923  -1.667   5.306  0.00  0.00    +0.277 C 
ENDBRANCH  24  29
ENDBRANCH  10  21
BRANCH   9  31
ATOM     31  C   UNL     1       0.691  -7.416   3.951  0.00  0.00    +0.144 C 
BRANCH  31  32
ATOM     32  C   UNL     1       2.178  -7.559   4.154  0.00  0.00    -0.030 A 
ATOM     33  C   UNL     1       2.846  -8.646   3.620  0.00  0.00    +0.009 A 
ATOM     34  C   UNL     1       4.208  -8.780   3.805  0.00  0.00    +0.046 A 
ATOM     35  C   UNL     1       4.906  -7.823   4.527  0.00  0.00    +0.120 A 
ATOM     36  C   UNL     1       4.234  -6.734   5.062  0.00  0.00    +0.046 A 
ATOM     37  C   UNL     1       2.872  -6.602   4.870  0.00  0.00    +0.009 A 
BRANCH  35  38
ATOM     38  O   UNL     1       6.247  -7.952   4.711  0.00  0.00    -0.495 OA
ATOM     39  C   UNL     1       6.900  -6.929   5.465  0.00  0.00    +0.277 C 
ENDBRANCH  35  38
ENDBRANCH  31  32
ENDBRANCH   9  31
TORSDOF 8
