REMARK  Name = ZINC15839228
REMARK  8 active torsions:
REMARK  status: ('A' for Active; 'I' for Inactive)
REMARK    1  A    between atoms: C_1  and  C_2
REMARK    2  A    between atoms: C_2  and  C_3
REMARK    3  A    between atoms: C_3  and  C_34
REMARK    4  A    between atoms: N_18  and  C_23
REMARK    5  A    between atoms: C_20  and  S_21
REMARK    6  A    between atoms: S_21  and  C_22
REMARK    7  A    between atoms: C_23  and  C_24
REMARK    8  A    between atoms: N_26  and  C_27
REMARK                            x       y       z     vdW  Elec       q    Type
REMARK                         _______ _______ _______ _____ _____    ______ ____
ROOT
ATOM      1  C   UNL     1       2.517  -2.633  -0.752  0.00  0.00    +0.004 C 
ATOM      2  C   UNL     1       1.169  -2.166  -0.208  0.00  0.00    +0.047 C 
ATOM      3  C   UNL     1       1.117  -0.664  -0.137  0.00  0.00    -0.037 A 
ATOM      4  C   UNL     1      -0.060   0.007  -0.395  0.00  0.00    +0.004 A 
ATOM      5  C   UNL     1      -0.103   1.388  -0.315  0.00  0.00    +0.000 A 
ATOM      6  C   UNL     1       1.030   2.105   0.024  0.00  0.00    +0.001 A 
ATOM      7  C   UNL     1       2.216   1.446   0.281  0.00  0.00    +0.010 A 
ATOM      8  C   UNL     1       2.264   0.057   0.199  0.00  0.00    +0.004 A 
ATOM      9  C   UNL     1       3.524  -0.677   0.457  0.00  0.00    +0.084 A 
ATOM     10  C   UNL     1       3.644  -1.986   0.002  0.00  0.00    +0.050 A 
ATOM     11  C   UNL     1       4.829  -2.680   0.253  0.00  0.00    +0.266 A 
ATOM     12  O   UNL     1       4.967  -3.832  -0.127  0.00  0.00    -0.267 OA
ATOM     13  N   UNL     1       5.819  -2.054   0.924  0.00  0.00    -0.222 N 
ATOM     14  C   UNL     1       5.656  -0.767   1.345  0.00  0.00    +0.237 A 
ATOM     15  N   UNL     1       4.533  -0.105   1.113  0.00  0.00    -0.211 NA
ATOM     16  N   UNL     1       6.805  -0.404   1.979  0.00  0.00    -0.221 N 
ATOM     17  N   UNL     1       7.671  -1.505   1.936  0.00  0.00    -0.142 NA
ATOM     18  C   UNL     1       7.073  -2.475   1.308  0.00  0.00    +0.198 A 
ATOM     19  C   UNL     1       2.619  -4.153  -0.607  0.00  0.00    +0.016 C 
ENDROOT
BRANCH   1  21
ATOM     20  C   UNL     1       3.958  -2.750  -2.789  0.00  0.00    +0.005 C 
ATOM     21  C   UNL     1       2.620  -2.259  -2.232  0.00  0.00    +0.008 C 
ENDBRANCH   1  21
BRANCH  18  22
ATOM     22  S   UNL     1       7.757  -4.069   1.000  0.00  0.00    -0.089 S 
ATOM     23  C   UNL     1       9.379  -3.872   1.778  0.00  0.00    +0.093 C 
ENDBRANCH  18  22
BRANCH  16  24
ATOM     24  C   UNL     1       7.084   0.896   2.592  0.00  0.00    +0.243 C 
BRANCH  24  25
ATOM     25  C   UNL     1       6.647   0.876   4.034  0.00  0.00    +0.239 C 
ATOM     26  O   UNL     1       6.151  -0.126   4.504  0.00  0.00    -0.273 OA
ATOM     27  N   UNL     1       6.807   1.972   4.803  0.00  0.00    -0.284 N 
ATOM     28  H   UNL     1       7.264   2.750   4.448  0.00  0.00    +0.155 HD
BRANCH  27  29
ATOM     29  C   UNL     1       6.313   1.987   6.112  0.00  0.00    +0.034 A 
ATOM     30  C   UNL     1       5.798   3.159   6.648  0.00  0.00    +0.025 A 
ATOM     31  C   UNL     1       5.308   3.170   7.939  0.00  0.00    +0.022 A 
ATOM     32  C   UNL     1       5.339   2.016   8.702  0.00  0.00    +0.041 A 
ATOM     33  C   UNL     1       5.856   0.847   8.172  0.00  0.00    +0.022 A 
ATOM     34  C   UNL     1       6.343   0.830   6.880  0.00  0.00    +0.025 A 
ATOM     35 CL   UNL     1       4.726   2.034  10.326  0.00  0.00    -0.084 Cl
ENDBRANCH  27  29
ENDBRANCH  24  25
ENDBRANCH  16  24
TORSDOF 5
