REMARK  Name = ZINC13134471
REMARK  7 active torsions:
REMARK  status: ('A' for Active; 'I' for Inactive)
REMARK    1  A    between atoms: C_1  and  C_2
REMARK    2  A    between atoms: C_5  and  S_23
REMARK    3  A    between atoms: C_7  and  N_8
REMARK    4  A    between atoms: N_8  and  N_9
REMARK    5  A    between atoms: C_11  and  C_16
REMARK    6  A    between atoms: S_23  and  N_26
REMARK    7  A    between atoms: N_26  and  C_27
REMARK                            x       y       z     vdW  Elec       q    Type
REMARK                         _______ _______ _______ _____ _____    ______ ____
ROOT
ATOM      1  C   UNL     1       3.436   0.949   2.367  0.00  0.00    +0.046 C 
ATOM      2  C   UNL     1       2.707  -0.282   1.893  0.00  0.00    -0.028 A 
ATOM      3  C   UNL     1       2.123  -0.301   0.642  0.00  0.00    +0.007 A 
ATOM      4  C   UNL     1       1.454  -1.430   0.207  0.00  0.00    +0.029 A 
ATOM      5  C   UNL     1       1.367  -2.545   1.022  0.00  0.00    +0.110 A 
ATOM      6  C   UNL     1       1.948  -2.533   2.274  0.00  0.00    +0.053 A 
ATOM      7  C   UNL     1       2.627  -1.402   2.713  0.00  0.00    +0.053 A 
ENDROOT
BRANCH   5   8
ATOM      8  S   UNL     1       0.512  -3.980   0.462  0.00  0.00    +0.072 S 
ATOM      9  O   UNL     1      -0.005  -4.623   1.619  0.00  0.00    -0.150 OA
ATOM     10  O   UNL     1      -0.318  -3.564  -0.614  0.00  0.00    -0.150 OA
BRANCH   8  11
ATOM     11  N   UNL     1       1.644  -5.003  -0.182  0.00  0.00    -0.216 N 
ATOM     12  H   UNL     1       1.792  -5.875   0.216  0.00  0.00    +0.174 HD
BRANCH  11  13
ATOM     13  C   UNL     1       2.385  -4.611  -1.300  0.00  0.00    +0.048 A 
ATOM     14  C   UNL     1       1.795  -4.599  -2.557  0.00  0.00    +0.026 A 
ATOM     15  C   UNL     1       2.530  -4.210  -3.660  0.00  0.00    +0.022 A 
ATOM     16  C   UNL     1       3.853  -3.833  -3.514  0.00  0.00    +0.041 A 
ATOM     17  C   UNL     1       4.444  -3.844  -2.262  0.00  0.00    +0.022 A 
ATOM     18  C   UNL     1       3.712  -4.226  -1.155  0.00  0.00    +0.026 A 
ATOM     19 CL   UNL     1       4.774  -3.346  -4.902  0.00  0.00    -0.084 Cl
ENDBRANCH  11  13
ENDBRANCH   8  11
ENDBRANCH   5   8
BRANCH   7  20
ATOM     20  N   UNL     1       3.220  -1.389   3.975  0.00  0.00    -0.236 N 
ATOM     21  H   UNL     1       3.690  -0.597   4.281  0.00  0.00    +0.174 HD
BRANCH  20  22
ATOM     22  N   UNL     1       3.139  -2.518   4.799  0.00  0.00    -0.173 NA
ATOM     23  C   UNL     1       3.697  -2.506   5.986  0.00  0.00    +0.148 C 
ATOM     24  C   UNL     1       3.748  -3.561   7.016  0.00  0.00    +0.107 C 
ATOM     25  N   UNL     1       4.375  -3.281   8.116  0.00  0.00    -0.219 NA
ATOM     26  C   UNL     1       4.958  -2.085   8.322  0.00  0.00    +0.188 C 
ATOM     27  N   UNL     1       5.621  -1.667   9.378  0.00  0.00    -0.276 NA
ATOM     28  S   UNL     1       4.615  -1.207   6.804  0.00  0.00    -0.027 S 
ATOM     29  H   UNL     1       5.993  -0.771   9.394  0.00  0.00    +0.189 HD
BRANCH  24  30
ATOM     30  C   UNL     1       3.112  -4.879   6.803  0.00  0.00    +0.003 A 
ATOM     31  C   UNL     1       2.448  -5.151   5.605  0.00  0.00    +0.013 A 
ATOM     32  C   UNL     1       1.857  -6.382   5.412  0.00  0.00    +0.039 A 
ATOM     33  C   UNL     1       1.921  -7.347   6.405  0.00  0.00    +0.123 A 
ATOM     34  C   UNL     1       2.578  -7.082   7.597  0.00  0.00    +0.039 A 
ATOM     35  C   UNL     1       3.178  -5.857   7.798  0.00  0.00    +0.013 A 
ATOM     36  F   UNL     1       1.339  -8.551   6.211  0.00  0.00    -0.205 F 
ENDBRANCH  24  30
ENDBRANCH  20  22
ENDBRANCH   7  20
TORSDOF 6
