REMARK  Name = ZINC44452733
REMARK  8 active torsions:
REMARK  status: ('A' for Active; 'I' for Inactive)
REMARK    1  A    between atoms: C_1  and  C_2
REMARK    2  A    between atoms: C_2  and  O_3
REMARK    3  A    between atoms: O_3  and  C_4
REMARK    4  A    between atoms: C_7  and  C_10
REMARK    5  A    between atoms: N_12  and  C_13
REMARK    6  A    between atoms: C_14  and  C_21
REMARK    7  A    between atoms: N_26  and  C_27
REMARK    8  A    between atoms: N_26  and  C_28
REMARK                            x       y       z     vdW  Elec       q    Type
REMARK                         _______ _______ _______ _____ _____    ______ ____
ROOT
ATOM      1  C   UNL     1       1.887  -7.915   2.983  0.00  0.00    +0.085 A 
ATOM      2  C   UNL     1       2.493  -8.614   4.013  0.00  0.00    +0.069 A 
ATOM      3  C   UNL     1       2.474 -10.074   3.933  0.00  0.00    -0.023 A 
ATOM      4  C   UNL     1       1.854 -10.556   2.841  0.00  0.00    -0.004 A 
ATOM      5  S   UNL     1       1.310  -9.114   1.961  0.00  0.00    -0.077 S 
ATOM      6  C   UNL     1       1.866 -12.060   2.808  0.00  0.00    +0.043 C 
ATOM      7  C   UNL     1       2.959 -12.464   3.821  0.00  0.00    +0.010 C 
ATOM      8  C   UNL     1       2.974 -11.249   4.771  0.00  0.00    +0.037 C 
ENDROOT
BRANCH   2   9
ATOM      9  C   UNL     1       3.129  -7.919   5.135  0.00  0.00    +0.254 C 
ATOM     10  O   UNL     1       2.481  -7.647   6.128  0.00  0.00    -0.270 OA
ATOM     11  N   UNL     1       4.432  -7.581   5.067  0.00  0.00    -0.236 N 
ATOM     12  C   UNL     1       5.017  -6.942   6.099  0.00  0.00    +0.308 C 
ATOM     13  O   UNL     1       4.369  -6.670   7.091  0.00  0.00    -0.252 OA
ATOM     14  N   UNL     1       6.320  -6.605   6.032  0.00  0.00    -0.291 N 
ATOM     15  C   UNL     1       6.956  -5.910   7.154  0.00  0.00    +0.133 C 
ATOM     16  C   UNL     1       7.101  -6.932   4.836  0.00  0.00    +0.133 C 
ATOM     17  H   UNL     1       4.949  -7.798   4.275  0.00  0.00    +0.159 HD
ENDBRANCH   2   9
BRANCH   1  20
ATOM     18  C   UNL     1       1.141  -6.030   1.762  0.00  0.00    +0.249 C 
ATOM     19  O   UNL     1       0.665  -6.773   0.925  0.00  0.00    -0.270 OA
ATOM     20  N   UNL     1       1.776  -6.543   2.834  0.00  0.00    -0.275 N 
ATOM     21  H   UNL     1       2.156  -5.950   3.502  0.00  0.00    +0.156 HD
BRANCH  18  25
ATOM     22  C   UNL     1       0.802  -1.822   1.306  0.00  0.00    +0.121 A 
ATOM     23  C   UNL     1       0.257  -2.670   0.347  0.00  0.00    +0.046 A 
ATOM     24  C   UNL     1       0.365  -4.035   0.491  0.00  0.00    +0.016 A 
ATOM     25  C   UNL     1       1.024  -4.568   1.603  0.00  0.00    +0.037 A 
ATOM     26  C   UNL     1       1.570  -3.713   2.564  0.00  0.00    +0.016 A 
ATOM     27  C   UNL     1       1.462  -2.349   2.409  0.00  0.00    +0.046 A 
BRANCH  22  28
ATOM     28  O   UNL     1       0.693  -0.477   1.160  0.00  0.00    -0.492 OA
BRANCH  28  30
ATOM     29  C   UNL     1      -0.019   1.526   0.010  0.00  0.00    +0.048 C 
ATOM     30  C   UNL     1       0.002  -0.004   0.002  0.00  0.00    +0.225 C 
ENDBRANCH  28  30
ENDBRANCH  22  28
ENDBRANCH  18  25
ENDBRANCH   1  20
TORSDOF 5
