REMARK  Name = ZINC12475912
REMARK  8 active torsions:
REMARK  status: ('A' for Active; 'I' for Inactive)
REMARK    1  A    between atoms: C_1  and  C_2
REMARK    2  A    between atoms: C_5  and  C_7
REMARK    3  A    between atoms: C_7  and  C_9
REMARK    4  A    between atoms: C_7  and  N_18
REMARK    5  A    between atoms: N_11  and  C_12
REMARK    6  A    between atoms: N_18  and  C_19
REMARK    7  A    between atoms: C_26  and  C_28
REMARK    8  A    between atoms: C_28  and  C_29
REMARK                            x       y       z     vdW  Elec       q    Type
REMARK                         _______ _______ _______ _____ _____    ______ ____
ROOT
ATOM      1  N   UNL     1      -3.539   3.451   2.168  0.00  0.00    -0.252 N 
ATOM      2  C   UNL     1      -3.887   4.753   2.153  0.00  0.00    +0.225 C 
ATOM      3  O   UNL     1      -4.284   5.286   3.167  0.00  0.00    -0.275 OA
ENDROOT
BRANCH   1   4
ATOM      4  C   UNL     1      -2.999   2.859   1.021  0.00  0.00    +0.040 A 
ATOM      5  C   UNL     1      -3.555   3.120  -0.225  0.00  0.00    +0.024 A 
ATOM      6  C   UNL     1      -3.017   2.538  -1.356  0.00  0.00    +0.005 A 
ATOM      7  C   UNL     1      -1.933   1.687  -1.250  0.00  0.00    +0.038 A 
ATOM      8  C   UNL     1      -1.379   1.419  -0.009  0.00  0.00    +0.125 A 
ATOM      9  C   UNL     1      -1.910   2.004   1.127  0.00  0.00    +0.062 A 
ATOM     10  F   UNL     1      -0.319   0.587   0.092  0.00  0.00    -0.205 F 
ENDBRANCH   1   4
BRANCH   1  11
ATOM     11  C   UNL     1      -3.725   2.657   3.384  0.00  0.00    +0.233 C 
BRANCH  11  16
ATOM     12  C   UNL     1       1.196   2.964   4.443  0.00  0.00    +0.086 C 
ATOM     13  C   UNL     1      -0.280   2.703   4.593  0.00  0.00    +0.102 A 
ATOM     14  C   UNL     1      -0.886   2.222   5.693  0.00  0.00    +0.045 A 
ATOM     15  C   UNL     1      -2.266   2.135   5.396  0.00  0.00    +0.047 A 
ATOM     16  C   UNL     1      -2.420   2.569   4.132  0.00  0.00    +0.135 A 
ATOM     17  O   UNL     1      -1.215   2.917   3.653  0.00  0.00    -0.462 OA
ENDBRANCH  11  16
BRANCH  11  18
ATOM     18  C   UNL     1      -4.186   1.271   3.013  0.00  0.00    +0.242 C 
ATOM     19  O   UNL     1      -4.342   0.976   1.847  0.00  0.00    -0.273 OA
ATOM     20  N   UNL     1      -4.424   0.359   3.977  0.00  0.00    -0.311 N 
ATOM     21  H   UNL     1      -4.298   0.595   4.909  0.00  0.00    +0.149 HD
BRANCH  20  22
ATOM     22  C   UNL     1      -4.871  -0.989   3.616  0.00  0.00    +0.073 C 
ATOM     23  C   UNL     1      -6.391  -0.992   3.442  0.00  0.00    +0.022 C 
ATOM     24  C   UNL     1      -6.859  -2.399   3.065  0.00  0.00    +0.002 C 
ATOM     25  C   UNL     1      -6.470  -3.379   4.174  0.00  0.00    +0.000 C 
ATOM     26  C   UNL     1      -4.950  -3.376   4.347  0.00  0.00    +0.002 C 
ATOM     27  C   UNL     1      -4.482  -1.969   4.724  0.00  0.00    +0.022 C 
ENDBRANCH  20  22
ENDBRANCH  11  18
ENDBRANCH   1  11
BRANCH   2  28
ATOM     28  C   UNL     1      -3.782   5.547   0.876  0.00  0.00    +0.133 C 
BRANCH  28  29
ATOM     29  C   UNL     1      -3.097   6.860   1.155  0.00  0.00    -0.014 A 
ATOM     30  C   UNL     1      -3.694   8.034   1.411  0.00  0.00    +0.087 A 
ATOM     31  N   UNL     1      -2.750   9.003   1.617  0.00  0.00    -0.360 N 
ATOM     32  H   UNL     1      -2.941   9.932   1.820  0.00  0.00    +0.165 HD
ATOM     33  C   UNL     1      -1.490   8.464   1.488  0.00  0.00    +0.047 A 
ATOM     34  C   UNL     1      -1.652   7.097   1.193  0.00  0.00    +0.003 A 
ATOM     35  C   UNL     1      -0.530   6.288   1.006  0.00  0.00    +0.010 A 
ATOM     36  C   UNL     1       0.721   6.827   1.112  0.00  0.00    +0.001 A 
ATOM     37  C   UNL     1       0.886   8.174   1.402  0.00  0.00    +0.002 A 
ATOM     38  C   UNL     1      -0.207   8.991   1.590  0.00  0.00    +0.026 A 
ENDBRANCH  28  29
ENDBRANCH   2  28
TORSDOF 7
