REMARK  Name = ZINC36496567
REMARK  13 active torsions:
REMARK  status: ('A' for Active; 'I' for Inactive)
REMARK    1  A    between atoms: C_1  and  C_2
REMARK    2  A    between atoms: C_2  and  C_3
REMARK    3  A    between atoms: C_3  and  C_4
REMARK    4  A    between atoms: C_4  and  C_5
REMARK    5  A    between atoms: C_5  and  C_7
REMARK    6  A    between atoms: C_5  and  C_9
REMARK    7  A    between atoms: C_7  and  C_8
REMARK    8  A    between atoms: N_11  and  C_12
REMARK    9  A    between atoms: N_11  and  C_18
REMARK   10  A    between atoms: C_12  and  C_13
REMARK   11  A    between atoms: C_18  and  C_20
REMARK   12  A    between atoms: C_18  and  C_28
REMARK   13  A    between atoms: N_30  and  C_31
REMARK                            x       y       z     vdW  Elec       q    Type
REMARK                         _______ _______ _______ _____ _____    ______ ____
ROOT
ATOM      1  C   UNL     1      -4.189  -6.523   0.375  0.00  0.00    +0.195 C 
ENDROOT
BRANCH   1   2
ATOM      2  C   UNL     1      -5.625  -6.944   0.202  0.00  0.00    +0.018 A 
ATOM      3  C   UNL     1      -6.626  -6.291   0.899  0.00  0.00    +0.048 A 
ATOM      4  C   UNL     1      -7.945  -6.678   0.740  0.00  0.00    +0.020 A 
ATOM      5  C   UNL     1      -8.263  -7.717  -0.115  0.00  0.00    +0.003 A 
ATOM      6  C   UNL     1      -7.263  -8.370  -0.811  0.00  0.00    +0.020 A 
ATOM      7  C   UNL     1      -5.944  -7.979  -0.658  0.00  0.00    +0.048 A 
ATOM      8 CL   UNL     1      -4.690  -8.794  -1.538  0.00  0.00    -0.083 Cl
ATOM      9 CL   UNL     1      -6.228  -4.987   1.973  0.00  0.00    -0.083 Cl
ENDBRANCH   1   2
BRANCH   1  10
ATOM     10  C   UNL     1      -3.794  -6.665   1.823  0.00  0.00    +0.238 C 
ATOM     11  O   UNL     1      -3.422  -5.695   2.448  0.00  0.00    -0.273 OA
ATOM     12  N   UNL     1      -3.855  -7.871   2.422  0.00  0.00    -0.311 N 
ATOM     13  H   UNL     1      -4.152  -8.647   1.921  0.00  0.00    +0.149 HD
BRANCH  12  14
ATOM     14  C   UNL     1      -3.471  -8.010   3.829  0.00  0.00    +0.073 C 
ATOM     15  C   UNL     1      -1.956  -8.200   3.928  0.00  0.00    +0.022 C 
ATOM     16  C   UNL     1      -1.556  -8.344   5.398  0.00  0.00    +0.002 C 
ATOM     17  C   UNL     1      -2.263  -9.559   6.002  0.00  0.00    +0.000 C 
ATOM     18  C   UNL     1      -3.778  -9.370   5.902  0.00  0.00    +0.002 C 
ATOM     19  C   UNL     1      -4.178  -9.225   4.433  0.00  0.00    +0.022 C 
ENDBRANCH  12  14
ENDBRANCH   1  10
BRANCH   1  22
ATOM     20  C   UNL     1      -2.935  -4.434   0.318  0.00  0.00    +0.220 C 
ATOM     21  O   UNL     1      -2.012  -5.002   0.861  0.00  0.00    -0.275 OA
ATOM     22  N   UNL     1      -4.037  -5.125  -0.037  0.00  0.00    -0.278 N 
BRANCH  20  23
ATOM     23  C   UNL     1      -2.852  -2.955   0.041  0.00  0.00    +0.075 C 
BRANCH  23  24
ATOM     24  C   UNL     1      -3.525  -2.184   1.178  0.00  0.00    +0.009 C 
ATOM     25  C   UNL     1      -2.753  -2.415   2.478  0.00  0.00    +0.004 C 
ENDBRANCH  23  24
BRANCH  23  26
ATOM     26  C   UNL     1      -1.384  -2.537  -0.059  0.00  0.00    +0.013 C 
BRANCH  26  27
ATOM     27  C   UNL     1      -1.298  -1.084  -0.530  0.00  0.00    +0.000 C 
BRANCH  27  29
ATOM     28  C   UNL     1       0.250   0.818  -1.007  0.00  0.00    +0.004 C 
ATOM     29  C   UNL     1       0.165  -0.635  -0.537  0.00  0.00    -0.003 C 
ENDBRANCH  27  29
ENDBRANCH  26  27
ENDBRANCH  23  26
ENDBRANCH  20  23
BRANCH  22  30
ATOM     30  C   UNL     1      -5.081  -4.479  -0.836  0.00  0.00    +0.183 C 
BRANCH  30  31
ATOM     31  C   UNL     1      -4.753  -4.619  -2.300  0.00  0.00    +0.122 A 
ATOM     32  C   UNL     1      -4.977  -5.709  -3.055  0.00  0.00    +0.046 A 
ATOM     33  C   UNL     1      -4.519  -5.405  -4.358  0.00  0.00    +0.041 A 
ATOM     34  C   UNL     1      -4.043  -4.148  -4.321  0.00  0.00    +0.195 A 
ATOM     35  O   UNL     1      -4.193  -3.674  -3.073  0.00  0.00    -0.466 OA
ENDBRANCH  30  31
ENDBRANCH  22  30
ENDBRANCH   1  22
TORSDOF 11
