REMARK  Name = ZINC39914704
REMARK  11 active torsions:
REMARK  status: ('A' for Active; 'I' for Inactive)
REMARK    1  A    between atoms: C_1  and  C_2
REMARK    2  A    between atoms: C_2  and  C_3
REMARK    3  A    between atoms: C_3  and  C_4
REMARK    4  A    between atoms: C_4  and  O_5
REMARK    5  A    between atoms: O_5  and  C_6
REMARK    6  A    between atoms: C_10  and  C_12
REMARK    7  A    between atoms: C_15  and  C_30
REMARK    8  A    between atoms: N_22  and  C_23
REMARK    9  A    between atoms: C_23  and  C_24
REMARK   10  A    between atoms: C_33  and  C_37
REMARK   11  A    between atoms: C_35  and  O_36
REMARK                            x       y       z     vdW  Elec       q    Type
REMARK                         _______ _______ _______ _____ _____    ______ ____
ROOT
ATOM      1  C   UNL     1       3.023  -6.341   4.952  0.00  0.00    +0.142 C 
ATOM      2  C   UNL     1       4.377  -6.872   4.567  0.00  0.00    +0.035 A 
ATOM      3  C   UNL     1       5.644  -6.601   4.040  0.00  0.00    +0.102 A 
ATOM      4  N   UNL     1       6.320  -7.733   4.036  0.00  0.00    -0.173 NA
ATOM      5  N   UNL     1       5.606  -8.691   4.508  0.00  0.00    -0.272 N 
ATOM      6  H   UNL     1       5.899  -9.612   4.600  0.00  0.00    +0.189 HD
ATOM      7  C   UNL     1       4.373  -8.222   4.862  0.00  0.00    +0.126 A 
ATOM      8  C   UNL     1       3.063  -8.574   5.421  0.00  0.00    +0.266 C 
ATOM      9  O   UNL     1       2.739  -9.689   5.783  0.00  0.00    -0.268 OA
ATOM     10  N   UNL     1       2.270  -7.487   5.479  0.00  0.00    -0.281 N 
ENDROOT
BRANCH   3  11
ATOM     11  C   UNL     1       6.136  -5.282   3.571  0.00  0.00    +0.045 A 
ATOM     12  C   UNL     1       5.357  -4.141   3.749  0.00  0.00    +0.034 A 
ATOM     13  C   UNL     1       5.820  -2.916   3.311  0.00  0.00    +0.045 A 
ATOM     14  C   UNL     1       7.056  -2.817   2.695  0.00  0.00    -0.029 A 
ATOM     15  C   UNL     1       7.836  -3.943   2.514  0.00  0.00    +0.050 A 
ATOM     16  C   UNL     1       7.386  -5.178   2.955  0.00  0.00    +0.126 A 
ATOM     17  C   UNL     1       7.553  -1.476   2.220  0.00  0.00    +0.045 C 
ATOM     18 CL   UNL     1       4.848  -1.494   3.532  0.00  0.00    -0.083 Cl
BRANCH  16  19
ATOM     19  O   UNL     1       8.155  -6.285   2.783  0.00  0.00    -0.506 OA
ATOM     20  H   UNL     1       8.001  -6.744   1.946  0.00  0.00    +0.292 HD
ENDBRANCH  16  19
ENDBRANCH   3  11
BRANCH   1  25
ATOM     21  C   UNL     1       1.390  -3.905   2.569  0.00  0.00    +0.121 A 
ATOM     22  C   UNL     1       1.044  -4.741   1.517  0.00  0.00    +0.045 A 
ATOM     23  C   UNL     1       1.339  -6.088   1.581  0.00  0.00    +0.004 A 
ATOM     24  C   UNL     1       1.980  -6.605   2.692  0.00  0.00    +0.006 A 
ATOM     25  C   UNL     1       2.325  -5.775   3.742  0.00  0.00    -0.019 A 
ATOM     26  C   UNL     1       2.037  -4.425   3.680  0.00  0.00    +0.051 A 
BRANCH  21  27
ATOM     27  O   UNL     1       1.101  -2.579   2.508  0.00  0.00    -0.492 OA
BRANCH  27  28
ATOM     28  C   UNL     1       0.433  -2.113   1.334  0.00  0.00    +0.229 C 
BRANCH  28  29
ATOM     29  C   UNL     1       0.194  -0.606   1.446  0.00  0.00    +0.041 C 
BRANCH  29  31
ATOM     30  C   UNL     1      -0.761   1.399   0.301  0.00  0.00    +0.004 C 
ATOM     31  C   UNL     1      -0.521  -0.108   0.189  0.00  0.00    -0.000 C 
ENDBRANCH  29  31
ENDBRANCH  28  29
ENDBRANCH  27  28
ENDBRANCH  21  27
ENDBRANCH   1  25
BRANCH  10  32
ATOM     32  C   UNL     1       0.894  -7.452   5.981  0.00  0.00    +0.144 C 
BRANCH  32  33
ATOM     33  C   UNL     1      -0.061  -7.723   4.847  0.00  0.00    -0.030 A 
ATOM     34  C   UNL     1      -0.550  -6.676   4.089  0.00  0.00    +0.005 A 
ATOM     35  C   UNL     1      -1.426  -6.925   3.049  0.00  0.00    +0.000 A 
ATOM     36  C   UNL     1      -1.813  -8.221   2.767  0.00  0.00    +0.000 A 
ATOM     37  C   UNL     1      -1.323  -9.269   3.524  0.00  0.00    +0.000 A 
ATOM     38  C   UNL     1      -0.444  -9.021   4.561  0.00  0.00    +0.005 A 
ENDBRANCH  32  33
ENDBRANCH  10  32
TORSDOF 9
