REMARK  Name = ZINC10362067
REMARK  10 active torsions:
REMARK  status: ('A' for Active; 'I' for Inactive)
REMARK    1  A    between atoms: C_1  and  C_2
REMARK    2  A    between atoms: C_5  and  C_8
REMARK    3  A    between atoms: C_8  and  N_9
REMARK    4  A    between atoms: C_17  and  C_27
REMARK    5  A    between atoms: C_19  and  C_26
REMARK    6  A    between atoms: N_21  and  C_22
REMARK    7  A    between atoms: C_22  and  C_23
REMARK    8  A    between atoms: C_23  and  C_24
REMARK    9  A    between atoms: C_24  and  O_25
REMARK   10  A    between atoms: N_28  and  C_31
REMARK                            x       y       z     vdW  Elec       q    Type
REMARK                         _______ _______ _______ _____ _____    ______ ____
ROOT
ATOM      1  N   UNL     1       0.160  -0.771   1.475  0.00  0.00    -0.255 N 
ATOM      2  C   UNL     1      -1.036  -0.929   2.078  0.00  0.00    +0.283 A 
ATOM      3  O   UNL     1      -2.066  -0.685   1.474  0.00  0.00    -0.265 OA
ATOM      4  C   UNL     1      -1.085  -1.378   3.410  0.00  0.00    +0.154 A 
ATOM      5  C   UNL     1       0.110  -1.650   4.076  0.00  0.00    +0.170 A 
ATOM      6  N   UNL     1      -0.196  -2.057   5.312  0.00  0.00    -0.195 NA
ATOM      7  C   UNL     1      -1.494  -2.062   5.469  0.00  0.00    +0.221 A 
ATOM      8  N   UNL     1      -2.094  -1.643   4.312  0.00  0.00    -0.296 N 
ATOM      9  C   UNL     1      -3.543  -1.528   4.162  0.00  0.00    +0.133 C 
ATOM     10  C   UNL     1      -4.225  -2.200   5.321  0.00  0.00    +0.057 C 
ATOM     11  N   UNL     1      -3.630  -2.578   6.376  0.00  0.00    -0.185 NA
ATOM     12  N   UNL     1      -2.248  -2.414   6.572  0.00  0.00    -0.193 N 
ATOM     13  C   UNL     1      -5.710  -2.439   5.224  0.00  0.00    +0.064 C 
ATOM     14  C   UNL     1      -3.975  -2.200   2.857  0.00  0.00    +0.037 C 
ATOM     15  N   UNL     1       1.306  -1.468   3.402  0.00  0.00    -0.279 N 
ATOM     16  C   UNL     1       1.305  -1.042   2.125  0.00  0.00    +0.334 A 
ATOM     17  O   UNL     1       2.364  -0.892   1.548  0.00  0.00    -0.246 OA
ATOM     18  C   UNL     1       2.575  -1.747   4.078  0.00  0.00    +0.155 C 
ENDROOT
BRANCH   1  19
ATOM     19  C   UNL     1       0.211  -0.304   0.087  0.00  0.00    +0.165 C 
BRANCH  19  24
ATOM     20  C   UNL     1       0.479   5.468   0.008  0.00  0.00    +0.044 C 
ATOM     21  C   UNL     1       0.409   3.963   0.028  0.00  0.00    -0.050 A 
ATOM     22  C   UNL     1       1.573   3.217   0.064  0.00  0.00    +0.004 A 
ATOM     23  C   UNL     1       1.509   1.837   0.083  0.00  0.00    +0.005 A 
ATOM     24  C   UNL     1       0.281   1.201   0.067  0.00  0.00    -0.027 A 
ATOM     25  C   UNL     1      -0.882   1.947   0.025  0.00  0.00    +0.005 A 
ATOM     26  C   UNL     1      -0.819   3.328   0.011  0.00  0.00    +0.004 A 
ENDBRANCH  19  24
ENDBRANCH   1  19
BRANCH  12  27
ATOM     27  C   UNL     1      -1.634  -2.608   7.888  0.00  0.00    +0.137 C 
BRANCH  27  28
ATOM     28  C   UNL     1      -1.629  -1.281   8.649  0.00  0.00    +0.049 C 
BRANCH  28  29
ATOM     29  C   UNL     1      -0.988  -1.484  10.023  0.00  0.00    +0.157 C 
BRANCH  29  30
ATOM     30  O   UNL     1      -0.983  -0.244  10.734  0.00  0.00    -0.395 OA
ATOM     31  H   UNL     1      -0.590  -0.298  11.616  0.00  0.00    +0.209 HD
ENDBRANCH  29  30
ENDBRANCH  28  29
ENDBRANCH  27  28
ENDBRANCH  12  27
TORSDOF 6
