REMARK  Name = ZINC13077973
REMARK  9 active torsions:
REMARK  status: ('A' for Active; 'I' for Inactive)
REMARK    1  A    between atoms: C_1  and  C_2
REMARK    2  A    between atoms: C_3  and  C_15
REMARK    3  A    between atoms: N_5  and  C_7
REMARK    4  A    between atoms: N_16  and  N_17
REMARK    5  A    between atoms: C_18  and  C_26
REMARK    6  A    between atoms: C_21  and  S_22
REMARK    7  A    between atoms: S_22  and  C_23
REMARK    8  A    between atoms: C_23  and  C_24
REMARK    9  A    between atoms: C_30  and  C_31
REMARK                            x       y       z     vdW  Elec       q    Type
REMARK                         _______ _______ _______ _____ _____    ______ ____
ROOT
ATOM      1  C   UNL     1      -3.220   0.003   1.142  0.00  0.00    +0.146 C 
ATOM      2  N   UNL     1      -3.004   0.619   0.021  0.00  0.00    -0.170 NA
ENDROOT
BRANCH   1   5
ATOM      3  C   UNL     1      -3.842  -1.754   3.709  0.00  0.00    +0.068 C 
ATOM      4  C   UNL     1      -4.007  -2.176   2.271  0.00  0.00    +0.070 A 
ATOM      5  C   UNL     1      -3.726  -1.382   1.137  0.00  0.00    +0.054 A 
ATOM      6  C   UNL     1      -4.018  -2.143   0.022  0.00  0.00    +0.142 A 
ATOM      7  N   UNL     1      -4.449  -3.346   0.459  0.00  0.00    -0.221 N 
ATOM      8  N   UNL     1      -4.435  -3.338   1.858  0.00  0.00    -0.170 NA
ATOM      9 CL   UNL     1      -3.858  -1.647  -1.633  0.00  0.00    -0.061 Cl
BRANCH   7  10
ATOM     10  C   UNL     1      -4.847  -4.418  -0.351  0.00  0.00    +0.068 A 
ATOM     11  C   UNL     1      -5.508  -4.177  -1.548  0.00  0.00    +0.028 A 
ATOM     12  C   UNL     1      -5.896  -5.235  -2.347  0.00  0.00    +0.003 A 
ATOM     13  C   UNL     1      -5.635  -6.534  -1.952  0.00  0.00    +0.020 A 
ATOM     14  C   UNL     1      -4.981  -6.778  -0.757  0.00  0.00    +0.043 A 
ATOM     15  C   UNL     1      -4.587  -5.723   0.044  0.00  0.00    +0.047 A 
ATOM     16 CL   UNL     1      -4.656  -8.411  -0.264  0.00  0.00    -0.083 Cl
ENDBRANCH   7  10
ENDBRANCH   1   5
BRANCH   2  17
ATOM     17  N   UNL     1      -2.524   1.935   0.026  0.00  0.00    -0.187 N 
ATOM     18  C   UNL     1      -1.209   2.341   0.021  0.00  0.00    +0.189 A 
ATOM     19  N   UNL     1      -1.211   3.655   0.033  0.00  0.00    -0.126 NA
ATOM     20  N   UNL     1      -2.420   4.092   0.037  0.00  0.00    -0.120 NA
ATOM     21  C   UNL     1      -3.265   3.086   0.036  0.00  0.00    +0.213 A 
BRANCH  18  22
ATOM     22  C   UNL     1      -0.018   1.464   0.010  0.00  0.00    +0.062 A 
ATOM     23  C   UNL     1       0.002  -0.004   0.002  0.00  0.00    +0.053 A 
ATOM     24  C   UNL     1       1.298  -0.357  -0.012  0.00  0.00    +0.196 A 
ATOM     25  O   UNL     1       2.054   0.751  -0.013  0.00  0.00    -0.467 OA
ATOM     26  C   UNL     1       1.287   1.851  -0.000  0.00  0.00    +0.113 A 
ATOM     27  C   UNL     1       1.785   3.273   0.002  0.00  0.00    +0.087 C 
ENDBRANCH  18  22
BRANCH  21  28
ATOM     28  S   UNL     1      -5.023   3.198   0.046  0.00  0.00    -0.073 S 
BRANCH  28  29
ATOM     29  C   UNL     1      -5.223   4.997   0.057  0.00  0.00    +0.202 C 
BRANCH  29  30
ATOM     30  C   UNL     1      -6.691   5.339   0.066  0.00  0.00    +0.366 C 
ATOM     31  O   UNL     1      -7.517   4.457   0.066  0.00  0.00    -0.245 OA
ATOM     32  O   UNL     1      -7.081   6.624   0.075  0.00  0.00    -0.245 OA
ENDBRANCH  29  30
ENDBRANCH  28  29
ENDBRANCH  21  28
ENDBRANCH   2  17
TORSDOF 7
