REMARK  Name = ZINC10646918
REMARK  7 active torsions:
REMARK  status: ('A' for Active; 'I' for Inactive)
REMARK    1  A    between atoms: C_3  and  C_6
REMARK    2  A    between atoms: C_9  and  C_27
REMARK    3  A    between atoms: C_12  and  C_14
REMARK    4  A    between atoms: C_14  and  O_15
REMARK    5  A    between atoms: O_15  and  C_16
REMARK    6  A    between atoms: C_16  and  C_18
REMARK    7  A    between atoms: C_21  and  N_24
REMARK                            x       y       z     vdW  Elec       q    Type
REMARK                         _______ _______ _______ _____ _____    ______ ____
ROOT
ATOM      1  C   UNL     1      -2.052  -4.477  -0.008  0.00  0.00    +0.144 C 
ATOM      2  C   UNL     1      -3.531  -4.912   0.010  0.00  0.00    +0.088 C 
ATOM      3  C   UNL     1      -4.294  -3.607   0.023  0.00  0.00    +0.075 C 
ATOM      4  N   UNL     1      -3.461  -2.620   0.021  0.00  0.00    -0.180 NA
ATOM      5  N   UNL     1      -2.122  -3.007   0.006  0.00  0.00    -0.182 N 
ATOM      6  C   UNL     1      -1.065  -2.172   0.001  0.00  0.00    +0.273 C 
ATOM      7  O   UNL     1       0.062  -2.620  -0.013  0.00  0.00    -0.270 OA
ENDROOT
BRANCH   1  10
ATOM      8  C   UNL     1       0.073  -6.306   2.571  0.00  0.00    +0.008 A 
ATOM      9  C   UNL     1      -0.466  -6.017   1.331  0.00  0.00    +0.013 A 
ATOM     10  C   UNL     1      -1.338  -4.986   1.218  0.00  0.00    +0.013 A 
ATOM     11  S   UNL     1      -1.415  -4.381   2.895  0.00  0.00    -0.100 S 
ATOM     12  C   UNL     1      -0.287  -5.549   3.636  0.00  0.00    +0.045 A 
ENDBRANCH   1  10
BRANCH   3  13
ATOM     13  C   UNL     1      -5.755  -3.480   0.037  0.00  0.00    +0.035 A 
ATOM     14  C   UNL     1      -6.532  -2.335   0.050  0.00  0.00    +0.017 A 
ATOM     15  C   UNL     1      -7.901  -2.474   0.062  0.00  0.00    +0.008 A 
ATOM     16  C   UNL     1      -8.443  -3.719   0.061  0.00  0.00    +0.046 A 
ATOM     17  S   UNL     1      -6.996  -4.764   0.035  0.00  0.00    -0.095 S 
ENDBRANCH   3  13
BRANCH   6  18
ATOM     18  C   UNL     1      -1.282  -0.681   0.011  0.00  0.00    +0.330 C 
BRANCH  18  19
ATOM     19  O   UNL     1       0.002  -0.004   0.002  0.00  0.00    -0.452 OA
BRANCH  19  20
ATOM     20  C   UNL     1      -0.016   1.343   0.009  0.00  0.00    +0.340 C 
ATOM     21  O   UNL     1      -1.076   1.936   0.018  0.00  0.00    -0.245 OA
BRANCH  20  22
ATOM     22  C   UNL     1       1.253   2.099   0.001  0.00  0.00    +0.059 A 
ATOM     23  C   UNL     1       2.473   1.420  -0.008  0.00  0.00    +0.017 A 
ATOM     24  C   UNL     1       3.655   2.133  -0.022  0.00  0.00    +0.033 A 
ATOM     25  C   UNL     1       3.632   3.516  -0.014  0.00  0.00    +0.126 A 
ATOM     26  C   UNL     1       2.426   4.195   0.001  0.00  0.00    +0.033 A 
ATOM     27  C   UNL     1       1.238   3.495   0.009  0.00  0.00    +0.017 A 
BRANCH  25  28
ATOM     28  N   UNL     1       4.904   4.274  -0.022  0.00  0.00    +0.056 N 
ATOM     29  O   UNL     1       4.887   5.491  -0.015  0.00  0.00    -0.126 OA
ATOM     30  O   UNL     1       5.967   3.679  -0.035  0.00  0.00    -0.126 OA
ENDBRANCH  25  28
ENDBRANCH  20  22
ENDBRANCH  19  20
ENDBRANCH  18  19
ENDBRANCH   6  18
TORSDOF 7
