REMARK  Name = ZINC44714706
REMARK  5 active torsions:
REMARK  status: ('A' for Active; 'I' for Inactive)
REMARK    1  A    between atoms: C_7  and  C_10
REMARK    2  A    between atoms: C_14  and  C_23
REMARK    3  A    between atoms: N_25  and  C_26
REMARK    4  A    between atoms: C_26  and  C_27
REMARK    5  A    between atoms: C_27  and  C_28
REMARK                            x       y       z     vdW  Elec       q    Type
REMARK                         _______ _______ _______ _____ _____    ______ ____
ROOT
ATOM      1  C   UNL     1       0.391  -3.111  -0.017  0.00  0.00    +0.248 C 
ATOM      2  O   UNL     1      -0.757  -2.728   0.100  0.00  0.00    -0.270 OA
ATOM      3  N   UNL     1       0.654  -4.428  -0.129  0.00  0.00    -0.296 N 
ATOM      4  C   UNL     1       1.979  -5.092  -0.156  0.00  0.00    +0.121 C 
ATOM      5  C   UNL     1       1.787  -6.380   0.675  0.00  0.00    +0.100 C 
ATOM      6  C   UNL     1       0.279  -6.671   0.606  0.00  0.00    -0.004 C 
ATOM      7  C   UNL     1      -0.318  -5.542  -0.246  0.00  0.00    +0.115 C 
ATOM      8  C   UNL     1      -0.329  -6.645   2.005  0.00  0.00    -0.010 C 
ATOM      9  C   UNL     1      -1.817  -6.993   1.917  0.00  0.00    -0.082 C 
ATOM     10  N   UNL     1      -1.976  -8.324   1.317  0.00  0.00    +0.379 N 
ATOM     11  C   UNL     1      -1.473  -8.315  -0.062  0.00  0.00    -0.082 C 
ATOM     12  C   UNL     1       0.030  -8.022  -0.057  0.00  0.00    -0.010 C 
ATOM     13  H   UNL     1      -1.457  -8.999   1.859  0.00  0.00    -0.086 HD
ATOM     14  H   UNL     1      -2.953  -8.576   1.316  0.00  0.00    -0.086 HD
ENDROOT
BRANCH   1  21
ATOM     15  C   UNL     1       0.351   0.989   1.833  0.00  0.00    +0.001 A 
ATOM     16  C   UNL     1       1.505   1.749   1.697  0.00  0.00    +0.001 A 
ATOM     17  C   UNL     1       2.589   1.229   1.017  0.00  0.00    +0.015 A 
ATOM     18  C   UNL     1       2.512  -0.040   0.482  0.00  0.00    +0.020 A 
ATOM     19  C   UNL     1       1.354  -0.830   0.606  0.00  0.00    +0.001 A 
ATOM     20  C   UNL     1       0.265  -0.274   1.304  0.00  0.00    +0.010 A 
ATOM     21  C   UNL     1       1.492  -2.139  -0.036  0.00  0.00    +0.052 A 
ATOM     22  C   UNL     1       2.669  -2.426  -0.650  0.00  0.00    +0.059 A 
ATOM     23  S   UNL     1       3.626  -1.066  -0.437  0.00  0.00    -0.096 S 
ENDBRANCH   1  21
BRANCH   5  24
ATOM     24  C   UNL     1       2.571  -7.516   0.070  0.00  0.00    +0.218 C 
ATOM     25  O   UNL     1       2.845  -7.502  -1.112  0.00  0.00    -0.275 OA
ATOM     26  N   UNL     1       2.968  -8.547   0.841  0.00  0.00    -0.315 N 
ATOM     27  H   UNL     1       2.749  -8.559   1.786  0.00  0.00    +0.149 HD
BRANCH  26  28
ATOM     28  C   UNL     1       3.730  -9.652   0.253  0.00  0.00    +0.109 C 
BRANCH  28  29
ATOM     29  C   UNL     1       4.053 -10.683   1.336  0.00  0.00    +0.056 C 
BRANCH  29  30
ATOM     30  C   UNL     1       4.837 -11.819   0.730  0.00  0.00    -0.021 A 
ATOM     31  C   UNL     1       4.338 -12.977   0.270  0.00  0.00    +0.087 A 
ATOM     32  N   UNL     1       5.351 -13.764  -0.207  0.00  0.00    -0.360 N 
ATOM     33  H   UNL     1       5.236 -14.648  -0.591  0.00  0.00    +0.165 HD
ATOM     34  C   UNL     1       6.557 -13.115  -0.060  0.00  0.00    +0.047 A 
ATOM     35  C   UNL     1       6.287 -11.866   0.527  0.00  0.00    +0.004 A 
ATOM     36  C   UNL     1       7.332 -10.979   0.791  0.00  0.00    +0.030 A 
ATOM     37  C   UNL     1       8.624 -11.334   0.470  0.00  0.00    +0.042 A 
ATOM     38  C   UNL     1       8.889 -12.566  -0.113  0.00  0.00    +0.022 A 
ATOM     39  C   UNL     1       7.869 -13.455  -0.372  0.00  0.00    +0.027 A 
ATOM     40 CL   UNL     1       9.928 -10.235   0.796  0.00  0.00    -0.084 Cl
ENDBRANCH  29  30
ENDBRANCH  28  29
ENDBRANCH  26  28
ENDBRANCH   5  24
TORSDOF 5
