REMARK  Name = ZINC09485970
REMARK  7 active torsions:
REMARK  status: ('A' for Active; 'I' for Inactive)
REMARK    1  A    between atoms: C_1  and  C_2
REMARK    2  A    between atoms: N_5  and  C_7
REMARK    3  A    between atoms: C_16  and  C_18
REMARK    4  A    between atoms: C_21  and  O_25
REMARK    5  A    between atoms: C_22  and  O_24
REMARK    6  A    between atoms: C_29  and  C_32
REMARK    7  A    between atoms: C_35  and  O_38
REMARK                            x       y       z     vdW  Elec       q    Type
REMARK                         _______ _______ _______ _____ _____    ______ ____
ROOT
ATOM      1  C   UNL     1       6.384   0.552  -1.083  0.00  0.00    +0.068 C 
ATOM      2  C   UNL     1       6.642   1.222   0.242  0.00  0.00    +0.066 A 
ATOM      3  C   UNL     1       6.080   2.416   0.671  0.00  0.00    +0.027 A 
ATOM      4  C   UNL     1       6.568   2.684   1.923  0.00  0.00    +0.131 A 
ATOM      5  N   UNL     1       7.405   1.682   2.260  0.00  0.00    -0.218 N 
ATOM      6  N   UNL     1       7.437   0.776   1.187  0.00  0.00    -0.170 NA
ATOM      7  N   UNL     1       6.193   3.828   2.617  0.00  0.00    -0.302 N 
ATOM      8  C   UNL     1       5.574   4.839   1.925  0.00  0.00    +0.017 C 
ATOM      9  C   UNL     1       5.050   4.656   0.694  0.00  0.00    +0.024 C 
ATOM     10  C   UNL     1       5.106   3.325  -0.024  0.00  0.00    +0.089 C 
ATOM     11  C   UNL     1       4.417   5.713   0.015  0.00  0.00    +0.162 C 
ATOM     12  O   UNL     1       3.962   5.519  -1.095  0.00  0.00    -0.292 OA
ATOM     13  C   UNL     1       4.291   7.079   0.631  0.00  0.00    +0.088 C 
ATOM     14  C   UNL     1       4.249   6.932   2.156  0.00  0.00    +0.032 C 
ATOM     15  C   UNL     1       5.510   6.190   2.601  0.00  0.00    +0.059 C 
ATOM     16  H   UNL     1       6.364   3.910   3.568  0.00  0.00    +0.153 HD
ENDROOT
BRANCH   5  17
ATOM     17  C   UNL     1       8.116   1.565   3.462  0.00  0.00    +0.067 A 
ATOM     18  C   UNL     1       8.608   2.700   4.092  0.00  0.00    +0.028 A 
ATOM     19  C   UNL     1       9.303   2.583   5.280  0.00  0.00    +0.002 A 
ATOM     20  C   UNL     1       9.519   1.335   5.836  0.00  0.00    +0.000 A 
ATOM     21  C   UNL     1       9.034   0.202   5.208  0.00  0.00    +0.002 A 
ATOM     22  C   UNL     1       8.333   0.314   4.024  0.00  0.00    +0.028 A 
ENDBRANCH   5  17
BRANCH  10  23
ATOM     23  C   UNL     1       3.738   2.693  -0.018  0.00  0.00    -0.032 A 
ATOM     24  C   UNL     1       3.120   2.397   1.183  0.00  0.00    +0.008 A 
ATOM     25  C   UNL     1       1.863   1.823   1.193  0.00  0.00    +0.049 A 
ATOM     26  C   UNL     1       1.224   1.533  -0.001  0.00  0.00    +0.158 A 
ATOM     27  C   UNL     1       1.845   1.831  -1.210  0.00  0.00    +0.159 A 
ATOM     28  C   UNL     1       3.103   2.412  -1.214  0.00  0.00    +0.053 A 
BRANCH  27  29
ATOM     29  O   UNL     1       1.219   1.555  -2.385  0.00  0.00    -0.503 OA
ATOM     30  H   UNL     1       0.668   2.277  -2.717  0.00  0.00    +0.292 HD
ENDBRANCH  27  29
BRANCH  26  31
ATOM     31  O   UNL     1      -0.011   0.963   0.007  0.00  0.00    -0.503 OA
ATOM     32  H   UNL     1       0.002  -0.004   0.002  0.00  0.00    +0.292 HD
ENDBRANCH  26  31
ENDBRANCH  10  23
BRANCH  14  33
ATOM     33  C   UNL     1       4.209   8.295   2.796  0.00  0.00    -0.043 A 
ATOM     34  C   UNL     1       5.230   9.198   2.563  0.00  0.00    +0.007 A 
ATOM     35  C   UNL     1       5.193  10.450   3.145  0.00  0.00    +0.045 A 
ATOM     36  C   UNL     1       4.135  10.798   3.973  0.00  0.00    +0.117 A 
ATOM     37  C   UNL     1       3.115   9.888   4.210  0.00  0.00    +0.045 A 
ATOM     38  C   UNL     1       3.154   8.639   3.621  0.00  0.00    +0.007 A 
BRANCH  36  39
ATOM     39  O   UNL     1       4.100  12.027   4.552  0.00  0.00    -0.507 OA
ATOM     40  H   UNL     1       4.532  12.068   5.416  0.00  0.00    +0.292 HD
ENDBRANCH  36  39
ENDBRANCH  14  33
TORSDOF 6
