REMARK  Name = ZINC22564440
REMARK  5 active torsions:
REMARK  status: ('A' for Active; 'I' for Inactive)
REMARK    1  A    between atoms: C_1  and  C_2
REMARK    2  A    between atoms: C_21  and  C_34
REMARK    3  A    between atoms: C_22  and  N_33
REMARK    4  A    between atoms: C_29  and  C_31
REMARK    5  A    between atoms: C_29  and  C_32
REMARK                            x       y       z     vdW  Elec       q    Type
REMARK                         _______ _______ _______ _____ _____    ______ ____
ROOT
ATOM      1  C   UNL     1      -0.019   1.526   0.010  0.00  0.00    +0.012 C 
ATOM      2  C   UNL     1       0.002  -0.004   0.002  0.00  0.00    +0.020 C 
ATOM      3  C   UNL     1      -1.437  -0.526   0.022  0.00  0.00    +0.034 C 
ATOM      4  C   UNL     1      -1.475  -2.071   0.015  0.00  0.00    +0.043 C 
ATOM      5  C   UNL     1      -2.938  -2.478   0.013  0.00  0.00    +0.026 C 
ATOM      6  C   UNL     1      -3.201  -3.926  -0.363  0.00  0.00    +0.002 C 
ATOM      7  C   UNL     1      -2.463  -4.296  -1.651  0.00  0.00    +0.000 C 
ATOM      8  C   UNL     1      -0.966  -4.052  -1.442  0.00  0.00    +0.002 C 
ATOM      9  C   UNL     1      -0.740  -2.556  -1.230  0.00  0.00    +0.026 C 
ATOM     10  N   UNL     1      -0.762  -2.518   1.223  0.00  0.00    -0.263 N 
ATOM     11  C   UNL     1       0.272  -1.731   1.744  0.00  0.00    +0.045 A 
ATOM     12  C   UNL     1       0.715  -0.514   1.221  0.00  0.00    -0.023 A 
ATOM     13  C   UNL     1       1.760   0.104   1.863  0.00  0.00    +0.006 A 
ATOM     14  C   UNL     1       2.325  -0.455   3.001  0.00  0.00    +0.001 A 
ATOM     15  C   UNL     1       1.880  -1.661   3.535  0.00  0.00    +0.007 A 
ATOM     16  C   UNL     1       0.845  -2.291   2.878  0.00  0.00    -0.001 A 
ATOM     17  C   UNL     1       0.107  -3.570   3.103  0.00  0.00    +0.144 C 
ATOM     18  C   UNL     1      -0.915  -3.618   1.973  0.00  0.00    +0.241 C 
ATOM     19  O   UNL     1      -1.707  -4.523   1.821  0.00  0.00    -0.273 OA
ATOM     20  C   UNL     1      -0.606  -3.562   4.421  0.00  0.00    +0.110 C 
ATOM     21  C   UNL     1      -0.211  -4.382   5.427  0.00  0.00    +0.199 C 
ATOM     22  O   UNL     1       0.829  -5.215   5.280  0.00  0.00    -0.445 OA
ATOM     23  C   UNL     1       1.327  -5.506   4.064  0.00  0.00    +0.116 C 
ATOM     24  C   UNL     1       1.034  -4.752   2.988  0.00  0.00    +0.058 C 
ATOM     25  C   UNL     1       1.604  -5.037   1.732  0.00  0.00    +0.165 C 
ATOM     26  O   UNL     1       1.382  -4.303   0.790  0.00  0.00    -0.292 OA
ATOM     27  C   UNL     1       2.485  -6.239   1.527  0.00  0.00    +0.086 C 
ATOM     28  C   UNL     1       3.236  -6.543   2.826  0.00  0.00    -0.021 C 
ATOM     29  C   UNL     1       2.222  -6.718   3.954  0.00  0.00    +0.081 C 
ATOM     30  C   UNL     1       4.195  -5.398   3.155  0.00  0.00    +0.012 C 
ATOM     31  C   UNL     1       4.037  -7.838   2.656  0.00  0.00    +0.012 C 
ENDROOT
BRANCH  21  32
ATOM     32  N   UNL     1      -0.892  -4.356   6.620  0.00  0.00    -0.328 N 
ATOM     33  H   UNL     1      -1.646  -3.757   6.736  0.00  0.00    +0.145 HD
ATOM     34  H   UNL     1      -0.619  -4.938   7.347  0.00  0.00    +0.145 HD
ENDBRANCH  21  32
BRANCH  20  35
ATOM     35  C   UNL     1      -1.715  -2.678   4.630  0.00  0.00    +0.102 C 
ATOM     36  N   UNL     1      -2.594  -1.977   4.795  0.00  0.00    -0.191 NA
ENDBRANCH  20  35
TORSDOF 2
