REMARK  Name = ZINC48279182
REMARK  6 active torsions:
REMARK  status: ('A' for Active; 'I' for Inactive)
REMARK    1  A    between atoms: C_4  and  C_7
REMARK    2  A    between atoms: C_7  and  C_8
REMARK    3  A    between atoms: C_8  and  C_9
REMARK    4  A    between atoms: N_11  and  C_12
REMARK    5  A    between atoms: N_15  and  C_18
REMARK    6  A    between atoms: C_23  and  N_24
REMARK                            x       y       z     vdW  Elec       q    Type
REMARK                         _______ _______ _______ _____ _____    ______ ____
ROOT
ATOM      1  C   UNL     1       7.365  -2.749   2.524  0.00  0.00    +0.076 C 
ATOM      2  C   UNL     1       8.511  -1.743   2.389  0.00  0.00    +0.041 C 
ATOM      3  C   UNL     1       9.843  -2.496   2.337  0.00  0.00    +0.107 C 
ATOM      4  N   UNL     1       9.941  -3.367   3.516  0.00  0.00    -0.328 N 
ATOM      5  C   UNL     1       8.848  -4.310   3.790  0.00  0.00    +0.107 C 
ATOM      6  C   UNL     1       7.526  -3.537   3.826  0.00  0.00    +0.041 C 
ENDROOT
BRANCH   4   7
ATOM      7  C   UNL     1      11.051  -3.300   4.361  0.00  0.00    +0.062 A 
ATOM      8  C   UNL     1      11.047  -2.436   5.447  0.00  0.00    +0.049 A 
ATOM      9  C   UNL     1      12.152  -2.373   6.283  0.00  0.00    +0.038 A 
ATOM     10  C   UNL     1      13.259  -3.175   6.032  0.00  0.00    -0.023 A 
ATOM     11  C   UNL     1      13.260  -4.034   4.950  0.00  0.00    +0.040 A 
ATOM     12  C   UNL     1      12.159  -4.103   4.118  0.00  0.00    +0.147 A 
ATOM     13  C   UNL     1      14.457  -3.105   6.943  0.00  0.00    +0.046 C 
ATOM     14  C   UNL     1      14.626  -1.675   7.455  0.00  0.00    +0.101 C 
ATOM     15  C   UNL     1      13.311  -1.155   7.970  0.00  0.00    +0.218 C 
ATOM     16  O   UNL     1      13.294  -0.413   8.929  0.00  0.00    -0.275 OA
ATOM     17  N   UNL     1      12.154  -1.505   7.379  0.00  0.00    -0.285 N 
ATOM     18  H   UNL     1      11.316  -1.152   7.716  0.00  0.00    +0.155 HD
BRANCH  12  19
ATOM     19  N   UNL     1      12.162  -5.029   2.963  0.00  0.00    +0.058 N 
ATOM     20  O   UNL     1      13.126  -5.728   2.751  0.00  0.00    -0.126 OA
ATOM     21  O   UNL     1      11.201  -5.087   2.232  0.00  0.00    -0.126 OA
ENDBRANCH  12  19
ENDBRANCH   4   7
BRANCH   1  24
ATOM     22  C   UNL     1       5.487  -1.699   1.381  0.00  0.00    +0.214 C 
ATOM     23  O   UNL     1       6.005  -1.990   0.324  0.00  0.00    -0.276 OA
ATOM     24  N   UNL     1       6.087  -2.034   2.541  0.00  0.00    -0.312 N 
ATOM     25  H   UNL     1       5.672  -1.801   3.386  0.00  0.00    +0.149 HD
BRANCH  22  26
ATOM     26  C   UNL     1       4.171  -0.963   1.399  0.00  0.00    +0.100 C 
BRANCH  26  27
ATOM     27  C   UNL     1       3.711  -0.707  -0.038  0.00  0.00    +0.044 C 
BRANCH  27  31
ATOM     28  C   UNL     1      -0.017   1.378   0.010  0.00  0.00    +0.000 A 
ATOM     29  C   UNL     1       1.171   2.086   0.002  0.00  0.00    +0.000 A 
ATOM     30  C   UNL     1       2.377   1.411  -0.013  0.00  0.00    +0.003 A 
ATOM     31  C   UNL     1       2.396   0.029  -0.020  0.00  0.00    -0.047 A 
ATOM     32  C   UNL     1       1.208  -0.679  -0.012  0.00  0.00    +0.003 A 
ATOM     33  C   UNL     1       0.002  -0.004   0.002  0.00  0.00    +0.000 A 
ENDBRANCH  27  31
ENDBRANCH  26  27
ENDBRANCH  22  26
ENDBRANCH   1  24
TORSDOF 6
