REMARK  Name = ZINC09520495
REMARK  9 active torsions:
REMARK  status: ('A' for Active; 'I' for Inactive)
REMARK    1  A    between atoms: C_1  and  C_2
REMARK    2  A    between atoms: C_2  and  O_3
REMARK    3  A    between atoms: O_3  and  C_4
REMARK    4  A    between atoms: C_4  and  C_6
REMARK    5  A    between atoms: C_10  and  N_11
REMARK    6  A    between atoms: C_12  and  C_14
REMARK    7  A    between atoms: C_14  and  C_16
REMARK    8  A    between atoms: C_14  and  S_17
REMARK    9  A    between atoms: S_17  and  C_18
REMARK                            x       y       z     vdW  Elec       q    Type
REMARK                         _______ _______ _______ _____ _____    ______ ____
ROOT
ATOM      1  N   UNL     1      -0.011   0.966   0.007  0.00  0.00    -0.278 N 
ATOM      2  C   UNL     1       1.147   1.655   0.000  0.00  0.00    +0.231 C 
ATOM      3  O   UNL     1       1.130   2.868   0.007  0.00  0.00    -0.274 OA
ATOM      4  H   UNL     1       0.002  -0.004   0.002  0.00  0.00    +0.155 HD
ENDROOT
BRANCH   1   9
ATOM      5  C   UNL     1      -2.504   1.115   0.014  0.00  0.00    +0.091 A 
ATOM      6  C   UNL     1      -3.620   2.051   0.034  0.00  0.00    -0.021 A 
ATOM      7  C   UNL     1      -3.270   3.355   0.035  0.00  0.00    -0.004 A 
ATOM      8  S   UNL     1      -1.498   3.352   0.027  0.00  0.00    -0.077 S 
ATOM      9  C   UNL     1      -1.221   1.643   0.017  0.00  0.00    +0.086 A 
ATOM     10  C   UNL     1      -4.177   4.546   0.028  0.00  0.00    +0.043 C 
ATOM     11  C   UNL     1      -5.250   4.372   1.111  0.00  0.00    +0.005 C 
ATOM     12  C   UNL     1      -6.442   3.645   0.496  0.00  0.00    +0.001 C 
ATOM     13  C   UNL     1      -5.964   2.661  -0.570  0.00  0.00    +0.005 C 
ATOM     14  C   UNL     1      -5.073   1.592   0.053  0.00  0.00    +0.037 C 
BRANCH   5  15
ATOM     15  C   UNL     1      -2.728  -0.332  -0.004  0.00  0.00    +0.342 C 
ATOM     16  O   UNL     1      -2.818  -0.946   1.042  0.00  0.00    -0.245 OA
BRANCH  15  17
ATOM     17  O   UNL     1      -2.835  -0.983  -1.180  0.00  0.00    -0.461 OA
BRANCH  17  19
ATOM     18  C   UNL     1      -3.151  -2.976  -2.542  0.00  0.00    +0.048 C 
ATOM     19  C   UNL     1      -3.057  -2.417  -1.122  0.00  0.00    +0.229 C 
ENDBRANCH  17  19
ENDBRANCH  15  17
ENDBRANCH   5  15
ENDBRANCH   1   9
BRANCH   2  20
ATOM     20  C   UNL     1       2.462   0.920  -0.017  0.00  0.00    +0.137 C 
ATOM     21  C   UNL     1       2.832   0.569  -1.459  0.00  0.00    +0.029 C 
BRANCH  20  22
ATOM     22  S   UNL     1       3.753   1.974   0.700  0.00  0.00    -0.073 S 
BRANCH  22  23
ATOM     23  C   UNL     1       5.175   0.934   0.746  0.00  0.00    +0.198 A 
ATOM     24  N   UNL     1       5.231  -0.314   0.346  0.00  0.00    -0.120 NA
ATOM     25  N   UNL     1       6.538  -0.777   0.549  0.00  0.00    -0.109 NA
ATOM     26  C   UNL     1       7.237   0.199   1.074  0.00  0.00    +0.237 A 
ATOM     27  N   UNL     1       6.415   1.284   1.210  0.00  0.00    -0.260 N 
ATOM     28  C   UNL     1       6.888   2.472   1.740  0.00  0.00    +0.037 A 
ATOM     29  C   UNL     1       8.164   2.561   2.135  0.00  0.00    +0.037 A 
ATOM     30  C   UNL     1       9.024   1.433   1.996  0.00  0.00    +0.256 A 
ATOM     31  O   UNL     1      10.186   1.510   2.352  0.00  0.00    -0.267 OA
ATOM     32  N   UNL     1       8.560   0.283   1.474  0.00  0.00    -0.291 N 
ATOM     33  H   UNL     1       9.149  -0.482   1.379  0.00  0.00    +0.172 HD
ATOM     34  C   UNL     1       8.751   3.810   2.737  0.00  0.00    +0.042 C 
ATOM     35  C   UNL     1       7.878   5.023   2.424  0.00  0.00    +0.005 C 
ATOM     36  C   UNL     1       6.432   4.683   2.804  0.00  0.00    +0.006 C 
ATOM     37  C   UNL     1       5.920   3.622   1.833  0.00  0.00    +0.054 C 
ENDBRANCH  22  23
ENDBRANCH  20  22
ENDBRANCH   2  20
TORSDOF 7
