REMARK  Name = ZINC34688753
REMARK  8 active torsions:
REMARK  status: ('A' for Active; 'I' for Inactive)
REMARK    1  A    between atoms: C_2  and  C_3
REMARK    2  A    between atoms: C_3  and  N_4
REMARK    3  A    between atoms: N_7  and  C_10
REMARK    4  A    between atoms: C_13  and  N_16
REMARK    5  A    between atoms: C_17  and  C_19
REMARK    6  A    between atoms: C_19  and  S_20
REMARK    7  A    between atoms: S_20  and  C_21
REMARK    8  A    between atoms: C_24  and  C_26
REMARK                            x       y       z     vdW  Elec       q    Type
REMARK                         _______ _______ _______ _____ _____    ______ ____
ROOT
ATOM      1  N   UNL     1       6.821   6.970   3.610  0.00  0.00    -0.285 N 
ATOM      2  C   UNL     1       7.942   6.528   4.213  0.00  0.00    +0.228 C 
ATOM      3  O   UNL     1       8.303   5.380   4.056  0.00  0.00    -0.275 OA
ATOM      4  H   UNL     1       6.574   7.906   3.671  0.00  0.00    +0.155 HD
ENDROOT
BRANCH   1   8
ATOM      5  C   UNL     1       4.411   4.312   1.483  0.00  0.00    +0.030 A 
ATOM      6  C   UNL     1       5.074   3.886   2.626  0.00  0.00    +0.025 A 
ATOM      7  C   UNL     1       5.872   4.765   3.330  0.00  0.00    +0.025 A 
ATOM      8  C   UNL     1       6.011   6.077   2.895  0.00  0.00    +0.034 A 
ATOM      9  C   UNL     1       5.348   6.503   1.752  0.00  0.00    +0.025 A 
ATOM     10  C   UNL     1       4.555   5.622   1.044  0.00  0.00    +0.025 A 
BRANCH   5  14
ATOM     11  N   UNL     1       1.338   1.964   0.050  0.00  0.00    -0.289 NA
ATOM     12  C   UNL     1       2.052   1.612   1.285  0.00  0.00    +0.104 C 
ATOM     13  C   UNL     1       3.527   2.002   1.147  0.00  0.00    +0.120 C 
ATOM     14  N   UNL     1       3.602   3.421   0.769  0.00  0.00    -0.327 N 
ATOM     15  C   UNL     1       2.804   3.879  -0.378  0.00  0.00    +0.120 C 
ATOM     16  C   UNL     1       1.357   3.415  -0.180  0.00  0.00    +0.104 C 
BRANCH  11  17
ATOM     17  C   UNL     1      -0.039   1.453   0.073  0.00  0.00    +0.173 C 
BRANCH  17  19
ATOM     18  C   UNL     1       0.003  -1.193   0.058  0.00  0.00    +0.005 C 
ATOM     19  C   UNL     1      -0.015  -0.019   0.065  0.00  0.00    -0.090 C 
ENDBRANCH  17  19
ENDBRANCH  11  17
ENDBRANCH   5  14
ENDBRANCH   1   8
BRANCH   2  20
ATOM     20  C   UNL     1       8.747   7.459   5.083  0.00  0.00    +0.175 C 
BRANCH  20  21
ATOM     21  S   UNL     1      10.186   6.575   5.746  0.00  0.00    -0.056 S 
BRANCH  21  22
ATOM     22  C   UNL     1      11.013   7.782   6.727  0.00  0.00    +0.278 A 
ATOM     23  N   UNL     1      10.634   9.025   6.912  0.00  0.00    -0.101 NA
ATOM     24  N   UNL     1      11.474   9.619   7.684  0.00  0.00    -0.106 NA
ATOM     25  C   UNL     1      12.422   8.780   8.023  0.00  0.00    +0.249 A 
ATOM     26  O   UNL     1      12.147   7.597   7.429  0.00  0.00    -0.411 OA
BRANCH  25  27
ATOM     27  C   UNL     1      13.577   9.071   8.898  0.00  0.00    +0.039 A 
ATOM     28  C   UNL     1      14.519   8.077   9.170  0.00  0.00    +0.014 A 
ATOM     29  C   UNL     1      15.594   8.355   9.988  0.00  0.00    +0.016 A 
ATOM     30  C   UNL     1      15.740   9.617  10.539  0.00  0.00    +0.018 A 
ATOM     31  C   UNL     1      14.809  10.607  10.274  0.00  0.00    +0.016 A 
ATOM     32  C   UNL     1      13.733  10.343   9.452  0.00  0.00    +0.014 A 
ATOM     33 BR   UNL     1      17.217   9.989  11.660  0.00  0.00    -0.050 Br
ENDBRANCH  25  27
ENDBRANCH  21  22
ENDBRANCH  20  21
ENDBRANCH   2  20
TORSDOF 8
