REMARK  Name = ZINC48063969
REMARK  11 active torsions:
REMARK  status: ('A' for Active; 'I' for Inactive)
REMARK    1  A    between atoms: C_1  and  C_2
REMARK    2  A    between atoms: C_3  and  C_25
REMARK    3  A    between atoms: C_5  and  C_7
REMARK    4  A    between atoms: C_7  and  N_8
REMARK    5  A    between atoms: N_8  and  C_9
REMARK    6  A    between atoms: N_12  and  C_13
REMARK    7  A    between atoms: N_18  and  C_22
REMARK    8  A    between atoms: C_22  and  C_23
REMARK    9  A    between atoms: C_22  and  C_24
REMARK   10  A    between atoms: C_25  and  O_27
REMARK   11  A    between atoms: O_27  and  C_28
REMARK                            x       y       z     vdW  Elec       q    Type
REMARK                         _______ _______ _______ _____ _____    ______ ____
ROOT
ATOM      1  N   UNL     1       2.052  -3.577  -1.413  0.00  0.00    -0.281 N 
ATOM      2  C   UNL     1       3.168  -2.930  -2.108  0.00  0.00    +0.134 C 
ATOM      3  C   UNL     1       1.311  -4.507  -2.048  0.00  0.00    +0.307 C 
ATOM      4  O   UNL     1       0.385  -5.044  -1.472  0.00  0.00    -0.252 OA
ATOM      5  N   UNL     1       1.597  -4.841  -3.322  0.00  0.00    -0.268 N 
ATOM      6  H   UNL     1       2.292  -4.366  -3.804  0.00  0.00    +0.156 HD
ENDROOT
BRANCH   5   7
ATOM      7  C   UNL     1       0.890  -5.877  -3.950  0.00  0.00    +0.054 A 
ATOM      8  C   UNL     1      -0.454  -6.074  -3.675  0.00  0.00    +0.038 A 
ATOM      9  C   UNL     1      -1.112  -7.121  -4.330  0.00  0.00    +0.040 A 
ATOM     10  C   UNL     1      -2.478  -7.634  -4.309  0.00  0.00    +0.144 A 
ATOM     11  N   UNL     1      -2.533  -8.644  -5.129  0.00  0.00    -0.177 NA
ATOM     12  N   UNL     1      -1.282  -8.856  -5.715  0.00  0.00    -0.244 N 
ATOM     13  C   UNL     1      -0.395  -7.928  -5.235  0.00  0.00    +0.159 A 
ATOM     14  N   UNL     1       0.891  -7.694  -5.461  0.00  0.00    -0.234 NA
ATOM     15  C   UNL     1       1.530  -6.713  -4.862  0.00  0.00    +0.136 A 
BRANCH  12  16
ATOM     16  C   UNL     1      -0.968  -9.905  -6.688  0.00  0.00    +0.103 C 
ATOM     17  C   UNL     1      -1.235 -11.277  -6.064  0.00  0.00    +0.032 C 
ATOM     18  C   UNL     1      -1.845  -9.730  -7.929  0.00  0.00    +0.032 C 
ENDBRANCH  12  16
ENDBRANCH   5   7
BRANCH   1  19
ATOM     19  C   UNL     1       1.742  -3.213  -0.029  0.00  0.00    +0.183 C 
BRANCH  19  24
ATOM     20  C   UNL     1      -0.050   1.499   0.002  0.00  0.00    +0.087 C 
ATOM     21  C   UNL     1      -0.021  -0.008  -0.004  0.00  0.00    +0.116 A 
ATOM     22  C   UNL     1      -1.113  -0.827  -0.001  0.00  0.00    +0.100 A 
ATOM     23  C   UNL     1      -0.579  -2.197  -0.010  0.00  0.00    +0.061 A 
ATOM     24  C   UNL     1       0.757  -2.072  -0.018  0.00  0.00    +0.123 A 
ATOM     25  O   UNL     1       1.077  -0.768  -0.019  0.00  0.00    -0.462 OA
BRANCH  22  26
ATOM     26  C   UNL     1      -2.529  -0.424   0.010  0.00  0.00    +0.342 C 
ATOM     27  O   UNL     1      -2.825   0.754   0.017  0.00  0.00    -0.245 OA
BRANCH  26  28
ATOM     28  O   UNL     1      -3.497  -1.362   0.012  0.00  0.00    -0.464 OA
ATOM     29  C   UNL     1      -4.849  -0.899   0.022  0.00  0.00    +0.280 C 
ENDBRANCH  26  28
ENDBRANCH  22  26
ENDBRANCH  19  24
ENDBRANCH   1  19
TORSDOF 6
