REMARK  Name = ZINC67332054
REMARK  7 active torsions:
REMARK  status: ('A' for Active; 'I' for Inactive)
REMARK    1  A    between atoms: C_3  and  C_12
REMARK    2  A    between atoms: C_6  and  C_7
REMARK    3  A    between atoms: C_7  and  N_8
REMARK    4  A    between atoms: N_14  and  C_15
REMARK    5  A    between atoms: C_15  and  C_16
REMARK    6  A    between atoms: N_21  and  C_22
REMARK    7  A    between atoms: C_22  and  C_23
REMARK                            x       y       z     vdW  Elec       q    Type
REMARK                         _______ _______ _______ _____ _____    ______ ____
ROOT
ATOM      1  C   UNL     1       3.354   1.832   0.123  0.00  0.00    +0.244 C 
ATOM      2  O   UNL     1       3.229   3.041   0.129  0.00  0.00    -0.270 OA
ATOM      3  N   UNL     1       4.583   1.281   0.058  0.00  0.00    -0.313 N 
ATOM      4  H   UNL     1       4.682   0.316   0.054  0.00  0.00    +0.149 HD
ENDROOT
BRANCH   1   7
ATOM      5  C   UNL     1      -0.227   0.717   0.314  0.00  0.00    +0.006 A 
ATOM      6  C   UNL     1       0.884   1.532   0.255  0.00  0.00    +0.013 A 
ATOM      7  C   UNL     1       2.158   0.965   0.188  0.00  0.00    +0.037 A 
ATOM      8  C   UNL     1       2.298  -0.424   0.180  0.00  0.00    +0.013 A 
ATOM      9  C   UNL     1       1.178  -1.227   0.240  0.00  0.00    +0.006 A 
ATOM     10  C   UNL     1      -0.082  -0.659   0.307  0.00  0.00    -0.030 A 
BRANCH  10  11
ATOM     11  C   UNL     1      -1.301  -1.542   0.372  0.00  0.00    +0.141 C 
BRANCH  11  12
ATOM     12  N   UNL     1      -1.769  -1.829  -0.987  0.00  0.00    -0.295 N 
ATOM     13  C   UNL     1      -2.854  -2.606  -1.175  0.00  0.00    +0.297 C 
ATOM     14  O   UNL     1      -3.444  -3.069  -0.218  0.00  0.00    -0.253 OA
ATOM     15  N   UNL     1      -3.285  -2.870  -2.425  0.00  0.00    -0.313 N 
ATOM     16  H   UNL     1      -1.298  -1.460  -1.750  0.00  0.00    +0.151 HD
ATOM     17  H   UNL     1      -2.814  -2.500  -3.188  0.00  0.00    +0.146 HD
ATOM     18  H   UNL     1      -4.066  -3.429  -2.561  0.00  0.00    +0.146 HD
ENDBRANCH  11  12
ENDBRANCH  10  11
ENDBRANCH   1   7
BRANCH   3  19
ATOM     19  C   UNL     1       5.768   2.140  -0.005  0.00  0.00    +0.089 C 
BRANCH  19  20
ATOM     20  C   UNL     1       7.025   1.271  -0.072  0.00  0.00    -0.051 C 
ATOM     21  C   UNL     1       8.283   2.158   0.031  0.00  0.00    -0.016 C 
ATOM     22  C   UNL     1       8.656   2.063   1.534  0.00  0.00    -0.020 C 
ATOM     23  C   UNL     1       8.277   0.597   1.858  0.00  0.00    -0.078 C 
ATOM     24  N   UNL     1       7.050   0.338   1.070  0.00  0.00    +0.383 N 
ATOM     25  H   UNL     1       6.236   0.486   1.647  0.00  0.00    -0.081 HD
BRANCH  24  26
ATOM     26  C   UNL     1       7.058  -1.046   0.576  0.00  0.00    -0.075 C 
BRANCH  26  27
ATOM     27  C   UNL     1       6.944  -2.010   1.759  0.00  0.00    -0.028 C 
ATOM     28  C   UNL     1       7.094  -3.449   1.261  0.00  0.00    +0.002 C 
ATOM     29  C   UNL     1       6.980  -4.413   2.444  0.00  0.00    +0.000 C 
ATOM     30  C   UNL     1       5.613  -4.243   3.110  0.00  0.00    +0.000 C 
ATOM     31  C   UNL     1       5.464  -2.804   3.609  0.00  0.00    +0.000 C 
ATOM     32  C   UNL     1       5.578  -1.840   2.426  0.00  0.00    +0.002 C 
ENDBRANCH  26  27
ENDBRANCH  24  26
ENDBRANCH  19  20
ENDBRANCH   3  19
TORSDOF 7
