REMARK  Name = ZINC33033399
REMARK  14 active torsions:
REMARK  status: ('A' for Active; 'I' for Inactive)
REMARK    1  A    between atoms: C_1  and  C_2
REMARK    2  A    between atoms: C_2  and  C_3
REMARK    3  A    between atoms: C_3  and  N_4
REMARK    4  A    between atoms: C_5  and  C_7
REMARK    5  A    between atoms: C_7  and  N_8
REMARK    6  A    between atoms: N_8  and  C_9
REMARK    7  A    between atoms: C_10  and  C_12
REMARK    8  A    between atoms: C_15  and  N_31
REMARK    9  A    between atoms: C_16  and  N_18
REMARK   10  A    between atoms: N_18  and  S_19
REMARK   11  A    between atoms: S_19  and  C_22
REMARK   12  A    between atoms: C_25  and  C_28
REMARK   13  A    between atoms: C_28  and  C_29
REMARK   14  A    between atoms: C_28  and  C_30
REMARK                            x       y       z     vdW  Elec       q    Type
REMARK                         _______ _______ _______ _____ _____    ______ ____
ROOT
ATOM      1  C   UNL     1      -1.843   2.419  -0.185  0.00  0.00    +0.039 A 
ATOM      2  C   UNL     1      -1.850   3.767  -0.554  0.00  0.00    +0.015 A 
ATOM      3  C   UNL     1      -3.043   4.449  -0.652  0.00  0.00    +0.026 A 
ATOM      4  C   UNL     1      -4.242   3.803  -0.375  0.00  0.00    +0.052 A 
ATOM      5  C   UNL     1      -4.242   2.456  -0.001  0.00  0.00    +0.070 A 
ATOM      6  C   UNL     1      -3.048   1.766   0.094  0.00  0.00    +0.039 A 
ENDROOT
BRANCH   4   7
ATOM      7  N   UNL     1      -5.446   4.498  -0.470  0.00  0.00    -0.332 N 
ATOM      8  C   UNL     1      -5.209   5.934  -0.677  0.00  0.00    +0.086 C 
ATOM      9  C   UNL     1      -6.550   6.671  -0.697  0.00  0.00    -0.063 C 
ATOM     10  N   UNL     1      -7.394   6.119  -1.766  0.00  0.00    +0.381 N 
ATOM     11  C   UNL     1      -7.630   4.684  -1.559  0.00  0.00    -0.063 C 
ATOM     12  C   UNL     1      -6.289   3.946  -1.539  0.00  0.00    +0.086 C 
ATOM     13  H   UNL     1      -8.363   6.640  -1.774  0.00  0.00    -0.086 HD
ATOM     14  H   UNL     1      -6.895   6.260  -2.736  0.00  0.00    -0.086 HD
ENDBRANCH   4   7
BRANCH   1  17
ATOM     15  N   UNL     1       0.501   2.093  -0.802  0.00  0.00    -0.292 N 
ATOM     16  C   UNL     1       0.366   3.197  -1.755  0.00  0.00    +0.133 C 
ATOM     17  C   UNL     1      -0.566   1.687  -0.086  0.00  0.00    +0.247 C 
ATOM     18  O   UNL     1      -0.478   0.714   0.639  0.00  0.00    -0.270 OA
BRANCH  15  19
ATOM     19  C   UNL     1       1.796   1.431  -0.626  0.00  0.00    +0.203 C 
BRANCH  19  21
ATOM     20  N   UNL     1       3.018  -0.482  -1.609  0.00  0.00    -0.314 N 
ATOM     21  C   UNL     1       1.905   0.278  -1.590  0.00  0.00    +0.230 C 
ATOM     22  O   UNL     1       0.991   0.033  -2.349  0.00  0.00    -0.274 OA
ATOM     23  H   UNL     1       3.846  -0.261  -0.921  0.00  0.00    +0.149 HD
BRANCH  20  24
ATOM     24  C   UNL     1       3.124  -1.603  -2.547  0.00  0.00    +0.104 C 
BRANCH  24  26
ATOM     25  C   UNL     1       4.587  -3.466  -3.342  0.00  0.00    +0.005 C 
ATOM     26  C   UNL     1       4.476  -2.295  -2.363  0.00  0.00    +0.015 C 
ENDBRANCH  24  26
ENDBRANCH  20  24
ENDBRANCH  19  21
ENDBRANCH  15  19
ENDBRANCH   1  17
BRANCH   5  27
ATOM     27  N   UNL     1      -5.450   1.806   0.278  0.00  0.00    -0.214 N 
ATOM     28  H   UNL     1      -6.067   1.414  -0.545  0.00  0.00    +0.174 HD
BRANCH  27  29
ATOM     29  S   UNL     1      -5.952   1.627   1.846  0.00  0.00    +0.072 S 
ATOM     30  O   UNL     1      -7.208   0.964   1.798  0.00  0.00    -0.150 OA
ATOM     31  O   UNL     1      -4.845   1.111   2.571  0.00  0.00    -0.150 OA
BRANCH  29  32
ATOM     32  C   UNL     1      -6.261   3.242   2.481  0.00  0.00    +0.109 A 
ATOM     33  C   UNL     1      -5.247   3.943   3.107  0.00  0.00    +0.029 A 
ATOM     34  C   UNL     1      -5.488   5.212   3.602  0.00  0.00    +0.006 A 
ATOM     35  C   UNL     1      -6.744   5.775   3.479  0.00  0.00    -0.045 A 
ATOM     36  C   UNL     1      -7.759   5.071   2.858  0.00  0.00    +0.006 A 
ATOM     37  C   UNL     1      -7.517   3.804   2.359  0.00  0.00    +0.029 A 
BRANCH  35  38
ATOM     38  C   UNL     1      -7.007   7.156   4.021  0.00  0.00    +0.013 C 
ATOM     39  C   UNL     1      -6.742   7.171   5.528  0.00  0.00    +0.012 C 
ATOM     40  C   UNL     1      -6.083   8.160   3.330  0.00  0.00    +0.012 C 
ENDBRANCH  35  38
ENDBRANCH  29  32
ENDBRANCH  27  29
ENDBRANCH   5  27
TORSDOF 10
