REMARK  Name = ZINC01972625
REMARK  8 active torsions:
REMARK  status: ('A' for Active; 'I' for Inactive)
REMARK    1  A    between atoms: C_1  and  C_2
REMARK    2  A    between atoms: C_2  and  O_3
REMARK    3  A    between atoms: O_3  and  C_4
REMARK    4  A    between atoms: C_4  and  C_6
REMARK    5  A    between atoms: C_10  and  N_11
REMARK    6  A    between atoms: C_12  and  C_14
REMARK    7  A    between atoms: C_17  and  N_20
REMARK    8  A    between atoms: C_32  and  C_36
REMARK                            x       y       z     vdW  Elec       q    Type
REMARK                         _______ _______ _______ _____ _____    ______ ____
ROOT
ATOM      1  N   UNL     1       1.930  -5.844  -1.738  0.00  0.00    -0.275 N 
ATOM      2  C   UNL     1       2.227  -6.105  -3.026  0.00  0.00    +0.249 C 
ATOM      3  O   UNL     1       2.199  -5.211  -3.850  0.00  0.00    -0.270 OA
ATOM      4  H   UNL     1       1.956  -6.653  -0.993  0.00  0.00    +0.156 HD
ENDROOT
BRANCH   1   9
ATOM      5  C   UNL     1       1.258  -4.096  -0.085  0.00  0.00    +0.091 A 
ATOM      6  C   UNL     1       0.941  -2.684   0.053  0.00  0.00    -0.021 A 
ATOM      7  C   UNL     1       1.008  -1.966  -1.089  0.00  0.00    -0.004 A 
ATOM      8  S   UNL     1       1.484  -3.133  -2.332  0.00  0.00    -0.077 S 
ATOM      9  C   UNL     1       1.592  -4.558  -1.352  0.00  0.00    +0.087 A 
ATOM     10  C   UNL     1       0.736  -0.502  -1.252  0.00  0.00    +0.046 C 
ATOM     11  C   UNL     1       0.002  -0.004   0.002  0.00  0.00    -0.009 C 
ATOM     12  C   UNL     1       0.742  -0.514   1.242  0.00  0.00    +0.008 C 
ATOM     13  C   UNL     1       0.557  -2.027   1.373  0.00  0.00    +0.037 C 
ATOM     14  C   UNL     1      -0.019   1.526   0.010  0.00  0.00    +0.008 C 
BRANCH   5  15
ATOM     15  C   UNL     1       1.227  -4.998   1.068  0.00  0.00    +0.342 C 
ATOM     16  O   UNL     1       0.199  -5.581   1.356  0.00  0.00    -0.245 OA
BRANCH  15  17
ATOM     17  O   UNL     1       2.337  -5.181   1.811  0.00  0.00    -0.461 OA
BRANCH  17  19
ATOM     18  C   UNL     1       3.582  -6.169   3.657  0.00  0.00    +0.048 C 
ATOM     19  C   UNL     1       2.233  -6.089   2.939  0.00  0.00    +0.229 C 
ENDBRANCH  17  19
ENDBRANCH  15  17
ENDBRANCH   5  15
ENDBRANCH   1   9
BRANCH   2  20
ATOM     20  C   UNL     1       2.587  -7.476  -3.438  0.00  0.00    +0.037 A 
ATOM     21  C   UNL     1       2.625  -8.503  -2.491  0.00  0.00    +0.015 A 
ATOM     22  C   UNL     1       2.957  -9.782  -2.880  0.00  0.00    +0.025 A 
ATOM     23  C   UNL     1       3.263 -10.050  -4.210  0.00  0.00    +0.045 A 
ATOM     24  C   UNL     1       3.230  -9.028  -5.153  0.00  0.00    +0.025 A 
ATOM     25  C   UNL     1       2.895  -7.748  -4.773  0.00  0.00    +0.015 A 
BRANCH  23  26
ATOM     26  N   UNL     1       3.603 -11.347  -4.599  0.00  0.00    -0.202 N 
ATOM     27  C   UNL     1       3.909 -11.709  -5.859  0.00  0.00    +0.258 C 
ATOM     28  O   UNL     1       3.932 -10.970  -6.822  0.00  0.00    -0.269 OA
ATOM     29  C   UNL     1       4.215 -13.154  -5.872  0.00  0.00    +0.050 A 
ATOM     30  C   UNL     1       4.586 -14.056  -6.857  0.00  0.00    +0.014 A 
ATOM     31  C   UNL     1       4.797 -15.386  -6.528  0.00  0.00    +0.001 A 
ATOM     32  C   UNL     1       4.640 -15.818  -5.224  0.00  0.00    +0.001 A 
ATOM     33  C   UNL     1       4.270 -14.928  -4.228  0.00  0.00    +0.014 A 
ATOM     34  C   UNL     1       4.055 -13.595  -4.543  0.00  0.00    +0.050 A 
ATOM     35  C   UNL     1       3.663 -12.401  -3.765  0.00  0.00    +0.258 C 
ATOM     36  O   UNL     1       3.433 -12.376  -2.573  0.00  0.00    -0.269 OA
ENDBRANCH  23  26
ENDBRANCH   2  20
TORSDOF 6
