REMARK  Name = ZINC43592310
REMARK  5 active torsions:
REMARK  status: ('A' for Active; 'I' for Inactive)
REMARK    1  A    between atoms: C_3  and  S_11
REMARK    2  A    between atoms: C_6  and  N_7
REMARK    3  A    between atoms: S_11  and  N_14
REMARK    4  A    between atoms: C_19  and  C_21
REMARK    5  A    between atoms: C_21  and  O_22
REMARK                            x       y       z     vdW  Elec       q    Type
REMARK                         _______ _______ _______ _____ _____    ______ ____
ROOT
ATOM      1  S   UNL     1       4.332   2.562   0.353  0.00  0.00    +0.064 S 
ATOM      2  O   UNL     1       3.651   3.691   0.884  0.00  0.00    -0.153 OA
ATOM      3  O   UNL     1       3.684   1.598  -0.466  0.00  0.00    -0.153 OA
ENDROOT
BRANCH   1   6
ATOM      4  C   UNL     1       6.967   3.231  -2.605  0.00  0.00    +0.035 A 
ATOM      5  C   UNL     1       5.902   2.742  -1.872  0.00  0.00    +0.034 A 
ATOM      6  C   UNL     1       5.690   3.185  -0.580  0.00  0.00    +0.141 A 
ATOM      7  C   UNL     1       6.545   4.119  -0.020  0.00  0.00    +0.152 A 
ATOM      8  C   UNL     1       7.612   4.608  -0.755  0.00  0.00    +0.073 A 
ATOM      9  C   UNL     1       7.822   4.164  -2.047  0.00  0.00    +0.129 A 
ATOM     10  F   UNL     1       6.338   4.553   1.242  0.00  0.00    -0.203 F 
BRANCH   9  11
ATOM     11  N   UNL     1       8.962   4.686  -2.833  0.00  0.00    +0.057 N 
ATOM     12  O   UNL     1       9.146   4.297  -3.963  0.00  0.00    -0.126 OA
ATOM     13  O   UNL     1       9.709   5.502  -2.345  0.00  0.00    -0.126 OA
ENDBRANCH   9  11
ENDBRANCH   1   6
BRANCH   1  14
ATOM     14  N   UNL     1       4.962   1.739   1.645  0.00  0.00    -0.171 NA
ATOM     15  C   UNL     1       4.797   2.252   3.012  0.00  0.00    +0.110 C 
ATOM     16  C   UNL     1       4.182   1.150   3.881  0.00  0.00    +0.017 C 
ATOM     17  C   UNL     1       5.043  -0.111   3.783  0.00  0.00    +0.003 C 
ATOM     18  C   UNL     1       5.072  -0.600   2.333  0.00  0.00    +0.023 C 
ATOM     19  C   UNL     1       5.691   0.479   1.446  0.00  0.00    +0.105 C 
BRANCH  19  20
ATOM     20  C   UNL     1       5.591   0.055  -0.020  0.00  0.00    +0.176 C 
BRANCH  20  21
ATOM     21  O   UNL     1       4.275  -0.434  -0.286  0.00  0.00    -0.393 OA
ATOM     22  H   UNL     1       4.166  -0.809  -1.171  0.00  0.00    +0.209 HD
ENDBRANCH  20  21
ENDBRANCH  19  20
ENDBRANCH   1  14
TORSDOF 5
