REMARK  Name = ZINC00157521
REMARK  4 active torsions:
REMARK  status: ('A' for Active; 'I' for Inactive)
REMARK    1  A    between atoms: C_1  and  C_2
REMARK    2  A    between atoms: C_5  and  N_8
REMARK    3  A    between atoms: C_9  and  C_13
REMARK    4  A    between atoms: C_20  and  C_23
REMARK                            x       y       z     vdW  Elec       q    Type
REMARK                         _______ _______ _______ _____ _____    ______ ____
ROOT
ATOM      1  N   UNL     1       0.006  -4.175   0.025  0.00  0.00    -0.193 N 
ATOM      2  C   UNL     1       0.767  -4.997   0.805  0.00  0.00    +0.189 A 
ATOM      3  N   UNL     1       0.537  -6.231   0.398  0.00  0.00    -0.108 NA
ATOM      4  N   UNL     1      -0.306  -6.235  -0.570  0.00  0.00    -0.022 NA
ATOM      5  N   UNL     1      -0.679  -5.034  -0.852  0.00  0.00    -0.039 NA
ENDROOT
BRANCH   2   6
ATOM      6  C   UNL     1       1.675  -4.585   1.893  0.00  0.00    +0.046 A 
ATOM      7  C   UNL     1       1.401  -3.701   2.888  0.00  0.00    +0.095 A 
ATOM      8  N   UNL     1       2.483  -3.577   3.705  0.00  0.00    -0.360 N 
ATOM      9  H   UNL     1       2.526  -3.003   4.486  0.00  0.00    +0.165 HD
ATOM     10  C   UNL     1       3.510  -4.385   3.263  0.00  0.00    +0.047 A 
ATOM     11  C   UNL     1       3.052  -5.056   2.117  0.00  0.00    +0.011 A 
ATOM     12  C   UNL     1       3.887  -5.954   1.455  0.00  0.00    +0.014 A 
ATOM     13  C   UNL     1       5.159  -6.182   1.931  0.00  0.00    -0.050 A 
ATOM     14  C   UNL     1       5.610  -5.522   3.066  0.00  0.00    +0.005 A 
ATOM     15  C   UNL     1       4.800  -4.625   3.725  0.00  0.00    +0.026 A 
ATOM     16  C   UNL     1       6.065  -7.152   1.218  0.00  0.00    +0.044 C 
ENDBRANCH   2   6
BRANCH   1  21
ATOM     17  C   UNL     1      -0.340   1.484   0.287  0.00  0.00    +0.044 C 
ATOM     18  C   UNL     1      -0.248  -0.019   0.218  0.00  0.00    -0.050 A 
ATOM     19  C   UNL     1      -1.395  -0.773   0.050  0.00  0.00    +0.005 A 
ATOM     20  C   UNL     1      -1.314  -2.150  -0.014  0.00  0.00    +0.028 A 
ATOM     21  C   UNL     1      -0.080  -2.778   0.090  0.00  0.00    +0.069 A 
ATOM     22  C   UNL     1       1.070  -2.018   0.258  0.00  0.00    +0.028 A 
ATOM     23  C   UNL     1       0.983  -0.640   0.316  0.00  0.00    +0.005 A 
ENDBRANCH   1  21
TORSDOF 2
