REMARK  Name = ZINC15890410
REMARK  12 active torsions:
REMARK  status: ('A' for Active; 'I' for Inactive)
REMARK    1  A    between atoms: C_1  and  C_2
REMARK    2  A    between atoms: C_3  and  S_29
REMARK    3  A    between atoms: N_9  and  C_12
REMARK    4  A    between atoms: C_12  and  C_13
REMARK    5  A    between atoms: N_15  and  C_16
REMARK    6  A    between atoms: C_16  and  C_17
REMARK    7  A    between atoms: C_17  and  C_18
REMARK    8  A    between atoms: C_18  and  N_19
REMARK    9  A    between atoms: C_21  and  C_28
REMARK   10  A    between atoms: C_24  and  C_27
REMARK   11  A    between atoms: S_29  and  N_32
REMARK   12  A    between atoms: C_35  and  C_38
REMARK                            x       y       z     vdW  Elec       q    Type
REMARK                         _______ _______ _______ _____ _____    ______ ____
ROOT
ATOM      1  C   UNL     1      -0.021   1.500  -0.135  0.00  0.00    +0.053 C 
ATOM      2  C   UNL     1       0.001  -0.005  -0.064  0.00  0.00    +0.016 A 
ATOM      3  C   UNL     1      -1.040  -0.851   0.002  0.00  0.00    +0.130 A 
ATOM      4  C   UNL     1      -0.790  -2.279   0.063  0.00  0.00    +0.099 A 
ATOM      5  C   UNL     1       0.567  -2.646   0.047  0.00  0.00    +0.117 A 
ATOM      6  S   UNL     1       1.415  -1.091  -0.054  0.00  0.00    -0.072 S 
ATOM      7  N   UNL     1       0.952  -3.918   0.097  0.00  0.00    -0.230 NA
ATOM      8  C   UNL     1       0.075  -4.884   0.164  0.00  0.00    +0.203 A 
ATOM      9  N   UNL     1      -1.257  -4.624   0.184  0.00  0.00    -0.290 N 
ATOM     10  C   UNL     1      -1.725  -3.363   0.137  0.00  0.00    +0.264 A 
ATOM     11  O   UNL     1      -2.924  -3.146   0.156  0.00  0.00    -0.267 OA
ENDROOT
BRANCH   3  12
ATOM     12  S   UNL     1      -2.690  -0.233   0.014  0.00  0.00    +0.062 S 
ATOM     13  O   UNL     1      -2.621   1.119  -0.418  0.00  0.00    -0.153 OA
ATOM     14  O   UNL     1      -3.492  -1.203  -0.645  0.00  0.00    -0.153 OA
BRANCH  12  15
ATOM     15  N   UNL     1      -3.189  -0.200   1.593  0.00  0.00    -0.177 NA
ATOM     16  C   UNL     1      -3.852  -1.366   2.193  0.00  0.00    +0.110 C 
ATOM     17  C   UNL     1      -5.183  -0.917   2.803  0.00  0.00    +0.020 C 
ATOM     18  C   UNL     1      -4.929   0.233   3.780  0.00  0.00    -0.012 C 
ATOM     19  C   UNL     1      -4.319   1.418   3.028  0.00  0.00    +0.020 C 
ATOM     20  C   UNL     1      -2.973   0.994   2.422  0.00  0.00    +0.110 C 
ATOM     21  C   UNL     1      -6.253   0.661   4.418  0.00  0.00    +0.007 C 
ENDBRANCH  12  15
ENDBRANCH   3  12
BRANCH   9  22
ATOM     22  C   UNL     1      -2.205  -5.738   0.259  0.00  0.00    +0.221 C 
BRANCH  22  23
ATOM     23  C   UNL     1      -2.495  -6.055   1.703  0.00  0.00    +0.233 C 
ATOM     24  O   UNL     1      -1.963  -5.413   2.584  0.00  0.00    -0.274 OA
ATOM     25  N   UNL     1      -3.347  -7.051   2.017  0.00  0.00    -0.314 N 
ATOM     26  H   UNL     1      -3.772  -7.565   1.313  0.00  0.00    +0.149 HD
BRANCH  25  27
ATOM     27  C   UNL     1      -3.629  -7.359   3.421  0.00  0.00    +0.102 C 
BRANCH  27  28
ATOM     28  C   UNL     1      -4.619  -8.523   3.499  0.00  0.00    +0.000 C 
BRANCH  28  29
ATOM     29  C   UNL     1      -4.914  -8.844   4.966  0.00  0.00    -0.077 C 
BRANCH  29  30
ATOM     30  N   UNL     1      -5.864  -9.962   5.041  0.00  0.00    +0.380 N 
ATOM     31  C   UNL     1      -7.147  -9.551   4.459  0.00  0.00    -0.076 C 
ATOM     32  C   UNL     1      -8.116 -10.736   4.461  0.00  0.00    -0.031 C 
ATOM     33  C   UNL     1      -8.334 -11.207   5.901  0.00  0.00    +0.003 C 
ATOM     34  C   UNL     1      -6.980 -11.563   6.522  0.00  0.00    -0.031 C 
ATOM     35  C   UNL     1      -6.054 -10.347   6.444  0.00  0.00    -0.076 C 
ATOM     36  C   UNL     1      -7.179 -11.962   7.986  0.00  0.00    +0.005 C 
ATOM     37  C   UNL     1      -9.453 -10.304   3.855  0.00  0.00    +0.005 C 
ATOM     38  H   UNL     1      -5.499 -10.748   4.524  0.00  0.00    -0.082 HD
ENDBRANCH  29  30
ENDBRANCH  28  29
ENDBRANCH  27  28
ENDBRANCH  25  27
ENDBRANCH  22  23
ENDBRANCH   9  22
TORSDOF 8
