REMARK  Name = ZINC13154101
REMARK  4 active torsions:
REMARK  status: ('A' for Active; 'I' for Inactive)
REMARK    1  A    between atoms: C_4  and  N_34
REMARK    2  A    between atoms: C_5  and  C_7
REMARK    3  A    between atoms: C_10  and  C_12
REMARK    4  A    between atoms: N_13  and  N_14
REMARK                            x       y       z     vdW  Elec       q    Type
REMARK                         _______ _______ _______ _____ _____    ______ ____
ROOT
ATOM      1  C   UNL     1       3.452  -3.800  -2.644  0.00  0.00    +0.177 C 
ATOM      2  N   UNL     1       3.180  -5.037  -2.261  0.00  0.00    -0.175 NA
ENDROOT
BRANCH   2   3
ATOM      3  N   UNL     1       3.634  -6.036  -2.938  0.00  0.00    -0.127 N 
ATOM      4  C   UNL     1       3.295  -7.305  -2.674  0.00  0.00    +0.246 C 
ATOM      5  O   UNL     1       2.546  -7.661  -1.796  0.00  0.00    -0.273 OA
ATOM      6  C   UNL     1       4.000  -8.220  -3.651  0.00  0.00    +0.097 C 
ATOM      7  C   UNL     1       2.951  -8.980  -4.476  0.00  0.00    +0.027 C 
ATOM      8  C   UNL     1       2.115  -7.933  -5.202  0.00  0.00    -0.026 C 
ATOM      9  C   UNL     1       2.798  -7.090  -5.967  0.00  0.00    -0.026 C 
ATOM     10  C   UNL     1       4.307  -7.308  -5.992  0.00  0.00    +0.027 C 
ATOM     11  C   UNL     1       4.813  -7.255  -4.531  0.00  0.00    +0.097 C 
ATOM     12  C   UNL     1       4.479  -5.891  -3.967  0.00  0.00    +0.246 C 
ATOM     13  O   UNL     1       4.909  -4.839  -4.377  0.00  0.00    -0.273 OA
ATOM     14  C   UNL     1       4.520  -8.768  -6.474  0.00  0.00    +0.001 C 
ATOM     15  C   UNL     1       3.721  -9.768  -5.569  0.00  0.00    +0.001 C 
ATOM     16  C   UNL     1       5.271  -9.693  -5.514  0.00  0.00    +0.009 C 
ENDBRANCH   2   3
BRANCH   1  20
ATOM     17  C   UNL     1       1.674  -1.564  -0.541  0.00  0.00    +0.138 A 
ATOM     18  C   UNL     1       2.344  -0.592  -1.406  0.00  0.00    +0.050 A 
ATOM     19  C   UNL     1       3.087  -1.302  -2.293  0.00  0.00    +0.051 A 
ATOM     20  C   UNL     1       2.876  -2.721  -1.977  0.00  0.00    +0.148 A 
ATOM     21  O   UNL     1       2.034  -2.801  -0.927  0.00  0.00    -0.454 OA
BRANCH  17  26
ATOM     22  C   UNL     1       0.319  -0.017   2.527  0.00  0.00    +0.001 A 
ATOM     23  C   UNL     1      -0.913  -0.649   2.612  0.00  0.00    +0.002 A 
ATOM     24  C   UNL     1      -1.294  -1.582   1.658  0.00  0.00    +0.033 A 
ATOM     25  C   UNL     1      -0.457  -1.889   0.623  0.00  0.00    +0.137 A 
ATOM     26  C   UNL     1       0.797  -1.254   0.527  0.00  0.00    +0.047 A 
ATOM     27  C   UNL     1       1.173  -0.307   1.501  0.00  0.00    +0.014 A 
BRANCH  25  28
ATOM     28  N   UNL     1      -0.865  -2.885  -0.393  0.00  0.00    +0.057 N 
ATOM     29  O   UNL     1      -2.038  -3.478  -0.299  0.00  0.00    -0.126 OA
ATOM     30  O   UNL     1      -0.056  -3.179  -1.389  0.00  0.00    -0.126 OA
ENDBRANCH  25  28
ENDBRANCH  17  26
ENDBRANCH   1  20
TORSDOF 4
