REMARK  Name = ZINC63249858
REMARK  6 active torsions:
REMARK  status: ('A' for Active; 'I' for Inactive)
REMARK    1  A    between atoms: C_1  and  N_2
REMARK    2  A    between atoms: N_9  and  C_12
REMARK    3  A    between atoms: N_13  and  C_17
REMARK    4  A    between atoms: C_17  and  C_18
REMARK    5  A    between atoms: C_18  and  S_19
REMARK    6  A    between atoms: S_19  and  C_20
REMARK                            x       y       z     vdW  Elec       q    Type
REMARK                         _______ _______ _______ _____ _____    ______ ____
ROOT
ATOM      1  C   UNL     1      -0.018   1.461   0.010  0.00  0.00    +0.136 C 
ATOM      2  N   UNL     1       0.002  -0.004   0.002  0.00  0.00    -0.264 N 
ATOM      3  C   UNL     1      -1.203  -0.788   0.003  0.00  0.00    +0.227 C 
ATOM      4  C   UNL     1      -1.012  -1.908   1.076  0.00  0.00    +0.205 C 
ATOM      5  C   UNL     1       0.111  -2.747   0.563  0.00  0.00    +0.247 C 
ATOM      6  O   UNL     1       0.080  -3.958   0.579  0.00  0.00    -0.273 OA
ATOM      7  N   UNL     1       1.176  -2.047   0.076  0.00  0.00    -0.227 N 
ATOM      8  C   UNL     1       1.166  -0.718  -0.013  0.00  0.00    +0.312 C 
ATOM      9  O   UNL     1       2.224  -0.125  -0.088  0.00  0.00    -0.252 OA
ATOM     10  C   UNL     1       2.360  -2.776  -0.388  0.00  0.00    +0.143 C 
ATOM     11  N   UNL     1      -2.381  -2.419   1.051  0.00  0.00    -0.294 N 
ATOM     12  C   UNL     1      -3.144  -1.255   0.970  0.00  0.00    +0.163 C 
ATOM     13  N   UNL     1      -2.493  -0.279   0.401  0.00  0.00    -0.238 NA
ATOM     14 BR   UNL     1      -4.910  -1.107   1.627  0.00  0.00    -0.011 Br
ENDROOT
BRANCH  11  15
ATOM     15  C   UNL     1      -2.838  -3.809   1.100  0.00  0.00    +0.118 C 
BRANCH  15  16
ATOM     16  C   UNL     1      -3.049  -4.226   2.558  0.00  0.00    +0.092 C 
BRANCH  16  17
ATOM     17  S   UNL     1      -3.615  -5.948   2.619  0.00  0.00    -0.113 S 
BRANCH  17  18
ATOM     18  C   UNL     1      -3.814  -6.282   4.390  0.00  0.00    +0.235 C 
ATOM     19  N   UNL     1      -4.746  -5.314   4.984  0.00  0.00    -0.355 N 
ATOM     20  C   UNL     1      -4.096  -4.658   5.901  0.00  0.00    +0.061 A 
ATOM     21  C   UNL     1      -4.482  -3.581   6.823  0.00  0.00    +0.027 A 
ATOM     22  C   UNL     1      -3.572  -3.085   7.684  0.00  0.00    +0.002 A 
ATOM     23  C   UNL     1      -2.249  -3.556   7.745  0.00  0.00    +0.002 A 
ATOM     24  C   UNL     1      -1.791  -4.540   6.946  0.00  0.00    +0.027 A 
ATOM     25  C   UNL     1      -2.695  -5.157   5.965  0.00  0.00    +0.061 A 
ATOM     26  N   UNL     1      -2.533  -6.103   5.084  0.00  0.00    -0.355 N 
ATOM     27  H   UNL     1      -5.675  -5.187   4.737  0.00  0.00    +0.162 HD
ATOM     28  H   UNL     1      -1.716  -6.598   4.918  0.00  0.00    +0.162 HD
ENDBRANCH  17  18
ENDBRANCH  16  17
ENDBRANCH  15  16
ENDBRANCH  11  15
TORSDOF 4
