REMARK  Name = ZINC13122061
REMARK  7 active torsions:
REMARK  status: ('A' for Active; 'I' for Inactive)
REMARK    1  A    between atoms: C_10  and  C_11
REMARK    2  A    between atoms: C_11  and  S_12
REMARK    3  A    between atoms: S_12  and  C_13
REMARK    4  A    between atoms: C_16  and  S_18
REMARK    5  A    between atoms: S_18  and  C_19
REMARK    6  A    between atoms: C_19  and  C_20
REMARK    7  A    between atoms: N_22  and  N_23
REMARK                            x       y       z     vdW  Elec       q    Type
REMARK                         _______ _______ _______ _____ _____    ______ ____
ROOT
ATOM      1  S   UNL     1      10.573   3.947   2.017  0.00  0.00    -0.088 S 
ENDROOT
BRANCH   1   5
ATOM      2  C   UNL     1       6.924   1.485   1.466  0.00  0.00    +0.160 A 
ATOM      3  N   UNL     1       7.658   1.685   0.388  0.00  0.00    -0.134 NA
ATOM      4  N   UNL     1       8.806   2.437   0.471  0.00  0.00    -0.134 NA
ATOM      5  C   UNL     1       9.169   2.956   1.628  0.00  0.00    +0.160 A 
ATOM      6  S   UNL     1       7.852   2.391   2.695  0.00  0.00    -0.033 S 
BRANCH   2   7
ATOM      7  S   UNL     1       5.426   0.576   1.645  0.00  0.00    -0.092 S 
BRANCH   7   8
ATOM      8  C   UNL     1       5.097  -0.059  -0.022  0.00  0.00    +0.112 C 
BRANCH   8  18
ATOM      9  C   UNL     1       0.129   0.939  -0.746  0.00  0.00    +0.001 A 
ATOM     10  C   UNL     1       1.295   1.703  -0.761  0.00  0.00    +0.001 A 
ATOM     11  C   UNL     1       2.508   1.133  -0.524  0.00  0.00    +0.009 A 
ATOM     12  C   UNL     1       2.590  -0.244  -0.259  0.00  0.00    -0.014 A 
ATOM     13  C   UNL     1       1.404  -1.021  -0.244  0.00  0.00    -0.018 A 
ATOM     14  C   UNL     1       0.170  -0.398  -0.494  0.00  0.00    +0.008 A 
ATOM     15  C   UNL     1       1.486  -2.398   0.021  0.00  0.00    +0.008 A 
ATOM     16  C   UNL     1       2.700  -2.967   0.259  0.00  0.00    +0.001 A 
ATOM     17  C   UNL     1       3.865  -2.204   0.244  0.00  0.00    +0.005 A 
ATOM     18  C   UNL     1       3.825  -0.867  -0.009  0.00  0.00    -0.029 A 
ENDBRANCH   8  18
ENDBRANCH   7   8
ENDBRANCH   2   7
ENDBRANCH   1   5
BRANCH   1  19
ATOM     19  C   UNL     1      11.446   4.111   0.435  0.00  0.00    +0.173 C 
BRANCH  19  20
ATOM     20  C   UNL     1      12.684   4.948   0.629  0.00  0.00    +0.242 C 
ATOM     21  O   UNL     1      12.951   5.391   1.726  0.00  0.00    -0.273 OA
ATOM     22  N   UNL     1      13.494   5.205  -0.417  0.00  0.00    -0.206 N 
ATOM     23  H   UNL     1      13.280   4.851  -1.295  0.00  0.00    +0.177 HD
BRANCH  22  24
ATOM     24  N   UNL     1      14.645   5.984  -0.237  0.00  0.00    -0.175 NA
ATOM     25  C   UNL     1      15.374   6.324  -1.272  0.00  0.00    +0.152 C 
ATOM     26  C   UNL     1      15.049   6.140  -2.705  0.00  0.00    +0.028 A 
ATOM     27  C   UNL     1      13.957   5.594  -3.371  0.00  0.00    +0.012 A 
ATOM     28  C   UNL     1      13.942   5.564  -4.751  0.00  0.00    +0.001 A 
ATOM     29  C   UNL     1      15.010   6.075  -5.468  0.00  0.00    +0.002 A 
ATOM     30  C   UNL     1      16.098   6.619  -4.816  0.00  0.00    +0.024 A 
ATOM     31  C   UNL     1      16.131   6.659  -3.426  0.00  0.00    +0.043 A 
ATOM     32  N   UNL     1      17.087   7.142  -2.539  0.00  0.00    -0.280 N 
ATOM     33  C   UNL     1      16.698   6.980  -1.262  0.00  0.00    +0.269 C 
ATOM     34  O   UNL     1      17.326   7.311  -0.275  0.00  0.00    -0.268 OA
ATOM     35  H   UNL     1      17.925   7.548  -2.807  0.00  0.00    +0.155 HD
ENDBRANCH  22  24
ENDBRANCH  19  20
ENDBRANCH   1  19
TORSDOF 7
