REMARK  Name = ZINC20208007
REMARK  9 active torsions:
REMARK  status: ('A' for Active; 'I' for Inactive)
REMARK    1  A    between atoms: C_1  and  C_2
REMARK    2  A    between atoms: C_5  and  O_8
REMARK    3  A    between atoms: O_8  and  C_9
REMARK    4  A    between atoms: C_9  and  C_10
REMARK    5  A    between atoms: C_10  and  O_11
REMARK    6  A    between atoms: O_11  and  C_12
REMARK    7  A    between atoms: C_15  and  C_19
REMARK    8  A    between atoms: C_29  and  S_31
REMARK    9  A    between atoms: S_31  and  C_34
REMARK                            x       y       z     vdW  Elec       q    Type
REMARK                         _______ _______ _______ _____ _____    ______ ____
ROOT
ATOM      1  C   UNL     1       1.716  -8.085   0.084  0.00  0.00    +0.139 A 
ATOM      2  C   UNL     1       0.840  -9.002   0.654  0.00  0.00    +0.048 A 
ATOM      3  C   UNL     1       0.940 -10.330   0.353  0.00  0.00    +0.011 A 
ATOM      4  C   UNL     1       1.931 -10.775  -0.534  0.00  0.00    -0.023 A 
ATOM      5  C   UNL     1       2.815  -9.851  -1.110  0.00  0.00    +0.031 A 
ATOM      6  C   UNL     1       2.700  -8.514  -0.803  0.00  0.00    +0.083 A 
ATOM      7 CL   UNL     1       3.787  -7.363  -1.516  0.00  0.00    -0.080 Cl
ENDROOT
BRANCH   4   8
ATOM      8  C   UNL     1       2.042 -12.199  -0.858  0.00  0.00    +0.024 C 
ATOM      9  C   UNL     1       0.912 -12.985  -0.904  0.00  0.00    +0.081 C 
ATOM     10  C   UNL     1      -0.456 -12.400  -0.812  0.00  0.00    +0.153 C 
ATOM     11  N   UNL     1      -0.766 -11.224  -1.289  0.00  0.00    -0.283 NA
ATOM     12  N   UNL     1      -1.382 -13.242  -0.161  0.00  0.00    -0.150 N 
ATOM     13  C   UNL     1      -1.111 -14.593  -0.142  0.00  0.00    +0.182 C 
ATOM     14  N   UNL     1      -0.035 -15.198  -0.580  0.00  0.00    -0.152 NA
ATOM     15  C   UNL     1       0.991 -14.460  -1.053  0.00  0.00    +0.273 C 
ATOM     16  O   UNL     1       1.956 -14.987  -1.583  0.00  0.00    -0.268 OA
ATOM     17  S   UNL     1      -2.564 -15.252   0.632  0.00  0.00    -0.015 S 
ATOM     18  C   UNL     1      -3.377 -13.696   0.967  0.00  0.00    +0.235 C 
ATOM     19  N   UNL     1      -2.547 -12.835   0.454  0.00  0.00    -0.145 NA
ATOM     20  H   UNL     1      -1.673 -10.890  -1.204  0.00  0.00    +0.188 HD
BRANCH  18  21
ATOM     21  S   UNL     1      -4.911 -13.404   1.784  0.00  0.00    +0.019 S 
ATOM     22  O   UNL     1      -5.026 -14.459   2.729  0.00  0.00    -0.168 OA
ATOM     23  O   UNL     1      -4.841 -12.051   2.213  0.00  0.00    -0.168 OA
ATOM     24  C   UNL     1      -6.170 -13.585   0.490  0.00  0.00    +0.202 C 
ENDBRANCH  18  21
ENDBRANCH   4   8
BRANCH   1  25
ATOM     25  O   UNL     1       1.609  -6.768   0.389  0.00  0.00    -0.487 OA
BRANCH  25  26
ATOM     26  C   UNL     1       0.577  -6.396   1.306  0.00  0.00    +0.270 C 
BRANCH  26  27
ATOM     27  C   UNL     1       0.611  -4.882   1.526  0.00  0.00    +0.270 C 
BRANCH  27  28
ATOM     28  O   UNL     1       0.288  -4.216   0.303  0.00  0.00    -0.489 OA
BRANCH  28  33
ATOM     29  C   UNL     1       0.227   1.415   0.398  0.00  0.00    +0.044 C 
ATOM     30  C   UNL     1       0.244  -0.091   0.372  0.00  0.00    -0.050 A 
ATOM     31  C   UNL     1      -0.045  -0.765  -0.800  0.00  0.00    +0.007 A 
ATOM     32  C   UNL     1      -0.031  -2.146  -0.826  0.00  0.00    +0.046 A 
ATOM     33  C   UNL     1       0.274  -2.857   0.326  0.00  0.00    +0.121 A 
ATOM     34  C   UNL     1       0.565  -2.179   1.501  0.00  0.00    +0.046 A 
ATOM     35  C   UNL     1       0.554  -0.798   1.520  0.00  0.00    +0.007 A 
ENDBRANCH  28  33
ENDBRANCH  27  28
ENDBRANCH  26  27
ENDBRANCH  25  26
ENDBRANCH   1  25
TORSDOF 7
