REMARK  Name = ZINC04117237
REMARK  4 active torsions:
REMARK  status: ('A' for Active; 'I' for Inactive)
REMARK    1  A    between atoms: C_1  and  C_2
REMARK    2  A    between atoms: N_5  and  C_8
REMARK    3  A    between atoms: C_11  and  C_17
REMARK    4  A    between atoms: C_13  and  N_14
REMARK                            x       y       z     vdW  Elec       q    Type
REMARK                         _______ _______ _______ _____ _____    ______ ____
ROOT
ATOM      1  C   UNL     1      -1.042   0.650   2.879  0.00  0.00    +0.060 A 
ATOM      2  C   UNL     1      -0.623  -0.678   2.854  0.00  0.00    +0.026 A 
ATOM      3  C   UNL     1       0.365  -1.106   3.710  0.00  0.00    +0.010 A 
ATOM      4  C   UNL     1       0.952  -0.204   4.607  0.00  0.00    -0.022 A 
ATOM      5  C   UNL     1       0.528   1.131   4.628  0.00  0.00    +0.042 A 
ATOM      6  C   UNL     1      -0.458   1.552   3.764  0.00  0.00    +0.148 A 
ENDROOT
BRANCH   4   7
ATOM      7  C   UNL     1       2.007  -0.656   5.522  0.00  0.00    +0.028 C 
ATOM      8  C   UNL     1       2.532  -1.900   5.389  0.00  0.00    +0.078 C 
ATOM      9  C   UNL     1       3.456  -2.625   6.282  0.00  0.00    +0.256 C 
ATOM     10  O   UNL     1       3.867  -2.126   7.313  0.00  0.00    -0.269 OA
ATOM     11  N   UNL     1       3.817  -3.842   5.912  0.00  0.00    -0.261 N 
ATOM     12  C   UNL     1       3.339  -4.390   4.739  0.00  0.00    +0.158 C 
ATOM     13  N   UNL     1       3.591  -5.565   4.230  0.00  0.00    -0.279 NA
ATOM     14  S   UNL     1       2.286  -3.102   4.091  0.00  0.00    -0.049 S 
ATOM     15  H   UNL     1       4.423  -4.354   6.470  0.00  0.00    +0.157 HD
ATOM     16  H   UNL     1       3.185  -5.826   3.389  0.00  0.00    +0.189 HD
ENDBRANCH   4   7
BRANCH   1  21
ATOM     17  C   UNL     1      -5.591   1.641  -0.303  0.00  0.00    +0.007 C 
ATOM     18  C   UNL     1      -4.615   1.025   0.700  0.00  0.00    -0.011 C 
ATOM     19  C   UNL     1      -4.279   2.053   1.784  0.00  0.00    +0.022 C 
ATOM     20  C   UNL     1      -3.256   1.452   2.751  0.00  0.00    +0.105 C 
ATOM     21  N   UNL     1      -2.043   1.079   2.011  0.00  0.00    -0.328 N 
ATOM     22  C   UNL     1      -2.332   0.058   0.997  0.00  0.00    +0.105 C 
ATOM     23  C   UNL     1      -3.328   0.618  -0.022  0.00  0.00    +0.022 C 
ENDBRANCH   1  21
BRANCH   6  24
ATOM     24  N   UNL     1      -0.902   2.963   3.782  0.00  0.00    +0.058 N 
ATOM     25  O   UNL     1      -0.480   3.725   4.634  0.00  0.00    -0.126 OA
ATOM     26  O   UNL     1      -1.691   3.364   2.945  0.00  0.00    -0.126 OA
ENDBRANCH   6  24
TORSDOF 3
