REMARK  Name = ZINC03200361
REMARK  13 active torsions:
REMARK  status: ('A' for Active; 'I' for Inactive)
REMARK    1  A    between atoms: C_1  and  O_2
REMARK    2  A    between atoms: O_2  and  C_3
REMARK    3  A    between atoms: C_3  and  C_5
REMARK    4  A    between atoms: C_5  and  C_6
REMARK    5  A    between atoms: C_5  and  C_31
REMARK    6  A    between atoms: C_5  and  O_35
REMARK    7  A    between atoms: C_13  and  C_21
REMARK    8  A    between atoms: C_14  and  C_15
REMARK    9  A    between atoms: C_21  and  C_22
REMARK   10  A    between atoms: C_21  and  C_26
REMARK   11  A    between atoms: C_21  and  O_30
REMARK   12  A    between atoms: C_22  and  O_24
REMARK   13  A    between atoms: O_24  and  C_25
REMARK                            x       y       z     vdW  Elec       q    Type
REMARK                         _______ _______ _______ _____ _____    ______ ____
ROOT
ATOM      1  C   UNL     1       2.567   1.304   0.241  0.00  0.00    +0.037 A 
ATOM      2  C   UNL     1       1.553   1.509   1.157  0.00  0.00    +0.054 A 
ATOM      3  C   UNL     1       0.656   0.621   1.792  0.00  0.00    +0.026 A 
ATOM      4  C   UNL     1      -0.262   1.112   2.664  0.00  0.00    +0.003 A 
ATOM      5  C   UNL     1      -0.300   2.493   2.932  0.00  0.00    +0.018 A 
ATOM      6  C   UNL     1       0.558   3.333   2.322  0.00  0.00    +0.091 A 
ATOM      7  N   UNL     1       1.490   2.858   1.433  0.00  0.00    -0.316 N 
ATOM      8  C   UNL     1       2.448   3.497   0.705  0.00  0.00    +0.083 A 
ATOM      9  C   UNL     1       3.130   2.563  -0.041  0.00  0.00    +0.014 A 
ENDROOT
BRANCH   9  10
ATOM     10  C   UNL     1       4.253   2.834  -0.973  0.00  0.00    -0.016 A 
ATOM     11  C   UNL     1       5.566   2.597  -0.572  0.00  0.00    +0.008 A 
ATOM     12  C   UNL     1       6.606   2.845  -1.445  0.00  0.00    +0.001 A 
ATOM     13  C   UNL     1       6.348   3.340  -2.710  0.00  0.00    +0.000 A 
ATOM     14  C   UNL     1       5.046   3.582  -3.111  0.00  0.00    +0.001 A 
ATOM     15  C   UNL     1       3.998   3.332  -2.249  0.00  0.00    +0.008 A 
ENDBRANCH   9  10
BRANCH   1  16
ATOM     16  C   UNL     1       2.992  -0.018  -0.344  0.00  0.00    +0.286 C 
BRANCH  16  17
ATOM     17  C   UNL     1       3.727  -0.835   0.720  0.00  0.00    +0.433 C 
ATOM     18  F   UNL     1       2.841  -1.161   1.752  0.00  0.00    -0.167 F 
ATOM     19  F   UNL     1       4.226  -2.008   0.145  0.00  0.00    -0.167 F 
ATOM     20  F   UNL     1       4.787  -0.081   1.236  0.00  0.00    -0.167 F 
ENDBRANCH  16  17
BRANCH  16  21
ATOM     21  C   UNL     1       1.774  -0.776  -0.807  0.00  0.00    +0.353 C 
ATOM     22  O   UNL     1       0.676  -0.446  -0.427  0.00  0.00    -0.247 OA
BRANCH  21  24
ATOM     23  C   UNL     1       0.695  -2.503  -2.045  0.00  0.00    +0.280 C 
ATOM     24  O   UNL     1       1.910  -1.819  -1.641  0.00  0.00    -0.465 OA
ENDBRANCH  21  24
ENDBRANCH  16  21
BRANCH  16  25
ATOM     25  O   UNL     1       3.861   0.210  -1.455  0.00  0.00    -0.367 OA
ATOM     26  H   UNL     1       3.483   0.778  -2.140  0.00  0.00    +0.212 HD
ENDBRANCH  16  25
ENDBRANCH   1  16
BRANCH   8  27
ATOM     27  C   UNL     1       2.716   4.979   0.714  0.00  0.00    +0.299 C 
BRANCH  27  28
ATOM     28  C   UNL     1       4.226   5.225   0.716  0.00  0.00    +0.435 C 
ATOM     29  F   UNL     1       4.752   4.907  -0.541  0.00  0.00    -0.167 F 
ATOM     30  F   UNL     1       4.480   6.571   1.001  0.00  0.00    -0.167 F 
ATOM     31  F   UNL     1       4.828   4.420   1.690  0.00  0.00    -0.167 F 
ENDBRANCH  27  28
BRANCH  27  32
ATOM     32  C   UNL     1       2.107   5.608  -0.512  0.00  0.00    +0.354 C 
ATOM     33  O   UNL     1       1.925   4.943  -1.505  0.00  0.00    -0.247 OA
BRANCH  32  34
ATOM     34  O   UNL     1       1.766   6.906  -0.502  0.00  0.00    -0.465 OA
ATOM     35  C   UNL     1       1.184   7.445  -1.719  0.00  0.00    +0.280 C 
ENDBRANCH  32  34
ENDBRANCH  27  32
BRANCH  27  36
ATOM     36  O   UNL     1       2.138   5.561   1.885  0.00  0.00    -0.366 OA
ATOM     37  H   UNL     1       1.174   5.627   1.856  0.00  0.00    +0.212 HD
ENDBRANCH  27  36
ENDBRANCH   8  27
TORSDOF 11
