REMARK  Name = ZINC36638068
REMARK  10 active torsions:
REMARK  status: ('A' for Active; 'I' for Inactive)
REMARK    1  A    between atoms: C_1  and  C_2
REMARK    2  A    between atoms: C_2  and  N_3
REMARK    3  A    between atoms: N_3  and  C_4
REMARK    4  A    between atoms: N_3  and  C_6
REMARK    5  A    between atoms: C_4  and  C_5
REMARK    6  A    between atoms: C_6  and  C_7
REMARK    7  A    between atoms: C_7  and  N_8
REMARK    8  A    between atoms: C_19  and  C_21
REMARK    9  A    between atoms: C_24  and  S_27
REMARK   10  A    between atoms: S_27  and  N_30
REMARK                            x       y       z     vdW  Elec       q    Type
REMARK                         _______ _______ _______ _____ _____    ______ ____
ROOT
ATOM      1  N   UNL     1       2.575  -3.506  -0.569  0.00  0.00    -0.248 N 
ATOM      2  C   UNL     1       1.786  -4.309  -1.375  0.00  0.00    +0.168 A 
ATOM      3  N   UNL     1       1.101  -3.980  -2.445  0.00  0.00    -0.223 NA
ATOM      4  C   UNL     1       0.368  -4.876  -3.141  0.00  0.00    +0.099 A 
ATOM      5  C   UNL     1       0.384  -6.199  -2.644  0.00  0.00    +0.042 A 
ATOM      6  S   UNL     1       1.450  -6.058  -1.229  0.00  0.00    -0.052 S 
ATOM      7  C   UNL     1      -0.309  -7.223  -3.239  0.00  0.00    +0.017 A 
ATOM      8  C   UNL     1      -1.060  -6.971  -4.372  0.00  0.00    +0.003 A 
ATOM      9  C   UNL     1      -1.100  -5.685  -4.889  0.00  0.00    +0.022 A 
ATOM     10  C   UNL     1      -0.410  -4.655  -4.302  0.00  0.00    +0.067 A 
ATOM     11 CL   UNL     1      -0.494  -3.063  -4.989  0.00  0.00    -0.081 Cl
ATOM     12  C   UNL     1       3.294  -4.054   0.431  0.00  0.00    +0.252 C 
ATOM     13  O   UNL     1       3.301  -5.260   0.584  0.00  0.00    -0.270 OA
ENDROOT
BRANCH  12  14
ATOM     14  C   UNL     1       4.073  -3.188   1.341  0.00  0.00    +0.037 A 
ATOM     15  C   UNL     1       3.669  -1.873   1.574  0.00  0.00    +0.015 A 
ATOM     16  C   UNL     1       4.401  -1.071   2.426  0.00  0.00    +0.029 A 
ATOM     17  C   UNL     1       5.532  -1.568   3.048  0.00  0.00    +0.106 A 
ATOM     18  C   UNL     1       5.938  -2.871   2.821  0.00  0.00    +0.029 A 
ATOM     19  C   UNL     1       5.212  -3.685   1.977  0.00  0.00    +0.015 A 
BRANCH  17  20
ATOM     20  S   UNL     1       6.460  -0.536   4.134  0.00  0.00    +0.061 S 
ATOM     21  O   UNL     1       7.780  -1.063   4.165  0.00  0.00    -0.153 OA
ATOM     22  O   UNL     1       6.185   0.805   3.754  0.00  0.00    -0.153 OA
BRANCH  20  23
ATOM     23  N   UNL     1       5.834  -0.736   5.654  0.00  0.00    -0.177 NA
ATOM     24  C   UNL     1       4.741   0.052   6.241  0.00  0.00    +0.109 C 
ATOM     25  C   UNL     1       4.518  -0.471   7.676  0.00  0.00    +0.018 C 
ATOM     26  C   UNL     1       5.875  -1.143   8.015  0.00  0.00    +0.018 C 
ATOM     27  C   UNL     1       6.277  -1.739   6.640  0.00  0.00    +0.109 C 
ENDBRANCH  20  23
ENDBRANCH  17  20
ENDBRANCH  12  14
BRANCH   1  28
ATOM     28  C   UNL     1       2.628  -2.060  -0.802  0.00  0.00    +0.097 C 
BRANCH  28  29
ATOM     29  C   UNL     1       1.307  -1.424  -0.364  0.00  0.00    -0.059 C 
BRANCH  29  30
ATOM     30  N   UNL     1       1.360   0.025  -0.598  0.00  0.00    +0.380 N 
ATOM     31  H   UNL     1       2.167   0.412  -0.131  0.00  0.00    -0.082 HD
BRANCH  30  33
ATOM     32  C   UNL     1       1.632   1.786  -2.277  0.00  0.00    -0.017 C 
ATOM     33  C   UNL     1       1.457   0.285  -2.040  0.00  0.00    -0.082 C 
ENDBRANCH  30  33
BRANCH  30  34
ATOM     34  C   UNL     1       0.142   0.651  -0.068  0.00  0.00    -0.082 C 
ATOM     35  C   UNL     1       0.103   0.485   1.453  0.00  0.00    -0.017 C 
ENDBRANCH  30  34
ENDBRANCH  29  30
ENDBRANCH  28  29
ENDBRANCH   1  28
TORSDOF 8
