REMARK  Name = ZINC01145419
REMARK  6 active torsions:
REMARK  status: ('A' for Active; 'I' for Inactive)
REMARK    1  A    between atoms: C_1  and  O_2
REMARK    2  A    between atoms: O_2  and  C_3
REMARK    3  A    between atoms: C_6  and  N_25
REMARK    4  A    between atoms: C_8  and  C_9
REMARK    5  A    between atoms: N_13  and  C_17
REMARK    6  A    between atoms: C_17  and  C_18
REMARK                            x       y       z     vdW  Elec       q    Type
REMARK                         _______ _______ _______ _____ _____    ______ ____
ROOT
ATOM      1  C   UNL     1      -2.498   1.016   0.020  0.00  0.00    +0.040 C 
ATOM      2  C   UNL     1      -2.489  -0.337  -0.089  0.00  0.00    +0.098 C 
ATOM      3  C   UNL     1      -1.316  -1.223  -0.117  0.00  0.00    +0.269 C 
ATOM      4  O   UNL     1      -0.147  -0.891  -0.045  0.00  0.00    -0.268 OA
ATOM      5  N   UNL     1      -1.796  -2.478  -0.237  0.00  0.00    -0.216 N 
ATOM      6  C   UNL     1      -3.136  -2.450  -0.286  0.00  0.00    +0.313 C 
ATOM      7  O   UNL     1      -3.842  -3.435  -0.392  0.00  0.00    -0.252 OA
ATOM      8  N   UNL     1      -3.597  -1.190  -0.195  0.00  0.00    -0.265 N 
ATOM      9  H   UNL     1      -4.528  -0.920  -0.203  0.00  0.00    +0.157 HD
ENDROOT
BRANCH   1  15
ATOM     10  C   UNL     1      -1.011   2.838   0.838  0.00  0.00    +0.127 A 
ATOM     11  C   UNL     1       0.181   3.541   0.769  0.00  0.00    +0.048 A 
ATOM     12  C   UNL     1       1.144   3.184  -0.156  0.00  0.00    +0.036 A 
ATOM     13  C   UNL     1       0.927   2.123  -1.021  0.00  0.00    +0.127 A 
ATOM     14  C   UNL     1      -0.251   1.412  -0.968  0.00  0.00    +0.044 A 
ATOM     15  C   UNL     1      -1.238   1.765  -0.040  0.00  0.00    +0.021 A 
BRANCH  13  16
ATOM     16  N   UNL     1       1.968   1.753  -2.006  0.00  0.00    +0.056 N 
ATOM     17  O   UNL     1       1.781   0.821  -2.767  0.00  0.00    -0.126 OA
ATOM     18  O   UNL     1       3.011   2.380  -2.055  0.00  0.00    -0.126 OA
ENDBRANCH  13  16
BRANCH  10  20
ATOM     19  C   UNL     1      -1.659   4.294   2.600  0.00  0.00    +0.277 C 
ATOM     20  O   UNL     1      -1.958   3.189   1.745  0.00  0.00    -0.495 OA
ENDBRANCH  10  20
ENDBRANCH   1  15
BRANCH   5  21
ATOM     21  C   UNL     1      -0.975  -3.690  -0.304  0.00  0.00    +0.153 C 
BRANCH  21  22
ATOM     22  C   UNL     1      -0.747  -4.221   1.088  0.00  0.00    -0.029 A 
ATOM     23  C   UNL     1       0.351  -3.803   1.815  0.00  0.00    +0.006 A 
ATOM     24  C   UNL     1       0.558  -4.285   3.094  0.00  0.00    +0.015 A 
ATOM     25  C   UNL     1      -0.329  -5.195   3.641  0.00  0.00    +0.018 A 
ATOM     26  C   UNL     1      -1.425  -5.617   2.911  0.00  0.00    +0.015 A 
ATOM     27  C   UNL     1      -1.634  -5.130   1.634  0.00  0.00    +0.006 A 
ATOM     28 BR   UNL     1      -0.043  -5.861   5.388  0.00  0.00    -0.050 Br
ENDBRANCH  21  22
ENDBRANCH   5  21
TORSDOF 5
