REMARK  Name = ZINC63138895
REMARK  6 active torsions:
REMARK  status: ('A' for Active; 'I' for Inactive)
REMARK    1  A    between atoms: C_1  and  C_2
REMARK    2  A    between atoms: C_2  and  C_3
REMARK    3  A    between atoms: C_3  and  C_5
REMARK    4  A    between atoms: C_3  and  N_6
REMARK    5  A    between atoms: C_26  and  C_28
REMARK    6  A    between atoms: C_32  and  N_34
REMARK                            x       y       z     vdW  Elec       q    Type
REMARK                         _______ _______ _______ _____ _____    ______ ____
ROOT
ATOM      1  N   UNL     1      -2.098  -0.186   1.271  0.00  0.00    -0.288 N 
ATOM      2  C   UNL     1      -1.508  -0.658   2.513  0.00  0.00    +0.204 C 
ATOM      3  C   UNL     1      -2.275  -0.205   3.710  0.00  0.00    +0.234 C 
ATOM      4  O   UNL     1      -1.869  -0.546   4.801  0.00  0.00    -0.274 OA
ATOM      5  N   UNL     1      -3.379   0.551   3.666  0.00  0.00    -0.279 N 
ATOM      6  C   UNL     1      -3.951   1.037   2.415  0.00  0.00    +0.167 C 
ATOM      7  C   UNL     1      -3.188   0.578   1.217  0.00  0.00    +0.237 C 
ATOM      8  O   UNL     1      -3.588   0.920   0.124  0.00  0.00    -0.274 OA
ATOM      9  C   UNL     1      -4.011   2.575   2.429  0.00  0.00    +0.065 C 
ATOM     10  C   UNL     1      -4.576   2.972   3.770  0.00  0.00    -0.034 C 
ATOM     11  C   UNL     1      -5.579   3.777   4.099  0.00  0.00    -0.001 A 
ATOM     12  C   UNL     1      -6.432   4.661   3.290  0.00  0.00    +0.010 A 
ATOM     13  C   UNL     1      -7.398   5.342   3.962  0.00  0.00    +0.001 A 
ATOM     14  C   UNL     1      -7.598   5.233   5.342  0.00  0.00    +0.002 A 
ATOM     15  C   UNL     1      -6.854   4.452   6.165  0.00  0.00    +0.026 A 
ATOM     16  C   UNL     1      -5.801   3.693   5.575  0.00  0.00    +0.043 A 
ATOM     17  N   UNL     1      -4.933   2.893   6.121  0.00  0.00    -0.375 N 
ATOM     18  C   UNL     1      -4.021   2.422   5.078  0.00  0.00    +0.131 C 
ATOM     19  C   UNL     1      -4.031   0.896   4.949  0.00  0.00    +0.133 C 
ATOM     20  H   UNL     1      -4.896   2.651   7.059  0.00  0.00    +0.160 HD
ENDROOT
BRANCH  19  21
ATOM     21  C   UNL     1      -3.267   0.281   6.093  0.00  0.00    -0.023 A 
ATOM     22  C   UNL     1      -2.183   0.946   6.638  0.00  0.00    +0.005 A 
ATOM     23  C   UNL     1      -1.482   0.383   7.687  0.00  0.00    +0.003 A 
ATOM     24  C   UNL     1      -1.864  -0.846   8.192  0.00  0.00    +0.033 A 
ATOM     25  C   UNL     1      -2.948  -1.510   7.649  0.00  0.00    +0.127 A 
ATOM     26  C   UNL     1      -3.652  -0.945   6.602  0.00  0.00    +0.038 A 
BRANCH  25  27
ATOM     27  N   UNL     1      -3.356  -2.826   8.190  0.00  0.00    +0.056 N 
ATOM     28  O   UNL     1      -2.743  -3.320   9.107  0.00  0.00    -0.126 OA
ATOM     29  O   UNL     1      -4.304  -3.407   7.715  0.00  0.00    -0.126 OA
ENDBRANCH  25  27
ENDBRANCH  19  21
BRANCH   1  30
ATOM     30  C   UNL     1      -1.456  -0.566   0.011  0.00  0.00    +0.073 C 
ATOM     31  C   UNL     1      -1.447  -2.090  -0.118  0.00  0.00    +0.028 C 
BRANCH  30  33
ATOM     32  C   UNL     1      -0.030   1.486  -0.004  0.00  0.00    +0.005 C 
ATOM     33  C   UNL     1      -0.018  -0.044  -0.006  0.00  0.00    +0.019 C 
ENDBRANCH  30  33
ENDBRANCH   1  30
TORSDOF 4
