REMARK  Name = ZINC15834923
REMARK  5 active torsions:
REMARK  status: ('A' for Active; 'I' for Inactive)
REMARK    1  A    between atoms: C_1  and  C_2
REMARK    2  A    between atoms: C_2  and  O_3
REMARK    3  A    between atoms: O_3  and  C_4
REMARK    4  A    between atoms: C_9  and  C_10
REMARK    5  A    between atoms: N_28  and  C_31
REMARK                            x       y       z     vdW  Elec       q    Type
REMARK                         _______ _______ _______ _____ _____    ______ ____
ROOT
ATOM      1  C   UNL     1      -4.067  -1.807   0.353  0.00  0.00    +0.090 C 
ATOM      2  C   UNL     1      -4.494  -1.240   1.676  0.00  0.00    +0.071 C 
ATOM      3  C   UNL     1      -5.200   0.062   1.533  0.00  0.00    +0.027 C 
ATOM      4  N   UNL     1      -6.037   0.446   0.633  0.00  0.00    -0.316 N 
ATOM      5  C   UNL     1      -6.515   0.099  -0.601  0.00  0.00    +0.045 A 
ATOM      6  C   UNL     1      -7.278   1.097  -1.232  0.00  0.00    +0.024 A 
ATOM      7  C   UNL     1      -7.831   0.908  -2.475  0.00  0.00    +0.002 A 
ATOM      8  C   UNL     1      -7.638  -0.293  -3.134  0.00  0.00    +0.001 A 
ATOM      9  C   UNL     1      -6.895  -1.280  -2.532  0.00  0.00    +0.016 A 
ATOM     10  C   UNL     1      -6.326  -1.104  -1.263  0.00  0.00    +0.030 A 
ATOM     11  S   UNL     1      -5.416  -2.453  -0.623  0.00  0.00    -0.115 S 
ATOM     12  C   UNL     1      -4.916   0.997   2.511  0.00  0.00    +0.116 C 
ATOM     13  C   UNL     1      -4.325   0.604   3.802  0.00  0.00    +0.258 C 
ATOM     14  N   UNL     1      -4.074   1.571   4.709  0.00  0.00    -0.235 N 
ATOM     15  H   UNL     1      -3.684   1.329   5.564  0.00  0.00    +0.159 HD
ATOM     16  C   UNL     1      -4.350   2.858   4.456  0.00  0.00    +0.316 C 
ATOM     17  O   UNL     1      -4.100   3.680   5.316  0.00  0.00    -0.252 OA
ATOM     18  N   UNL     1      -4.888   3.286   3.306  0.00  0.00    -0.218 N 
ATOM     19  C   UNL     1      -5.186   2.431   2.305  0.00  0.00    +0.261 C 
ATOM     20  O   UNL     1      -5.669   2.833   1.263  0.00  0.00    -0.269 OA
ATOM     21  O   UNL     1      -4.070  -0.560   4.044  0.00  0.00    -0.270 OA
ATOM     22  H   UNL     1      -6.478   1.256   0.931  0.00  0.00    +0.152 HD
ENDROOT
BRANCH   1  28
ATOM     23  C   UNL     1      -1.741  -2.622   0.817  0.00  0.00    +0.125 A 
ATOM     24  C   UNL     1      -0.835  -3.646   1.052  0.00  0.00    +0.046 A 
ATOM     25  C   UNL     1      -1.267  -4.958   1.067  0.00  0.00    +0.004 A 
ATOM     26  C   UNL     1      -2.600  -5.251   0.848  0.00  0.00    +0.001 A 
ATOM     27  C   UNL     1      -3.505  -4.232   0.614  0.00  0.00    +0.008 A 
ATOM     28  C   UNL     1      -3.079  -2.918   0.603  0.00  0.00    +0.008 A 
BRANCH  23  29
ATOM     29  O   UNL     1      -1.319  -1.330   0.801  0.00  0.00    -0.492 OA
BRANCH  29  31
ATOM     30  C   UNL     1       0.357   0.403   0.975  0.00  0.00    +0.048 C 
ATOM     31  C   UNL     1       0.073  -1.100   1.029  0.00  0.00    +0.225 C 
ENDBRANCH  29  31
ENDBRANCH  23  29
ENDBRANCH   1  28
BRANCH  18  32
ATOM     32  C   UNL     1      -5.152   4.716   3.128  0.00  0.00    +0.086 C 
ATOM     33  C   UNL     1      -3.841   5.496   3.249  0.00  0.00    +0.023 C 
ATOM     34  C   UNL     1      -4.118   6.989   3.063  0.00  0.00    +0.002 C 
ATOM     35  C   UNL     1      -5.095   7.465   4.139  0.00  0.00    +0.000 C 
ATOM     36  C   UNL     1      -6.406   6.685   4.018  0.00  0.00    +0.002 C 
ATOM     37  C   UNL     1      -6.130   5.192   4.204  0.00  0.00    +0.023 C 
ENDBRANCH  18  32
TORSDOF 4
