REMARK  Name = ZINC34793440
REMARK  10 active torsions:
REMARK  status: ('A' for Active; 'I' for Inactive)
REMARK    1  A    between atoms: C_1  and  C_2
REMARK    2  A    between atoms: C_2  and  N_3
REMARK    3  A    between atoms: C_6  and  C_11
REMARK    4  A    between atoms: N_21  and  C_23
REMARK    5  A    between atoms: C_23  and  C_25
REMARK    6  A    between atoms: C_23  and  C_26
REMARK    7  A    between atoms: N_28  and  C_29
REMARK    8  A    between atoms: C_29  and  C_30
REMARK    9  A    between atoms: C_30  and  C_31
REMARK   10  A    between atoms: C_31  and  C_32
REMARK                            x       y       z     vdW  Elec       q    Type
REMARK                         _______ _______ _______ _____ _____    ______ ____
ROOT
ATOM      1  N   UNL     1      -1.372  -0.511   0.012  0.00  0.00    -0.257 N 
ATOM      2  C   UNL     1      -1.968  -0.736   1.220  0.00  0.00    +0.042 C 
ATOM      3  C   UNL     1      -3.231  -1.202   1.301  0.00  0.00    +0.058 C 
ATOM      4  C   UNL     1      -3.968  -1.468   0.004  0.00  0.00    +0.143 C 
ATOM      5  N   UNL     1      -3.238  -1.194  -1.246  0.00  0.00    -0.288 N 
ATOM      6  C   UNL     1      -1.978  -0.724  -1.163  0.00  0.00    +0.307 C 
ATOM      7  O   UNL     1      -1.369  -0.491  -2.189  0.00  0.00    -0.252 OA
ATOM      8  C   UNL     1      -3.615  -1.349   2.650  0.00  0.00    +0.247 C 
ATOM      9  O   UNL     1      -4.704  -1.752   3.015  0.00  0.00    -0.270 OA
ATOM     10  N   UNL     1      -2.620  -0.986   3.480  0.00  0.00    -0.281 N 
ATOM     11  C   UNL     1      -1.487  -0.565   2.644  0.00  0.00    +0.160 C 
ATOM     12  H   UNL     1      -3.656  -1.344  -2.108  0.00  0.00    +0.151 HD
ENDROOT
BRANCH   4  13
ATOM     13  C   UNL     1      -4.380  -2.917  -0.008  0.00  0.00    -0.004 A 
ATOM     14  C   UNL     1      -3.579  -3.858  -0.628  0.00  0.00    +0.008 A 
ATOM     15  C   UNL     1      -3.956  -5.188  -0.639  0.00  0.00    +0.020 A 
ATOM     16  C   UNL     1      -5.135  -5.578  -0.029  0.00  0.00    +0.042 A 
ATOM     17  C   UNL     1      -5.936  -4.637   0.592  0.00  0.00    +0.040 A 
ATOM     18  C   UNL     1      -5.556  -3.307   0.607  0.00  0.00    +0.048 A 
ATOM     19 CL   UNL     1      -6.558  -2.126   1.391  0.00  0.00    -0.083 Cl
ATOM     20 CL   UNL     1      -5.608  -7.248  -0.044  0.00  0.00    -0.083 Cl
ENDBRANCH   4  13
BRANCH   1  22
ATOM     21  C   UNL     1      -0.019   1.526   0.010  0.00  0.00    +0.025 C 
ATOM     22  C   UNL     1       0.002  -0.004   0.002  0.00  0.00    +0.111 C 
ENDBRANCH   1  22
BRANCH  10  23
ATOM     23  C   UNL     1      -2.660  -1.007   4.944  0.00  0.00    +0.159 C 
ATOM     24  C   UNL     1      -2.918  -2.435   5.427  0.00  0.00    +0.038 C 
BRANCH  23  25
ATOM     25  C   UNL     1      -3.765  -0.105   5.430  0.00  0.00    +0.233 C 
ATOM     26  O   UNL     1      -4.452   0.496   4.631  0.00  0.00    -0.274 OA
ATOM     27  N   UNL     1      -3.990   0.034   6.751  0.00  0.00    -0.314 N 
ATOM     28  H   UNL     1      -3.440  -0.447   7.390  0.00  0.00    +0.149 HD
BRANCH  27  29
ATOM     29  C   UNL     1      -5.065   0.910   7.223  0.00  0.00    +0.104 C 
BRANCH  29  30
ATOM     30  C   UNL     1      -5.106   0.889   8.753  0.00  0.00    +0.023 C 
BRANCH  30  31
ATOM     31  C   UNL     1      -6.228   1.804   9.245  0.00  0.00    +0.036 C 
BRANCH  31  32
ATOM     32  C   UNL     1      -6.269   1.783  10.752  0.00  0.00    -0.047 A 
ATOM     33  C   UNL     1      -7.048   0.850  11.409  0.00  0.00    +0.003 A 
ATOM     34  C   UNL     1      -7.085   0.830  12.791  0.00  0.00    +0.000 A 
ATOM     35  C   UNL     1      -6.343   1.744  13.515  0.00  0.00    +0.000 A 
ATOM     36  C   UNL     1      -5.563   2.677  12.858  0.00  0.00    +0.000 A 
ATOM     37  C   UNL     1      -5.522   2.694  11.476  0.00  0.00    +0.003 A 
ENDBRANCH  31  32
ENDBRANCH  30  31
ENDBRANCH  29  30
ENDBRANCH  27  29
ENDBRANCH  23  25
ENDBRANCH  10  23
TORSDOF 8
