REMARK  Name = ZINC09184981
REMARK  11 active torsions:
REMARK  status: ('A' for Active; 'I' for Inactive)
REMARK    1  A    between atoms: C_1  and  C_2
REMARK    2  A    between atoms: C_2  and  N_60
REMARK    3  A    between atoms: C_3  and  C_4
REMARK    4  A    between atoms: C_3  and  N_60
REMARK    5  A    between atoms: C_5  and  C_6
REMARK    6  A    between atoms: C_5  and  N_60
REMARK    7  A    between atoms: C_6  and  N_7
REMARK    8  A    between atoms: C_8  and  C_27
REMARK    9  A    between atoms: C_11  and  C_12
REMARK   10  A    between atoms: C_11  and  O_22
REMARK   11  A    between atoms: C_13  and  C_21
REMARK                            x       y       z     vdW  Elec       q    Type
REMARK                         _______ _______ _______ _____ _____    ______ ____
ROOT
ATOM      1  N   UNL     1       2.186   7.987  -2.339  0.00  0.00    -0.285 N 
ATOM      2  C   UNL     1       2.326   7.677  -0.912  0.00  0.00    +0.144 C 
ATOM      3  C   UNL     1       1.193   6.740  -0.564  0.00  0.00    +0.073 C 
ATOM      4  C   UNL     1       0.925   6.181   0.683  0.00  0.00    +0.151 C 
ATOM      5  C   UNL     1       0.474   6.542  -1.741  0.00  0.00    +0.249 C 
ATOM      6  O   UNL     1      -0.516   5.838  -1.864  0.00  0.00    -0.282 OA
ATOM      7  C   UNL     1       1.115   7.335  -2.820  0.00  0.00    +0.288 C 
ATOM      8  O   UNL     1       0.730   7.383  -3.971  0.00  0.00    -0.266 OA
ENDROOT
BRANCH   4   9
ATOM      9  C   UNL     1      -0.177   5.319   0.847  0.00  0.00    +0.111 A 
ATOM     10  C   UNL     1      -1.524   5.670   0.812  0.00  0.00    +0.068 A 
ATOM     11  N   UNL     1      -2.240   4.577   1.002  0.00  0.00    -0.232 NA
ATOM     12  C   UNL     1      -1.432   3.528   1.167  0.00  0.00    +0.138 A 
ATOM     13  N   UNL     1      -0.137   3.954   1.073  0.00  0.00    -0.297 N 
ATOM     14  C   UNL     1       0.892   3.076   1.200  0.00  0.00    +0.093 A 
ATOM     15  C   UNL     1       0.655   1.762   1.422  0.00  0.00    +0.018 A 
ATOM     16  C   UNL     1      -0.661   1.293   1.524  0.00  0.00    +0.005 A 
ATOM     17  C   UNL     1      -1.700   2.168   1.397  0.00  0.00    +0.047 A 
ATOM     18  C   UNL     1      -2.070   7.057   0.590  0.00  0.00    +0.068 C 
ENDBRANCH   4   9
BRANCH   2  19
ATOM     19  C   UNL     1       3.650   7.005  -0.657  0.00  0.00    -0.021 A 
ATOM     20  C   UNL     1       4.368   7.305   0.486  0.00  0.00    +0.006 A 
ATOM     21  C   UNL     1       5.582   6.689   0.722  0.00  0.00    +0.002 A 
ATOM     22  C   UNL     1       6.080   5.772  -0.185  0.00  0.00    +0.020 A 
ATOM     23  C   UNL     1       5.362   5.472  -1.329  0.00  0.00    +0.041 A 
ATOM     24  C   UNL     1       4.144   6.085  -1.562  0.00  0.00    +0.025 A 
ATOM     25 CL   UNL     1       5.986   4.320  -2.469  0.00  0.00    -0.084 Cl
ENDBRANCH   2  19
BRANCH   4  26
ATOM     26  O   UNL     1       1.724   6.465   1.737  0.00  0.00    -0.504 OA
ATOM     27  H   UNL     1       1.390   5.983   2.547  0.00  0.00    +0.292 HD
ENDBRANCH   4  26
BRANCH   1  28
ATOM     28  C   UNL     1       3.070   8.864  -3.111  0.00  0.00    +0.090 C 
BRANCH  28  29
ATOM     29  C   UNL     1       4.213   8.040  -3.707  0.00  0.00    -0.060 C 
BRANCH  29  30
ATOM     30  N   UNL     1       5.106   8.941  -4.465  0.00  0.00    +0.380 N 
ATOM     31  H   UNL     1       5.370   9.732  -3.865  0.00  0.00    -0.082 HD
BRANCH  30  33
ATOM     32  C   UNL     1       7.259   8.111  -3.661  0.00  0.00    -0.017 C 
ATOM     33  C   UNL     1       6.329   8.217  -4.871  0.00  0.00    -0.082 C 
ENDBRANCH  30  33
BRANCH  30  34
ATOM     34  C   UNL     1       4.405   9.459  -5.660  0.00  0.00    -0.082 C 
ATOM     35  C   UNL     1       5.190  10.650  -6.212  0.00  0.00    -0.017 C 
ENDBRANCH  30  34
ENDBRANCH  29  30
ENDBRANCH  28  29
ENDBRANCH   1  28
TORSDOF 8
