REMARK  Name = ZINC26608623
REMARK  14 active torsions:
REMARK  status: ('A' for Active; 'I' for Inactive)
REMARK    1  A    between atoms: C_1  and  O_2
REMARK    2  A    between atoms: O_2  and  C_3
REMARK    3  A    between atoms: C_6  and  C_13
REMARK    4  A    between atoms: C_7  and  O_11
REMARK    5  A    between atoms: C_8  and  O_9
REMARK    6  A    between atoms: O_9  and  C_10
REMARK    7  A    between atoms: O_11  and  C_12
REMARK    8  A    between atoms: C_22  and  C_30
REMARK    9  A    between atoms: C_23  and  N_29
REMARK   10  A    between atoms: C_24  and  C_25
REMARK   11  A    between atoms: C_24  and  C_27
REMARK   12  A    between atoms: C_32  and  O_34
REMARK   13  A    between atoms: O_34  and  C_35
REMARK   14  A    between atoms: C_35  and  C_36
REMARK                            x       y       z     vdW  Elec       q    Type
REMARK                         _______ _______ _______ _____ _____    ______ ____
ROOT
ATOM      1  C   UNL     1      -1.184  -0.877  -5.788  0.00  0.00    +0.071 C 
ATOM      2  C   UNL     1      -1.426   0.628  -5.915  0.00  0.00    +0.048 C 
ATOM      3  C   UNL     1      -0.357   1.432  -5.210  0.00  0.00    +0.120 C 
ATOM      4  N   UNL     1      -0.854   1.980  -3.944  0.00  0.00    -0.263 N 
ATOM      5  C   UNL     1      -2.106   2.756  -3.991  0.00  0.00    +0.138 C 
ATOM      6  C   UNL     1      -3.151   1.850  -4.590  0.00  0.00    -0.003 C 
ATOM      7  C   UNL     1      -2.824   0.903  -5.447  0.00  0.00    -0.026 C 
ATOM      8  C   UNL     1      -3.891   0.001  -5.960  0.00  0.00    +0.074 C 
ATOM      9  C   UNL     1      -3.544  -1.168  -6.554  0.00  0.00    +0.054 C 
ATOM     10  C   UNL     1      -2.125  -1.609  -6.753  0.00  0.00    +0.188 C 
ATOM     11  C   UNL     1      -0.196   1.778  -2.785  0.00  0.00    +0.403 C 
ATOM     12  O   UNL     1       0.832   1.130  -2.775  0.00  0.00    -0.226 OA
ENDROOT
BRANCH   1  16
ATOM     13  C   UNL     1       2.863  -1.769  -6.856  0.00  0.00    +0.165 A 
ATOM     14  C   UNL     1       2.042  -1.084  -7.739  0.00  0.00    +0.050 A 
ATOM     15  C   UNL     1       0.735  -0.798  -7.392  0.00  0.00    +0.011 A 
ATOM     16  C   UNL     1       0.241  -1.193  -6.162  0.00  0.00    +0.005 A 
ATOM     17  C   UNL     1       1.057  -1.873  -5.271  0.00  0.00    +0.169 A 
ATOM     18  C   UNL     1       2.370  -2.167  -5.619  0.00  0.00    +0.204 A 
BRANCH  13  20
ATOM     19  C   UNL     1       4.587  -1.610  -8.486  0.00  0.00    +0.277 C 
ATOM     20  O   UNL     1       4.148  -2.050  -7.199  0.00  0.00    -0.491 OA
ENDBRANCH  13  20
BRANCH  18  21
ATOM     21  O   UNL     1       3.172  -2.839  -4.749  0.00  0.00    -0.488 OA
ATOM     22  C   UNL     1       3.932  -2.054  -3.828  0.00  0.00    +0.277 C 
ENDBRANCH  18  21
BRANCH  17  23
ATOM     23  O   UNL     1       0.571  -2.256  -4.060  0.00  0.00    -0.491 OA
ATOM     24  C   UNL     1      -0.036  -3.547  -3.983  0.00  0.00    +0.277 C 
ENDBRANCH  17  23
ENDBRANCH   1  16
BRANCH   9  25
ATOM     25  N   UNL     1      -4.543  -1.989  -6.996  0.00  0.00    -0.358 N 
ATOM     26  H   UNL     1      -4.296  -2.944  -7.483  0.00  0.00    +0.142 HD
ATOM     27  H   UNL     1      -5.595  -1.695  -6.866  0.00  0.00    +0.142 HD
ENDBRANCH   9  25
BRANCH  10  28
ATOM     28  C   UNL     1      -2.032  -3.056  -6.503  0.00  0.00    +0.091 C 
ATOM     29  N   UNL     1      -1.960  -4.173  -6.310  0.00  0.00    -0.194 NA
ENDBRANCH  10  28
BRANCH  10  30
ATOM     30  C   UNL     1      -1.728  -1.335  -8.144  0.00  0.00    +0.091 C 
ATOM     31  N   UNL     1      -1.421  -1.124  -9.217  0.00  0.00    -0.194 NA
ENDBRANCH  10  30
BRANCH   8  32
ATOM     32  C   UNL     1      -5.270   0.363  -5.827  0.00  0.00    +0.101 C 
ATOM     33  N   UNL     1      -6.364   0.651  -5.722  0.00  0.00    -0.191 NA
ENDBRANCH   8  32
BRANCH  11  34
ATOM     34  O   UNL     1      -0.678   2.295  -1.639  0.00  0.00    -0.445 OA
BRANCH  34  35
ATOM     35  C   UNL     1       0.083   2.037  -0.429  0.00  0.00    +0.269 C 
BRANCH  35  36
ATOM     36  C   UNL     1      -0.604   2.688   0.744  0.00  0.00    -0.010 A 
ATOM     37  C   UNL     1      -0.282   3.984   1.101  0.00  0.00    +0.007 A 
ATOM     38  C   UNL     1      -0.915   4.583   2.174  0.00  0.00    +0.000 A 
ATOM     39  C   UNL     1      -1.863   3.882   2.896  0.00  0.00    +0.000 A 
ATOM     40  C   UNL     1      -2.180   2.584   2.543  0.00  0.00    +0.000 A 
ATOM     41  C   UNL     1      -1.551   1.987   1.467  0.00  0.00    +0.007 A 
ENDBRANCH  35  36
ENDBRANCH  34  35
ENDBRANCH  11  34
TORSDOF 11
