REMARK  Name = ZINC09493573
REMARK  9 active torsions:
REMARK  status: ('A' for Active; 'I' for Inactive)
REMARK    1  A    between atoms: C_1  and  C_2
REMARK    2  A    between atoms: C_2  and  O_3
REMARK    3  A    between atoms: O_3  and  C_4
REMARK    4  A    between atoms: C_4  and  C_6
REMARK    5  A    between atoms: C_7  and  C_15
REMARK    6  A    between atoms: C_12  and  C_14
REMARK    7  A    between atoms: C_15  and  S_16
REMARK    8  A    between atoms: S_16  and  C_17
REMARK    9  A    between atoms: C_24  and  C_26
REMARK                            x       y       z     vdW  Elec       q    Type
REMARK                         _______ _______ _______ _____ _____    ______ ____
ROOT
ATOM      1  C   UNL     1       2.215  -2.553   3.112  0.00  0.00    +0.127 C 
ENDROOT
BRANCH   1   3
ATOM      2  C   UNL     1       4.333  -2.780   1.863  0.00  0.00    +0.074 C 
ATOM      3  C   UNL     1       3.064  -3.203   2.050  0.00  0.00    +0.034 C 
ATOM      4  N   UNL     1       2.540  -4.213   1.296  0.00  0.00    -0.272 N 
ATOM      5  C   UNL     1       3.216  -4.845   0.328  0.00  0.00    +0.304 C 
ATOM      6  O   UNL     1       2.662  -5.730  -0.295  0.00  0.00    -0.253 OA
ATOM      7  N   UNL     1       4.492  -4.535   0.024  0.00  0.00    -0.292 N 
ATOM      8  C   UNL     1       5.152  -3.460   0.785  0.00  0.00    +0.110 C 
ATOM      9  C   UNL     1       5.605  -2.390  -0.210  0.00  0.00    +0.033 C 
ATOM     10  H   UNL     1       1.625  -4.486   1.468  0.00  0.00    +0.156 HD
ATOM     11  H   UNL     1       4.964  -5.008  -0.679  0.00  0.00    +0.151 HD
BRANCH   2  12
ATOM     12  C   UNL     1       4.879  -1.737   2.647  0.00  0.00    +0.338 C 
ATOM     13  O   UNL     1       4.165  -1.109   3.406  0.00  0.00    -0.245 OA
BRANCH  12  14
ATOM     14  O   UNL     1       6.192  -1.439   2.553  0.00  0.00    -0.462 OA
BRANCH  14  16
ATOM     15  C   UNL     1       8.175  -0.184   3.133  0.00  0.00    +0.048 C 
ATOM     16  C   UNL     1       6.676  -0.374   3.375  0.00  0.00    +0.229 C 
ENDBRANCH  14  16
ENDBRANCH  12  14
ENDBRANCH   2  12
ENDBRANCH   1   3
BRANCH   1  17
ATOM     17  S   UNL     1       1.120  -1.333   2.346  0.00  0.00    -0.099 S 
BRANCH  17  18
ATOM     18  C   UNL     1       0.269  -0.747   3.773  0.00  0.00    +0.109 A 
ATOM     19  C   UNL     1      -0.736   0.261   3.695  0.00  0.00    +0.043 A 
ATOM     20  C   UNL     1      -1.207   0.940   2.500  0.00  0.00    -0.025 A 
ATOM     21  C   UNL     1      -2.179   1.868   2.668  0.00  0.00    -0.004 A 
ATOM     22  S   UNL     1      -2.513   1.882   4.412  0.00  0.00    -0.073 S 
ATOM     23  C   UNL     1      -1.349   0.649   4.913  0.00  0.00    +0.113 A 
ATOM     24  N   UNL     1      -1.032   0.127   6.082  0.00  0.00    -0.225 NA
ATOM     25  C   UNL     1      -0.089  -0.807   6.085  0.00  0.00    +0.128 A 
ATOM     26  N   UNL     1       0.524  -1.219   4.993  0.00  0.00    -0.225 NA
ATOM     27  C   UNL     1       0.301  -1.428   7.401  0.00  0.00    +0.088 C 
ATOM     28  C   UNL     1      -2.830   2.703   1.610  0.00  0.00    +0.043 C 
ATOM     29  C   UNL     1      -1.978   2.625   0.335  0.00  0.00    +0.005 C 
ATOM     30  C   UNL     1      -1.643   1.156   0.060  0.00  0.00    +0.005 C 
ATOM     31  C   UNL     1      -0.655   0.644   1.108  0.00  0.00    +0.037 C 
ENDBRANCH  17  18
ENDBRANCH   1  17
TORSDOF 6
