REMARK  Name = ZINC39686115
REMARK  10 active torsions:
REMARK  status: ('A' for Active; 'I' for Inactive)
REMARK    1  A    between atoms: C_1  and  C_2
REMARK    2  A    between atoms: C_2  and  C_3
REMARK    3  A    between atoms: C_2  and  C_4
REMARK    4  A    between atoms: C_9  and  N_12
REMARK    5  A    between atoms: C_13  and  C_15
REMARK    6  A    between atoms: C_26  and  C_28
REMARK    7  A    between atoms: C_28  and  C_29
REMARK    8  A    between atoms: C_29  and  C_30
REMARK    9  A    between atoms: C_33  and  O_36
REMARK   10  A    between atoms: O_36  and  C_37
REMARK                            x       y       z     vdW  Elec       q    Type
REMARK                         _______ _______ _______ _____ _____    ______ ____
ROOT
ATOM      1  C   UNL     1      -2.738  -7.305   3.522  0.00  0.00    +0.100 C 
ATOM      2  C   UNL     1      -3.253  -6.525   4.753  0.00  0.00    +0.121 C 
ATOM      3  N   UNL     1      -4.704  -6.822   4.804  0.00  0.00    -0.300 N 
ATOM      4  C   UNL     1      -4.799  -8.256   4.440  0.00  0.00    +0.115 C 
ATOM      5  C   UNL     1      -3.753  -8.442   3.322  0.00  0.00    -0.004 C 
ATOM      6  C   UNL     1      -3.064  -9.796   3.464  0.00  0.00    -0.010 C 
ATOM      7  C   UNL     1      -4.081 -10.911   3.203  0.00  0.00    -0.082 C 
ATOM      8  N   UNL     1      -4.639 -10.762   1.854  0.00  0.00    +0.379 N 
ATOM      9  C   UNL     1      -5.379  -9.498   1.755  0.00  0.00    -0.082 C 
ATOM     10  C   UNL     1      -4.417  -8.324   1.954  0.00  0.00    -0.010 C 
ATOM     11  C   UNL     1      -5.709  -5.980   5.113  0.00  0.00    +0.216 C 
ATOM     12  O   UNL     1      -6.855  -6.378   5.112  0.00  0.00    -0.276 OA
ATOM     13  H   UNL     1      -3.889 -10.764   1.179  0.00  0.00    -0.086 HD
ATOM     14  H   UNL     1      -5.262 -11.531   1.662  0.00  0.00    -0.086 HD
ENDROOT
BRANCH   1  16
ATOM     15  N   UNL     1      -1.792  -6.619   1.342  0.00  0.00    -0.312 N 
ATOM     16  C   UNL     1      -2.707  -6.410   2.309  0.00  0.00    +0.218 C 
ATOM     17  O   UNL     1      -3.505  -5.503   2.204  0.00  0.00    -0.275 OA
ATOM     18  H   UNL     1      -1.153  -7.344   1.426  0.00  0.00    +0.149 HD
BRANCH  15  24
ATOM     19  C   UNL     1       0.560  -3.881  -2.664  0.00  0.00    +0.218 C 
ATOM     20  O   UNL     1       1.167  -2.889  -2.322  0.00  0.00    -0.275 OA
ATOM     21  N   UNL     1      -0.464  -4.336  -1.915  0.00  0.00    -0.301 N 
ATOM     22  C   UNL     1      -1.130  -5.603  -2.249  0.00  0.00    +0.109 C 
ATOM     23  C   UNL     1      -1.129  -6.502  -1.010  0.00  0.00    +0.041 C 
ATOM     24  C   UNL     1      -1.761  -5.749   0.163  0.00  0.00    +0.076 C 
ATOM     25  C   UNL     1      -0.936  -4.498   0.473  0.00  0.00    +0.041 C 
ATOM     26  C   UNL     1      -0.931  -3.579  -0.746  0.00  0.00    +0.109 C 
BRANCH  19  28
ATOM     27  C   UNL     1       1.637  -3.628  -4.883  0.00  0.00    +0.017 C 
ATOM     28  C   UNL     1       0.950  -4.605  -3.927  0.00  0.00    +0.069 C 
ATOM     29  C   UNL     1       1.912  -5.745  -3.585  0.00  0.00    +0.017 C 
ENDBRANCH  19  28
ENDBRANCH  15  24
ENDBRANCH   1  16
BRANCH  11  30
ATOM     30  C   UNL     1      -5.410  -4.544   5.460  0.00  0.00    +0.100 C 
BRANCH  30  31
ATOM     31  C   UNL     1      -6.717  -3.811   5.768  0.00  0.00    +0.044 C 
BRANCH  31  32
ATOM     32  C   UNL     1      -6.418  -2.375   6.114  0.00  0.00    -0.047 A 
ATOM     33  C   UNL     1      -6.172  -2.019   7.428  0.00  0.00    +0.007 A 
ATOM     34  C   UNL     1      -5.897  -0.704   7.748  0.00  0.00    +0.046 A 
ATOM     35  C   UNL     1      -5.869   0.261   6.751  0.00  0.00    +0.120 A 
ATOM     36  C   UNL     1      -6.115  -0.099   5.434  0.00  0.00    +0.046 A 
ATOM     37  C   UNL     1      -6.384  -1.417   5.118  0.00  0.00    +0.007 A 
BRANCH  35  38
ATOM     38  O   UNL     1      -5.599   1.555   7.064  0.00  0.00    -0.495 OA
ATOM     39  C   UNL     1      -5.586   2.494   5.986  0.00  0.00    +0.277 C 
ENDBRANCH  35  38
ENDBRANCH  31  32
ENDBRANCH  30  31
ENDBRANCH  11  30
TORSDOF 7
