REMARK  Name = ZINC34905716
REMARK  13 active torsions:
REMARK  status: ('A' for Active; 'I' for Inactive)
REMARK    1  A    between atoms: C_1  and  C_2
REMARK    2  A    between atoms: C_2  and  C_3
REMARK    3  A    between atoms: C_2  and  C_4
REMARK    4  A    between atoms: C_2  and  C_5
REMARK    5  A    between atoms: C_8  and  C_11
REMARK    6  A    between atoms: N_13  and  C_14
REMARK    7  A    between atoms: C_17  and  N_20
REMARK    8  A    between atoms: C_21  and  C_23
REMARK    9  A    between atoms: C_26  and  C_28
REMARK   10  A    between atoms: C_28  and  O_29
REMARK   11  A    between atoms: O_29  and  C_30
REMARK   12  A    between atoms: C_35  and  O_36
REMARK   13  A    between atoms: O_36  and  C_37
REMARK                            x       y       z     vdW  Elec       q    Type
REMARK                         _______ _______ _______ _____ _____    ______ ____
ROOT
ATOM      1  C   UNL     1       4.667  -1.994  -6.158  0.00  0.00    +0.073 C 
ATOM      2  C   UNL     1       5.233  -3.393  -5.907  0.00  0.00    +0.024 C 
ATOM      3  C   UNL     1       5.949  -3.886  -7.166  0.00  0.00    +0.024 C 
ATOM      4  C   UNL     1       7.091  -2.929  -7.512  0.00  0.00    +0.073 C 
ATOM      5  C   UNL     1       6.525  -1.530  -7.763  0.00  0.00    +0.024 C 
ATOM      6  C   UNL     1       5.809  -1.036  -6.504  0.00  0.00    +0.024 C 
ENDROOT
BRANCH   1   9
ATOM      7  C   UNL     1       2.696  -1.860  -4.732  0.00  0.00    +0.244 C 
ATOM      8  O   UNL     1       2.106  -2.559  -5.533  0.00  0.00    -0.270 OA
ATOM      9  N   UNL     1       3.981  -1.521  -4.953  0.00  0.00    -0.308 N 
ATOM     10  H   UNL     1       4.452  -0.963  -4.314  0.00  0.00    +0.149 HD
BRANCH   7  14
ATOM     11  C   UNL     1       0.707  -0.490  -1.238  0.00  0.00    -0.042 A 
ATOM     12  C   UNL     1       0.033  -1.285  -2.147  0.00  0.00    +0.005 A 
ATOM     13  C   UNL     1       0.672  -1.733  -3.284  0.00  0.00    +0.013 A 
ATOM     14  C   UNL     1       2.004  -1.383  -3.516  0.00  0.00    +0.037 A 
ATOM     15  C   UNL     1       2.679  -0.581  -2.595  0.00  0.00    +0.013 A 
ATOM     16  C   UNL     1       2.025  -0.135  -1.464  0.00  0.00    +0.005 A 
BRANCH  11  18
ATOM     17  C   UNL     1      -0.019   1.526   0.010  0.00  0.00    +0.015 C 
ATOM     18  C   UNL     1       0.002  -0.004   0.002  0.00  0.00    -0.013 C 
ATOM     19  C   UNL     1       0.742  -0.511   1.242  0.00  0.00    +0.015 C 
ATOM     20  C   UNL     1      -1.433  -0.534   0.013  0.00  0.00    +0.015 C 
ENDBRANCH  11  18
ENDBRANCH   7  14
ENDBRANCH   1   9
BRANCH   4  21
ATOM     21  N   UNL     1       7.777  -3.401  -8.717  0.00  0.00    -0.307 N 
ATOM     22  C   UNL     1       9.063  -3.062  -8.938  0.00  0.00    +0.263 C 
ATOM     23  O   UNL     1       9.653  -2.362  -8.137  0.00  0.00    -0.269 OA
ATOM     24  H   UNL     1       7.306  -3.959  -9.356  0.00  0.00    +0.149 HD
BRANCH  22  25
ATOM     25  C   UNL     1       9.752  -3.537 -10.149  0.00  0.00    +0.133 A 
ATOM     26  C   UNL     1      11.058  -3.221 -10.411  0.00  0.00    +0.080 A 
ATOM     27  S   UNL     1      11.332  -3.998 -11.875  0.00  0.00    -0.076 S 
ATOM     28  C   UNL     1       9.818  -4.684 -12.106  0.00  0.00    +0.116 A 
ATOM     29  N   UNL     1       9.141  -4.307 -11.055  0.00  0.00    -0.236 NA
BRANCH  28  30
ATOM     30  C   UNL     1       9.350  -5.541 -13.254  0.00  0.00    +0.292 C 
BRANCH  30  31
ATOM     31  O   UNL     1       8.803  -4.707 -14.278  0.00  0.00    -0.482 OA
BRANCH  31  32
ATOM     32  C   UNL     1       8.332  -5.328 -15.393  0.00  0.00    +0.162 A 
ATOM     33  C   UNL     1       8.390  -6.708 -15.496  0.00  0.00    +0.049 A 
ATOM     34  C   UNL     1       7.910  -7.337 -16.630  0.00  0.00    +0.004 A 
ATOM     35  C   UNL     1       7.373  -6.592 -17.663  0.00  0.00    +0.004 A 
ATOM     36  C   UNL     1       7.312  -5.214 -17.566  0.00  0.00    +0.049 A 
ATOM     37  C   UNL     1       7.786  -4.578 -16.430  0.00  0.00    +0.162 A 
BRANCH  37  38
ATOM     38  O   UNL     1       7.722  -3.223 -16.331  0.00  0.00    -0.491 OA
ATOM     39  C   UNL     1       7.148  -2.518 -17.434  0.00  0.00    +0.277 C 
ENDBRANCH  37  38
ENDBRANCH  31  32
ENDBRANCH  30  31
ENDBRANCH  28  30
ENDBRANCH  22  25
ENDBRANCH   4  21
TORSDOF 9
