REMARK  Name = ZINC18256286
REMARK  2 active torsions:
REMARK  status: ('A' for Active; 'I' for Inactive)
REMARK    1  A    between atoms: C_4  and  N_10
REMARK    2  A    between atoms: C_6  and  N_7
REMARK                            x       y       z     vdW  Elec       q    Type
REMARK                         _______ _______ _______ _____ _____    ______ ____
ROOT
ATOM      1  N   UNL     1       3.624  -0.655  -0.037  0.00  0.00    -0.208 N 
ATOM      2  C   UNL     1       4.300  -1.039   1.096  0.00  0.00    +0.233 C 
ATOM      3  O   UNL     1       3.863  -1.131   2.223  0.00  0.00    -0.274 OA
ATOM      4  C   UNL     1       5.703  -1.319   0.628  0.00  0.00    +0.123 C 
ATOM      5  C   UNL     1       6.511  -2.510   1.138  0.00  0.00    +0.154 C 
ATOM      6  C   UNL     1       5.819  -3.847   1.057  0.00  0.00    +0.003 C 
ATOM      7  C   UNL     1       5.738  -4.231  -0.211  0.00  0.00    +0.003 C 
ATOM      8  C   UNL     1       6.284  -3.007  -1.011  0.00  0.00    +0.154 C 
ATOM      9  C   UNL     1       5.208  -2.008  -0.714  0.00  0.00    +0.123 C 
ATOM     10  C   UNL     1       4.285  -1.025  -1.197  0.00  0.00    +0.233 C 
ATOM     11  O   UNL     1       4.126  -0.620  -2.328  0.00  0.00    -0.274 OA
ATOM     12  O   UNL     1       7.386  -2.639  -0.061  0.00  0.00    -0.364 OA
ENDROOT
BRANCH   1  16
ATOM     13  C   UNL     1      -0.017   1.378   0.010  0.00  0.00    +0.034 A 
ATOM     14  C   UNL     1       1.170   2.089   0.002  0.00  0.00    +0.024 A 
ATOM     15  C   UNL     1       2.378   1.418  -0.013  0.00  0.00    +0.063 A 
ATOM     16  C   UNL     1       2.399   0.029  -0.021  0.00  0.00    +0.064 A 
ATOM     17  C   UNL     1       1.207  -0.680  -0.013  0.00  0.00    +0.058 A 
ATOM     18  C   UNL     1       0.002  -0.004   0.002  0.00  0.00    +0.128 A 
ATOM     19 CL   UNL     1       3.867   2.311  -0.023  0.00  0.00    -0.082 Cl
BRANCH  18  20
ATOM     20  N   UNL     1      -1.270  -0.761   0.011  0.00  0.00    +0.056 N 
ATOM     21  O   UNL     1      -2.325  -0.170   0.024  0.00  0.00    -0.126 OA
ATOM     22  O   UNL     1      -1.255  -1.969   0.004  0.00  0.00    -0.126 OA
ENDBRANCH  18  20
ENDBRANCH   1  16
TORSDOF 2
