REMARK  Name = ZINC08790065
REMARK  8 active torsions:
REMARK  status: ('A' for Active; 'I' for Inactive)
REMARK    1  A    between atoms: C_1  and  O_2
REMARK    2  A    between atoms: O_2  and  C_3
REMARK    3  A    between atoms: C_6  and  C_9
REMARK    4  A    between atoms: C_9  and  N_10
REMARK    5  A    between atoms: C_15  and  C_31
REMARK    6  A    between atoms: C_31  and  C_32
REMARK    7  A    between atoms: C_35  and  O_39
REMARK    8  A    between atoms: C_36  and  O_38
REMARK                            x       y       z     vdW  Elec       q    Type
REMARK                         _______ _______ _______ _____ _____    ______ ____
ROOT
ATOM      1  N   UNL     1       2.170   5.933  -2.249  0.00  0.00    -0.237 N 
ATOM      2  C   UNL     1       1.378   6.627  -1.423  0.00  0.00    +0.224 C 
ATOM      3  O   UNL     1       1.375   7.833  -1.304  0.00  0.00    -0.275 OA
ATOM      4  C   UNL     1       0.487   5.671  -0.661  0.00  0.00    +0.073 C 
ATOM      5  C   UNL     1       0.910   5.661   0.823  0.00  0.00    -0.053 C 
ATOM      6  C   UNL     1       1.496   3.550   0.010  0.00  0.00    +0.050 C 
ATOM      7  C   UNL     1       0.892   4.271  -1.201  0.00  0.00    +0.088 C 
ATOM      8  C   UNL     1       1.991   4.608  -2.207  0.00  0.00    +0.225 C 
ATOM      9  O   UNL     1       2.603   3.798  -2.870  0.00  0.00    -0.275 OA
ATOM     10  C   UNL     1       1.166   2.085   0.002  0.00  0.00    -0.028 A 
ATOM     11  C   UNL     1      -0.017   1.379   0.010  0.00  0.00    +0.004 A 
ATOM     12  C   UNL     1       0.002  -0.004   0.002  0.00  0.00    +0.000 A 
ATOM     13  C   UNL     1       1.211  -0.676  -0.013  0.00  0.00    +0.002 A 
ATOM     14  C   UNL     1       2.398   0.026  -0.022  0.00  0.00    +0.023 A 
ATOM     15  C   UNL     1       2.388   1.419  -0.014  0.00  0.00    +0.036 A 
ATOM     16  N   UNL     1       3.439   2.339  -0.020  0.00  0.00    -0.286 N 
ATOM     17  C   UNL     1       2.999   3.612  -0.007  0.00  0.00    +0.211 C 
ATOM     18  O   UNL     1       3.683   4.615  -0.007  0.00  0.00    -0.277 OA
ATOM     19  H   UNL     1       4.376   2.090  -0.033  0.00  0.00    +0.155 HD
ATOM     20  N   UNL     1       0.954   4.238   1.169  0.00  0.00    +0.394 N 
ATOM     21  H   UNL     1       0.008   3.894   1.375  0.00  0.00    -0.083 HD
ATOM     22  H   UNL     1       1.558   4.089   1.985  0.00  0.00    -0.083 HD
ENDROOT
BRANCH   1  23
ATOM     23  C   UNL     1       3.152   6.573  -3.127  0.00  0.00    +0.151 C 
BRANCH  23  27
ATOM     24  C   UNL     1       6.886   6.914  -1.077  0.00  0.00    +0.120 A 
ATOM     25  C   UNL     1       6.607   5.781  -1.828  0.00  0.00    +0.046 A 
ATOM     26  C   UNL     1       5.399   5.674  -2.490  0.00  0.00    +0.009 A 
ATOM     27  C   UNL     1       4.469   6.693  -2.404  0.00  0.00    -0.029 A 
ATOM     28  C   UNL     1       4.747   7.825  -1.661  0.00  0.00    +0.009 A 
ATOM     29  C   UNL     1       5.952   7.935  -0.993  0.00  0.00    +0.046 A 
BRANCH  24  31
ATOM     30  C   UNL     1       8.293   8.216   0.330  0.00  0.00    +0.277 C 
ATOM     31  O   UNL     1       8.074   7.022  -0.425  0.00  0.00    -0.495 OA
ENDBRANCH  24  31
ENDBRANCH  23  27
ENDBRANCH   1  23
BRANCH   5  32
ATOM     32  C   UNL     1      -0.116   6.411   1.675  0.00  0.00    +0.020 C 
BRANCH  32  33
ATOM     33  C   UNL     1       0.339   6.428   3.111  0.00  0.00    -0.045 A 
ATOM     34  C   UNL     1       1.133   7.462   3.571  0.00  0.00    +0.007 A 
ATOM     35  C   UNL     1       1.554   7.482   4.888  0.00  0.00    +0.049 A 
ATOM     36  C   UNL     1       1.179   6.465   5.750  0.00  0.00    +0.158 A 
ATOM     37  C   UNL     1       0.379   5.424   5.288  0.00  0.00    +0.158 A 
ATOM     38  C   UNL     1      -0.043   5.412   3.968  0.00  0.00    +0.052 A 
BRANCH  37  39
ATOM     39  O   UNL     1       0.008   4.423   6.131  0.00  0.00    -0.503 OA
ATOM     40  H   UNL     1      -0.822   4.590   6.598  0.00  0.00    +0.292 HD
ENDBRANCH  37  39
BRANCH  36  41
ATOM     41  O   UNL     1       1.592   6.483   7.046  0.00  0.00    -0.503 OA
ATOM     42  H   UNL     1       0.989   6.945   7.644  0.00  0.00    +0.292 HD
ENDBRANCH  36  41
ENDBRANCH  32  33
ENDBRANCH   5  32
TORSDOF 7
