REMARK  Name = ZINC39287406
REMARK  9 active torsions:
REMARK  status: ('A' for Active; 'I' for Inactive)
REMARK    1  A    between atoms: C_1  and  C_2
REMARK    2  A    between atoms: C_4  and  C_16
REMARK    3  A    between atoms: C_6  and  C_14
REMARK    4  A    between atoms: C_7  and  N_13
REMARK    5  A    between atoms: C_18  and  O_27
REMARK    6  A    between atoms: C_19  and  O_23
REMARK    7  A    between atoms: O_23  and  C_24
REMARK    8  A    between atoms: C_24  and  C_25
REMARK    9  A    between atoms: O_27  and  C_28
REMARK                            x       y       z     vdW  Elec       q    Type
REMARK                         _______ _______ _______ _____ _____    ______ ____
ROOT
ATOM      1  C   UNL     1      -0.018   1.503   0.010  0.00  0.00    +0.067 C 
ATOM      2  C   UNL     1       0.002  -0.004   0.002  0.00  0.00    +0.066 C 
ATOM      3  C   UNL     1      -1.064  -0.768   0.003  0.00  0.00    +0.030 C 
ATOM      4  C   UNL     1      -2.537  -0.492  -0.122  0.00  0.00    +0.098 C 
ATOM      5  C   UNL     1      -3.075  -1.565  -1.050  0.00  0.00    +0.097 C 
ATOM      6  C   UNL     1      -2.317  -2.612  -1.438  0.00  0.00    +0.195 C 
ATOM      7  O   UNL     1      -1.033  -2.841  -1.107  0.00  0.00    -0.448 OA
ATOM      8  C   UNL     1      -0.528  -2.199   0.066  0.00  0.00    +0.343 C 
ATOM      9  N   UNL     1       0.921  -1.985   0.002  0.00  0.00    -0.138 NA
ATOM     10  N   UNL     1       1.127  -0.765  -0.013  0.00  0.00    -0.155 NA
ENDROOT
BRANCH   4  11
ATOM     11  C   UNL     1      -2.762   0.875  -0.717  0.00  0.00    -0.030 A 
ATOM     12  C   UNL     1      -3.456   1.833  -0.001  0.00  0.00    +0.054 A 
ATOM     13  C   UNL     1      -3.664   3.089  -0.545  0.00  0.00    +0.163 A 
ATOM     14  C   UNL     1      -3.173   3.385  -1.813  0.00  0.00    +0.177 A 
ATOM     15  C   UNL     1      -2.478   2.421  -2.526  0.00  0.00    +0.063 A 
ATOM     16  C   UNL     1      -2.270   1.169  -1.974  0.00  0.00    +0.023 A 
ATOM     17 BR   UNL     1      -1.809   2.818  -4.249  0.00  0.00    -0.046 Br
BRANCH  13  18
ATOM     18  O   UNL     1      -4.348   4.032   0.158  0.00  0.00    -0.491 OA
ATOM     19  C   UNL     1      -4.823   3.658   1.452  0.00  0.00    +0.277 C 
ENDBRANCH  13  18
BRANCH  14  20
ATOM     20  O   UNL     1      -3.376   4.617  -2.352  0.00  0.00    -0.475 OA
BRANCH  20  21
ATOM     21  C   UNL     1      -2.381   5.610  -2.092  0.00  0.00    +0.317 C 
BRANCH  21  22
ATOM     22  C   UNL     1      -2.764   6.871  -2.749  0.00  0.00    -0.065 C 
ATOM     23  C   UNL     1      -3.068   7.877  -3.272  0.00  0.00    +0.007 C 
ENDBRANCH  21  22
ENDBRANCH  20  21
ENDBRANCH  14  20
ENDBRANCH   4  11
BRANCH   6  24
ATOM     24  N   UNL     1      -2.917  -3.538  -2.254  0.00  0.00    -0.329 N 
ATOM     25  H   UNL     1      -3.842  -3.421  -2.523  0.00  0.00    +0.145 HD
ATOM     26  H   UNL     1      -2.417  -4.310  -2.562  0.00  0.00    +0.145 HD
ENDBRANCH   6  24
BRANCH   5  27
ATOM     27  C   UNL     1      -4.422  -1.466  -1.525  0.00  0.00    +0.101 C 
ATOM     28  N   UNL     1      -5.491  -1.387  -1.903  0.00  0.00    -0.191 NA
ENDBRANCH   5  27
TORSDOF 7
