REMARK  Name = ZINC63980075
REMARK  2 active torsions:
REMARK  status: ('A' for Active; 'I' for Inactive)
REMARK    1  A    between atoms: C_1  and  C_2
REMARK    2  A    between atoms: N_20  and  C_23
REMARK                            x       y       z     vdW  Elec       q    Type
REMARK                         _______ _______ _______ _____ _____    ______ ____
ROOT
ATOM      1  C   UNL     1      -0.128   1.522   0.085  0.00  0.00    +0.030 C 
ATOM      2  C   UNL     1      -0.059  -0.006   0.043  0.00  0.00    +0.099 C 
ATOM      3  C   UNL     1       0.683  -0.463  -1.222  0.00  0.00    +0.126 C 
ATOM      4  C   UNL     1       1.046  -1.928  -1.021  0.00  0.00    -0.035 C 
ATOM      5  C   UNL     1       0.509  -2.590  -2.041  0.00  0.00    -0.001 A 
ATOM      6  C   UNL     1       0.568  -4.009  -2.426  0.00  0.00    +0.010 A 
ATOM      7  C   UNL     1      -0.119  -4.355  -3.547  0.00  0.00    +0.001 A 
ATOM      8  C   UNL     1      -0.849  -3.442  -4.314  0.00  0.00    +0.002 A 
ATOM      9  C   UNL     1      -0.955  -2.118  -4.036  0.00  0.00    +0.026 A 
ATOM     10  C   UNL     1      -0.272  -1.633  -2.882  0.00  0.00    +0.043 A 
ATOM     11  N   UNL     1      -0.186  -0.407  -2.400  0.00  0.00    -0.376 N 
ATOM     12  C   UNL     1       1.811  -2.435   0.180  0.00  0.00    +0.065 C 
ATOM     13  C   UNL     1       1.065  -1.920   1.423  0.00  0.00    +0.166 C 
ATOM     14  N   UNL     1       0.708  -0.505   1.193  0.00  0.00    -0.295 N 
ATOM     15  C   UNL     1       1.236   0.197   2.203  0.00  0.00    +0.147 C 
ATOM     16  S   UNL     1       0.951   1.865   2.459  0.00  0.00    -0.018 S 
ATOM     17  N   UNL     1       2.013  -0.559   2.992  0.00  0.00    -0.220 N 
ATOM     18  C   UNL     1       2.006  -1.874   2.607  0.00  0.00    +0.246 C 
ATOM     19  O   UNL     1       2.614  -2.802   3.095  0.00  0.00    -0.273 OA
ATOM     20  H   UNL     1      -0.619   0.388  -2.748  0.00  0.00    +0.160 HD
ENDROOT
BRANCH  17  21
ATOM     21  C   UNL     1       2.741  -0.067   4.085  0.00  0.00    +0.043 A 
ATOM     22  C   UNL     1       3.803   0.803   3.878  0.00  0.00    +0.025 A 
ATOM     23  C   UNL     1       4.518   1.286   4.956  0.00  0.00    +0.022 A 
ATOM     24  C   UNL     1       4.178   0.903   6.241  0.00  0.00    +0.041 A 
ATOM     25  C   UNL     1       3.119   0.036   6.450  0.00  0.00    +0.022 A 
ATOM     26  C   UNL     1       2.397  -0.445   5.376  0.00  0.00    +0.025 A 
ATOM     27 CL   UNL     1       5.080   1.511   7.594  0.00  0.00    -0.084 Cl
ENDBRANCH  17  21
TORSDOF 1
