REMARK  Name = ZINC09304253
REMARK  11 active torsions:
REMARK  status: ('A' for Active; 'I' for Inactive)
REMARK    1  A    between atoms: C_1  and  C_2
REMARK    2  A    between atoms: C_3  and  C_34
REMARK    3  A    between atoms: N_4  and  C_30
REMARK    4  A    between atoms: C_9  and  C_14
REMARK    5  A    between atoms: C_14  and  C_16
REMARK    6  A    between atoms: C_14  and  N_19
REMARK    7  A    between atoms: C_16  and  C_17
REMARK    8  A    between atoms: C_16  and  C_18
REMARK    9  A    between atoms: C_30  and  C_31
REMARK   10  A    between atoms: C_31  and  C_32
REMARK   11  A    between atoms: C_31  and  C_33
REMARK                            x       y       z     vdW  Elec       q    Type
REMARK                         _______ _______ _______ _____ _____    ______ ____
ROOT
ATOM      1  C   UNL     1      -6.006  -0.888   4.125  0.00  0.00    +0.046 C 
ATOM      2  C   UNL     1      -6.006   0.502   4.706  0.00  0.00    -0.017 A 
ATOM      3  C   UNL     1      -6.654   0.909   5.814  0.00  0.00    +0.021 A 
ATOM      4  N   UNL     1      -6.415   2.240   6.023  0.00  0.00    -0.329 N 
ATOM      5  C   UNL     1      -5.596   2.730   5.042  0.00  0.00    +0.146 A 
ATOM      6  C   UNL     1      -5.306   1.666   4.178  0.00  0.00    +0.066 A 
ATOM      7  C   UNL     1      -4.440   1.923   3.034  0.00  0.00    +0.169 A 
ATOM      8  N   UNL     1      -3.969   1.194   2.039  0.00  0.00    -0.209 NA
ATOM      9  C   UNL     1      -3.204   1.946   1.256  0.00  0.00    +0.173 A 
ATOM     10  N   UNL     1      -3.170   3.172   1.720  0.00  0.00    -0.147 NA
ATOM     11  N   UNL     1      -3.962   3.198   2.875  0.00  0.00    -0.201 N 
ATOM     12  C   UNL     1      -4.300   4.164   3.768  0.00  0.00    +0.227 A 
ATOM     13  N   UNL     1      -5.073   3.939   4.790  0.00  0.00    -0.218 NA
ATOM     14  C   UNL     1      -7.513   0.033   6.689  0.00  0.00    +0.064 C 
ENDROOT
BRANCH   9  15
ATOM     15  C   UNL     1      -2.489   1.465   0.020  0.00  0.00    +0.157 C 
BRANCH  15  16
ATOM     16  N   UNL     1      -1.117   1.980   0.018  0.00  0.00    -0.223 N 
ATOM     17  C   UNL     1      -0.014   1.210   0.009  0.00  0.00    +0.254 C 
ATOM     18  O   UNL     1       0.002  -0.004   0.002  0.00  0.00    -0.270 OA
ATOM     19  C   UNL     1       1.174   2.089   0.002  0.00  0.00    +0.049 A 
ATOM     20  C   UNL     1       2.542   1.867  -0.012  0.00  0.00    +0.014 A 
ATOM     21  C   UNL     1       3.413   2.946  -0.014  0.00  0.00    +0.001 A 
ATOM     22  C   UNL     1       2.926   4.239  -0.002  0.00  0.00    +0.001 A 
ATOM     23  C   UNL     1       1.561   4.477   0.012  0.00  0.00    +0.014 A 
ATOM     24  C   UNL     1       0.678   3.409   0.014  0.00  0.00    +0.049 A 
ATOM     25  C   UNL     1      -0.795   3.287   0.027  0.00  0.00    +0.254 C 
ATOM     26  O   UNL     1      -1.583   4.211   0.039  0.00  0.00    -0.270 OA
ENDBRANCH  15  16
BRANCH  15  27
ATOM     27  C   UNL     1      -3.225   1.968  -1.223  0.00  0.00    +0.011 C 
ATOM     28  C   UNL     1      -2.498   1.479  -2.478  0.00  0.00    +0.009 C 
ATOM     29  C   UNL     1      -4.657   1.429  -1.221  0.00  0.00    +0.009 C 
ENDBRANCH  15  27
ENDBRANCH   9  15
BRANCH   4  30
ATOM     30  C   UNL     1      -6.957   3.026   7.134  0.00  0.00    +0.126 C 
BRANCH  30  31
ATOM     31  C   UNL     1      -8.300   3.632   6.723  0.00  0.00    +0.003 C 
ATOM     32  C   UNL     1      -9.315   2.512   6.487  0.00  0.00    +0.009 C 
ATOM     33  C   UNL     1      -8.806   4.553   7.835  0.00  0.00    +0.009 C 
ENDBRANCH  30  31
ENDBRANCH   4  30
TORSDOF 5
