REMARK  Name = ZINC04235631
REMARK  7 active torsions:
REMARK  status: ('A' for Active; 'I' for Inactive)
REMARK    1  A    between atoms: C_1  and  N_2
REMARK    2  A    between atoms: N_2  and  C_3
REMARK    3  A    between atoms: N_2  and  C_4
REMARK    4  A    between atoms: C_7  and  C_10
REMARK    5  A    between atoms: C_12  and  C_28
REMARK    6  A    between atoms: C_15  and  N_26
REMARK    7  A    between atoms: C_16  and  C_17
REMARK                            x       y       z     vdW  Elec       q    Type
REMARK                         _______ _______ _______ _____ _____    ______ ____
ROOT
ATOM      1  C   UNL     1      -2.172   3.405   0.193  0.00  0.00    +0.077 C 
ATOM      2  C   UNL     1      -3.208   3.522   1.258  0.00  0.00    +0.158 C 
ATOM      3  C   UNL     1      -4.406   2.917   1.254  0.00  0.00    +0.089 C 
ATOM      4  S   UNL     1      -4.949   1.881  -0.054  0.00  0.00    -0.058 S 
ATOM      5  C   UNL     1      -3.883   2.393  -1.350  0.00  0.00    +0.071 C 
ATOM      6  C   UNL     1      -2.729   3.038  -1.139  0.00  0.00    +0.021 C 
ATOM      7  N   UNL     1      -5.247   3.119   2.322  0.00  0.00    -0.296 NA
ATOM      8  H   UNL     1      -6.118   2.692   2.341  0.00  0.00    +0.187 HD
ENDROOT
BRANCH   6   9
ATOM      9  C   UNL     1      -1.974   3.401  -2.278  0.00  0.00    +0.108 A 
ATOM     10  N   UNL     1      -0.757   3.916  -2.337  0.00  0.00    -0.239 NA
ATOM     11  C   UNL     1      -0.156   4.211  -3.508  0.00  0.00    +0.079 A 
ATOM     12  C   UNL     1       1.134   4.756  -3.713  0.00  0.00    +0.029 A 
ATOM     13  C   UNL     1       1.597   5.004  -4.979  0.00  0.00    +0.002 A 
ATOM     14  C   UNL     1       0.825   4.732  -6.099  0.00  0.00    +0.001 A 
ATOM     15  C   UNL     1      -0.441   4.197  -5.936  0.00  0.00    +0.017 A 
ATOM     16  C   UNL     1      -0.913   3.946  -4.673  0.00  0.00    +0.040 A 
ATOM     17  S   UNL     1      -2.423   3.289  -4.004  0.00  0.00    -0.067 S 
ENDBRANCH   6   9
BRANCH   1  21
ATOM     18  C   UNL     1       0.660   0.425   1.360  0.00  0.00    +0.029 A 
ATOM     19  C   UNL     1      -0.671   0.081   1.164  0.00  0.00    +0.023 A 
ATOM     20  C   UNL     1      -1.583   1.045   0.781  0.00  0.00    +0.006 A 
ATOM     21  C   UNL     1      -1.173   2.354   0.605  0.00  0.00    -0.038 A 
ATOM     22  C   UNL     1       0.151   2.700   0.799  0.00  0.00    +0.006 A 
ATOM     23  C   UNL     1       1.069   1.740   1.176  0.00  0.00    +0.023 A 
BRANCH  18  25
ATOM     24  C   UNL     1       1.134  -1.907   2.056  0.00  0.00    +0.129 C 
ATOM     25  N   UNL     1       1.586  -0.549   1.742  0.00  0.00    -0.336 N 
ATOM     26  C   UNL     1       3.009  -0.213   1.828  0.00  0.00    +0.129 C 
ENDBRANCH  18  25
ENDBRANCH   1  21
BRANCH   5  27
ATOM     27  N   UNL     1      -4.252   2.119  -2.650  0.00  0.00    -0.352 N 
ATOM     28  H   UNL     1      -3.602   1.758  -3.273  0.00  0.00    +0.143 HD
ATOM     29  H   UNL     1      -4.989   1.443  -2.651  0.00  0.00    +0.143 HD
ENDBRANCH   5  27
BRANCH   2  30
ATOM     30  C   UNL     1      -2.899   4.348   2.386  0.00  0.00    +0.074 C 
ATOM     31  N   UNL     1      -2.654   5.004   3.281  0.00  0.00    -0.196 NA
ENDBRANCH   2  30
TORSDOF 5
