REMARK  Name = ZINC48846833
REMARK  4 active torsions:
REMARK  status: ('A' for Active; 'I' for Inactive)
REMARK    1  A    between atoms: C_7  and  C_11
REMARK    2  A    between atoms: C_7  and  N_14
REMARK    3  A    between atoms: N_14  and  C_15
REMARK    4  A    between atoms: C_21  and  N_23
REMARK                            x       y       z     vdW  Elec       q    Type
REMARK                         _______ _______ _______ _____ _____    ______ ____
ROOT
ATOM      1  C   UNL     1       4.950  -3.229  -0.079  0.00  0.00    +0.001 A 
ATOM      2  C   UNL     1       4.904  -3.966   1.090  0.00  0.00    +0.004 A 
ATOM      3  C   UNL     1       3.736  -4.023   1.823  0.00  0.00    +0.046 A 
ATOM      4  C   UNL     1       2.603  -3.342   1.389  0.00  0.00    +0.126 A 
ATOM      5  C   UNL     1       2.652  -2.608   0.217  0.00  0.00    +0.025 A 
ATOM      6  C   UNL     1       3.828  -2.552  -0.513  0.00  0.00    +0.009 A 
ATOM      7  C   UNL     1       1.444  -1.864  -0.295  0.00  0.00    +0.153 C 
ATOM      8  C   UNL     1       0.427  -1.692   0.836  0.00  0.00    +0.080 C 
ATOM      9  C   UNL     1       0.238  -3.049   1.526  0.00  0.00    +0.232 C 
ATOM     10  O   UNL     1       1.474  -3.418   2.140  0.00  0.00    -0.492 OA
ENDROOT
BRANCH   7  11
ATOM     11  C   UNL     1       1.867  -0.509  -0.800  0.00  0.00    +0.380 C 
ATOM     12  O   UNL     1       1.791  -0.251  -1.989  0.00  0.00    -0.244 OA
ATOM     13  O   UNL     1       2.285   0.330  -0.020  0.00  0.00    -0.244 OA
ENDBRANCH   7  11
BRANCH   7  14
ATOM     14  N   UNL     1       0.831  -2.624  -1.392  0.00  0.00    -0.296 NA
ATOM     15  H   UNL     1       1.473  -2.728  -2.163  0.00  0.00    +0.123 HD
BRANCH  14  16
ATOM     16  C   UNL     1      -0.423  -1.997  -1.831  0.00  0.00    +0.040 C 
ATOM     17  C   UNL     1      -1.609  -2.750  -1.226  0.00  0.00    +0.017 C 
ATOM     18  C   UNL     1      -1.579  -4.207  -1.691  0.00  0.00    +0.001 C 
ATOM     19  C   UNL     1      -1.667  -4.258  -3.217  0.00  0.00    -0.001 C 
ATOM     20  C   UNL     1      -0.481  -3.505  -3.822  0.00  0.00    -0.015 C 
ATOM     21  C   UNL     1      -0.511  -2.047  -3.357  0.00  0.00    -0.058 C 
BRANCH  21  22
ATOM     22  N   UNL     1       0.628  -1.324  -3.938  0.00  0.00    +0.381 N 
ATOM     23  H   UNL     1       1.489  -1.755  -3.636  0.00  0.00    -0.090 HD
ATOM     24  H   UNL     1       0.569  -1.357  -4.945  0.00  0.00    -0.090 HD
ATOM     25  H   UNL     1       0.608  -0.363  -3.631  0.00  0.00    -0.090 HD
ENDBRANCH  21  22
ENDBRANCH  14  16
ENDBRANCH   7  14
TORSDOF 4
