REMARK  Name = ZINC14469953
REMARK  7 active torsions:
REMARK  status: ('A' for Active; 'I' for Inactive)
REMARK    1  A    between atoms: C_4  and  C_7
REMARK    2  A    between atoms: C_7  and  O_8
REMARK    3  A    between atoms: O_8  and  C_9
REMARK    4  A    between atoms: C_12  and  C_15
REMARK    5  A    between atoms: C_28  and  C_31
REMARK    6  A    between atoms: N_33  and  C_34
REMARK    7  A    between atoms: C_34  and  C_35
REMARK                            x       y       z     vdW  Elec       q    Type
REMARK                         _______ _______ _______ _____ _____    ______ ____
ROOT
ATOM      1  C   UNL     1      -4.820   3.468   0.931  0.00  0.00    +0.105 C 
ATOM      2  C   UNL     1      -6.216   3.357   0.312  0.00  0.00    +0.029 C 
ATOM      3  C   UNL     1      -7.224   4.019   1.292  0.00  0.00    +0.033 C 
ATOM      4  C   UNL     1      -7.498   2.930   2.311  0.00  0.00    -0.030 C 
ATOM      5  C   UNL     1      -7.204   1.754   1.815  0.00  0.00    -0.023 C 
ATOM      6  C   UNL     1      -6.686   1.889   0.402  0.00  0.00    +0.049 C 
ATOM      7  C   UNL     1      -5.554   0.935   0.160  0.00  0.00    -0.019 A 
ATOM      8  C   UNL     1      -5.854  -0.415   0.049  0.00  0.00    +0.006 A 
ATOM      9  C   UNL     1      -4.859  -1.350  -0.171  0.00  0.00    +0.001 A 
ATOM     10  C   UNL     1      -3.546  -0.952  -0.288  0.00  0.00    +0.015 A 
ATOM     11  C   UNL     1      -3.223   0.401  -0.175  0.00  0.00    +0.058 A 
ATOM     12  C   UNL     1      -4.239   1.351   0.046  0.00  0.00    +0.044 A 
ATOM     13  N   UNL     1      -3.873   2.685   0.138  0.00  0.00    -0.336 N 
ATOM     14  H   UNL     1      -2.935   2.778   0.498  0.00  0.00    +0.147 HD
ENDROOT
BRANCH   1  18
ATOM     15  C   UNL     1      -4.912   1.965   4.931  0.00  0.00    +0.121 A 
ATOM     16  C   UNL     1      -4.440   1.166   3.899  0.00  0.00    +0.046 A 
ATOM     17  C   UNL     1      -4.411   1.654   2.607  0.00  0.00    +0.009 A 
ATOM     18  C   UNL     1      -4.853   2.938   2.342  0.00  0.00    -0.027 A 
ATOM     19  C   UNL     1      -5.318   3.737   3.369  0.00  0.00    +0.009 A 
ATOM     20  C   UNL     1      -5.354   3.252   4.662  0.00  0.00    +0.046 A 
BRANCH  15  21
ATOM     21  O   UNL     1      -4.940   1.487   6.203  0.00  0.00    -0.487 OA
BRANCH  21  22
ATOM     22  C   UNL     1      -5.439   2.365   7.214  0.00  0.00    +0.264 C 
BRANCH  22  26
ATOM     23  C   UNL     1      -5.314   0.390  11.000  0.00  0.00    +0.000 A 
ATOM     24  C   UNL     1      -4.228   1.128  10.569  0.00  0.00    +0.000 A 
ATOM     25  C   UNL     1      -4.268   1.767   9.344  0.00  0.00    +0.007 A 
ATOM     26  C   UNL     1      -5.395   1.668   8.550  0.00  0.00    -0.010 A 
ATOM     27  C   UNL     1      -6.483   0.934   8.983  0.00  0.00    +0.007 A 
ATOM     28  C   UNL     1      -6.441   0.291  10.206  0.00  0.00    +0.000 A 
ENDBRANCH  22  26
ENDBRANCH  21  22
ENDBRANCH  15  21
ENDBRANCH   1  18
BRANCH  11  29
ATOM     29  C   UNL     1      -1.819   0.836  -0.294  0.00  0.00    +0.246 C 
ATOM     30  O   UNL     1      -1.550   2.021  -0.315  0.00  0.00    -0.270 OA
ATOM     31  N   UNL     1      -0.835  -0.081  -0.380  0.00  0.00    -0.309 N 
ATOM     32  H   UNL     1      -1.050  -1.026  -0.364  0.00  0.00    +0.149 HD
BRANCH  31  33
ATOM     33  C   UNL     1       0.560   0.352  -0.504  0.00  0.00    +0.136 C 
BRANCH  33  34
ATOM     34  C   UNL     1       1.469  -0.876  -0.590  0.00  0.00    +0.135 C 
ATOM     35  C   UNL     1       2.953  -0.447  -0.595  0.00  0.00    +0.035 C 
ATOM     36  C   UNL     1       3.626  -1.438  -1.571  0.00  0.00    +0.031 C 
ATOM     37  C   UNL     1       2.470  -2.348  -2.039  0.00  0.00    +0.160 C 
ATOM     38  O   UNL     1       1.277  -1.557  -1.849  0.00  0.00    -0.375 OA
ENDBRANCH  33  34
ENDBRANCH  31  33
ENDBRANCH  11  29
TORSDOF 7
