REMARK  Name = ZINC30973619
REMARK  11 active torsions:
REMARK  status: ('A' for Active; 'I' for Inactive)
REMARK    1  A    between atoms: C_1  and  C_2
REMARK    2  A    between atoms: C_7  and  C_8
REMARK    3  A    between atoms: C_10  and  C_13
REMARK    4  A    between atoms: C_13  and  N_14
REMARK    5  A    between atoms: C_17  and  C_20
REMARK    6  A    between atoms: N_22  and  C_23
REMARK    7  A    between atoms: C_23  and  C_24
REMARK    8  A    between atoms: C_24  and  C_25
REMARK    9  A    between atoms: C_25  and  S_26
REMARK   10  A    between atoms: S_26  and  C_27
REMARK   11  A    between atoms: C_27  and  C_28
REMARK                            x       y       z     vdW  Elec       q    Type
REMARK                         _______ _______ _______ _____ _____    ______ ____
ROOT
ATOM      1  N   UNL     1      -5.072  -3.924   1.308  0.00  0.00    +0.386 N 
ATOM      2  C   UNL     1      -4.431  -4.416   0.082  0.00  0.00    -0.077 C 
ATOM      3  C   UNL     1      -2.995  -3.892   0.010  0.00  0.00    -0.006 C 
ATOM      4  C   UNL     1      -3.014  -2.361   0.018  0.00  0.00    +0.071 C 
ATOM      5  C   UNL     1      -3.730  -1.874   1.282  0.00  0.00    -0.006 C 
ATOM      6  C   UNL     1      -5.145  -2.457   1.317  0.00  0.00    -0.077 C 
ATOM      7  H   UNL     1      -4.449  -4.234   2.160  0.00  0.00    -0.081 HD
ENDROOT
BRANCH   4   8
ATOM      8  C   UNL     1      -1.601  -1.839   0.007  0.00  0.00    +0.216 C 
ATOM      9  O   UNL     1      -0.668  -2.615  -0.006  0.00  0.00    -0.276 OA
ATOM     10  N   UNL     1      -1.372  -0.511   0.012  0.00  0.00    -0.315 N 
ATOM     11  H   UNL     1      -2.218   0.192   0.024  0.00  0.00    +0.149 HD
BRANCH  10  12
ATOM     12  C   UNL     1       0.002  -0.004   0.002  0.00  0.00    +0.105 C 
BRANCH  12  13
ATOM     13  C   UNL     1      -0.019   1.526   0.010  0.00  0.00    +0.029 C 
BRANCH  13  14
ATOM     14  C   UNL     1       1.417   2.055  -0.000  0.00  0.00    +0.071 C 
BRANCH  14  15
ATOM     15  S   UNL     1       1.392   3.869   0.009  0.00  0.00    -0.156 S 
BRANCH  15  16
ATOM     16  C   UNL     1       3.146   4.332  -0.005  0.00  0.00    +0.105 C 
BRANCH  16  17
ATOM     17  C   UNL     1       3.269   5.834   0.002  0.00  0.00    -0.019 A 
ATOM     18  C   UNL     1       3.320   6.529  -1.192  0.00  0.00    +0.006 A 
ATOM     19  C   UNL     1       3.429   7.907  -1.185  0.00  0.00    +0.000 A 
ATOM     20  C   UNL     1       3.497   8.590   0.015  0.00  0.00    +0.001 A 
ATOM     21  C   UNL     1       3.451   7.896   1.209  0.00  0.00    +0.020 A 
ATOM     22  C   UNL     1       3.337   6.517   1.203  0.00  0.00    +0.045 A 
ATOM     23 CL   UNL     1       3.281   5.644   2.703  0.00  0.00    -0.083 Cl
ENDBRANCH  16  17
ENDBRANCH  15  16
ENDBRANCH  14  15
ENDBRANCH  13  14
ENDBRANCH  12  13
ENDBRANCH  10  12
ENDBRANCH   4   8
BRANCH   1  24
ATOM     24  C   UNL     1      -6.404  -4.518   1.481  0.00  0.00    +0.022 C 
BRANCH  24  27
ATOM     25  C   UNL     1      -7.876  -3.263   4.511  0.00  0.00    +0.202 A 
ATOM     26  N   UNL     1      -7.638  -3.138   3.186  0.00  0.00    -0.193 NA
ATOM     27  C   UNL     1      -6.927  -4.187   2.855  0.00  0.00    +0.211 A 
ATOM     28  O   UNL     1      -6.757  -4.913   3.965  0.00  0.00    -0.340 OA
ATOM     29  N   UNL     1      -7.301  -4.370   4.904  0.00  0.00    -0.056 NA
BRANCH  25  36
ATOM     30  C   UNL     1      -8.207  -3.819   7.331  0.00  0.00    +0.044 C 
ATOM     31  C   UNL     1      -8.809  -2.579   6.720  0.00  0.00    -0.040 A 
ATOM     32  C   UNL     1      -9.525  -1.699   7.506  0.00  0.00    +0.004 A 
ATOM     33  C   UNL     1     -10.079  -0.562   6.947  0.00  0.00    +0.000 A 
ATOM     34  C   UNL     1      -9.918  -0.300   5.598  0.00  0.00    +0.001 A 
ATOM     35  C   UNL     1      -9.200  -1.170   4.804  0.00  0.00    +0.012 A 
ATOM     36  C   UNL     1      -8.645  -2.320   5.361  0.00  0.00    +0.025 A 
ENDBRANCH  25  36
ENDBRANCH  24  27
ENDBRANCH   1  24
TORSDOF 10
