REMARK  Name = ZINC39710328
REMARK  14 active torsions:
REMARK  status: ('A' for Active; 'I' for Inactive)
REMARK    1  A    between atoms: C_1  and  C_2
REMARK    2  A    between atoms: C_2  and  C_3
REMARK    3  A    between atoms: C_3  and  C_4
REMARK    4  A    between atoms: C_3  and  C_5
REMARK    5  A    between atoms: C_3  and  N_6
REMARK    6  A    between atoms: C_7  and  C_12
REMARK    7  A    between atoms: C_12  and  C_14
REMARK    8  A    between atoms: C_12  and  N_27
REMARK    9  A    between atoms: C_19  and  C_26
REMARK   10  A    between atoms: N_27  and  C_28
REMARK   11  A    between atoms: N_27  and  C_36
REMARK   12  A    between atoms: C_28  and  C_29
REMARK   13  A    between atoms: C_29  and  C_30
REMARK   14  A    between atoms: C_36  and  C_37
REMARK                            x       y       z     vdW  Elec       q    Type
REMARK                         _______ _______ _______ _____ _____    ______ ____
ROOT
ATOM      1  C   UNL     1      -3.298  -0.876   0.059  0.00  0.00    +0.115 C 
ENDROOT
BRANCH   1   2
ATOM      2  C   UNL     1      -4.369  -1.693   0.785  0.00  0.00    +0.119 C 
ATOM      3  C   UNL     1      -5.595  -0.815   0.944  0.00  0.00    -0.003 C 
ATOM      4  C   UNL     1      -6.048  -0.599   2.212  0.00  0.00    -0.007 A 
ATOM      5  C   UNL     1      -7.224   0.236   2.457  0.00  0.00    +0.012 A 
ATOM      6  C   UNL     1      -7.639   0.425   3.736  0.00  0.00    -0.050 A 
ATOM      7  C   UNL     1      -6.968  -0.159   4.811  0.00  0.00    +0.005 A 
ATOM      8  C   UNL     1      -5.870  -0.944   4.651  0.00  0.00    +0.024 A 
ATOM      9  C   UNL     1      -5.358  -1.202   3.366  0.00  0.00    +0.040 A 
ATOM     10  N   UNL     1      -4.282  -1.974   3.220  0.00  0.00    -0.284 N 
ATOM     11  C   UNL     1      -3.749  -2.256   2.044  0.00  0.00    +0.226 C 
ATOM     12  O   UNL     1      -2.764  -2.966   1.974  0.00  0.00    -0.275 OA
ATOM     13  C   UNL     1      -8.849   1.283   4.000  0.00  0.00    +0.044 C 
ATOM     14  H   UNL     1      -3.869  -2.346   4.016  0.00  0.00    +0.155 HD
ENDBRANCH   1   2
BRANCH   1  16
ATOM     15  N   UNL     1      -1.933  -2.905  -0.292  0.00  0.00    -0.179 NA
ATOM     16  C   UNL     1      -1.932  -1.534   0.259  0.00  0.00    +0.236 C 
ATOM     17  N   UNL     1      -0.901  -0.828  -0.514  0.00  0.00    -0.148 NA
ATOM     18  N   UNL     1      -0.411  -1.609  -1.332  0.00  0.00    -0.069 NA
ATOM     19  N   UNL     1      -0.973  -2.883  -1.269  0.00  0.00    -0.179 N 
ATOM     20  H   UNL     1      -0.723  -3.635  -1.828  0.00  0.00    +0.191 HD
BRANCH  15  21
ATOM     21  C   UNL     1      -3.247  -3.246  -0.853  0.00  0.00    +0.037 C 
ATOM     22  C   UNL     1      -3.919  -1.978  -1.384  0.00  0.00    +0.029 C 
ATOM     23  C   UNL     1      -4.122  -3.868   0.237  0.00  0.00    +0.029 C 
BRANCH  21  25
ATOM     24  C   UNL     1      -4.423  -4.507  -2.661  0.00  0.00    +0.006 C 
ATOM     25  C   UNL     1      -3.070  -4.246  -1.998  0.00  0.00    +0.020 C 
ENDBRANCH  21  25
ENDBRANCH  15  21
ENDBRANCH   1  16
BRANCH   1  26
ATOM     26  N   UNL     1      -3.270   0.488   0.603  0.00  0.00    -0.290 NA
BRANCH  26  27
ATOM     27  C   UNL     1      -2.957   1.467  -0.447  0.00  0.00    +0.090 C 
BRANCH  27  28
ATOM     28  C   UNL     1      -4.185   1.670  -1.337  0.00  0.00    +0.050 C 
BRANCH  28  29
ATOM     29  C   UNL     1      -3.828   2.579  -2.485  0.00  0.00    -0.046 A 
ATOM     30  C   UNL     1      -4.074   3.937  -2.393  0.00  0.00    +0.003 A 
ATOM     31  C   UNL     1      -3.746   4.771  -3.446  0.00  0.00    +0.000 A 
ATOM     32  C   UNL     1      -3.174   4.248  -4.590  0.00  0.00    +0.000 A 
ATOM     33  C   UNL     1      -2.928   2.890  -4.681  0.00  0.00    +0.000 A 
ATOM     34  C   UNL     1      -3.251   2.057  -3.627  0.00  0.00    +0.003 A 
ENDBRANCH  28  29
ENDBRANCH  27  28
ENDBRANCH  26  27
BRANCH  26  35
ATOM     35  C   UNL     1      -2.320   0.590   1.718  0.00  0.00    +0.127 C 
BRANCH  35  36
ATOM     36  C   UNL     1      -2.575   1.864   2.481  0.00  0.00    +0.004 A 
ATOM     37  C   UNL     1      -3.322   2.057   3.595  0.00  0.00    +0.012 A 
ATOM     38  C   UNL     1      -3.415   3.329   4.128  0.00  0.00    +0.008 A 
ATOM     39  C   UNL     1      -2.755   4.346   3.521  0.00  0.00    +0.045 A 
ATOM     40  S   UNL     1      -1.965   3.510   2.155  0.00  0.00    -0.100 S 
ENDBRANCH  35  36
ENDBRANCH  26  35
ENDBRANCH   1  26
TORSDOF 10
