REMARK  Name = ZINC16713804
REMARK  14 active torsions:
REMARK  status: ('A' for Active; 'I' for Inactive)
REMARK    1  A    between atoms: C_1  and  C_2
REMARK    2  A    between atoms: C_4  and  O_30
REMARK    3  A    between atoms: C_7  and  C_8
REMARK    4  A    between atoms: C_8  and  C_10
REMARK    5  A    between atoms: N_14  and  C_24
REMARK    6  A    between atoms: C_15  and  C_17
REMARK    7  A    between atoms: C_24  and  C_25
REMARK    8  A    between atoms: C_25  and  N_26
REMARK    9  A    between atoms: N_26  and  C_27
REMARK   10  A    between atoms: N_26  and  C_28
REMARK   11  A    between atoms: O_30  and  C_31
REMARK   12  A    between atoms: C_31  and  C_32
REMARK   13  A    between atoms: C_32  and  C_33
REMARK   14  A    between atoms: C_32  and  C_34
REMARK                            x       y       z     vdW  Elec       q    Type
REMARK                         _______ _______ _______ _____ _____    ______ ____
ROOT
ATOM      1  C   UNL     1       1.427   2.631   0.563  0.00  0.00    +0.076 C 
ATOM      2  C   UNL     1       1.580   1.292   0.446  0.00  0.00    +0.249 C 
ATOM      3  C   UNL     1       3.013   0.981   0.267  0.00  0.00    +0.288 C 
ATOM      4  O   UNL     1       3.474  -0.137   0.138  0.00  0.00    -0.266 OA
ATOM      5  N   UNL     1       3.733   2.117   0.264  0.00  0.00    -0.285 N 
ATOM      6  C   UNL     1       2.805   3.239   0.452  0.00  0.00    +0.145 C 
ATOM      7  O   UNL     1       0.580   0.382   0.492  0.00  0.00    -0.282 OA
ENDROOT
BRANCH   6   8
ATOM      8  C   UNL     1       3.145   3.987   1.716  0.00  0.00    -0.021 A 
ATOM      9  C   UNL     1       3.315   3.298   2.902  0.00  0.00    +0.006 A 
ATOM     10  C   UNL     1       3.632   3.983   4.060  0.00  0.00    +0.001 A 
ATOM     11  C   UNL     1       3.769   5.359   4.034  0.00  0.00    +0.015 A 
ATOM     12  C   UNL     1       3.594   6.049   2.848  0.00  0.00    +0.018 A 
ATOM     13  C   UNL     1       3.282   5.362   1.689  0.00  0.00    +0.021 A 
ATOM     14 BR   UNL     1       3.780   7.930   2.812  0.00  0.00    -0.050 Br
ENDBRANCH   6   8
BRANCH   1  15
ATOM     15  C   UNL     1       0.166   3.353   0.761  0.00  0.00    +0.195 C 
ATOM     16  O   UNL     1      -0.868   2.736   0.939  0.00  0.00    -0.287 OA
BRANCH  15  23
ATOM     17  C   UNL     1       0.352   4.753  -1.764  0.00  0.00    +0.044 C 
ATOM     18  C   UNL     1       0.239   5.517  -0.470  0.00  0.00    -0.036 A 
ATOM     19  C   UNL     1       0.225   6.894  -0.482  0.00  0.00    +0.049 A 
ATOM     20  C   UNL     1       0.121   7.600   0.712  0.00  0.00    +0.121 A 
ATOM     21  C   UNL     1       0.032   6.920   1.921  0.00  0.00    +0.046 A 
ATOM     22  C   UNL     1       0.041   5.543   1.941  0.00  0.00    +0.015 A 
ATOM     23  C   UNL     1       0.150   4.830   0.744  0.00  0.00    +0.025 A 
BRANCH  20  24
ATOM     24  O   UNL     1       0.106   8.957   0.696  0.00  0.00    -0.492 OA
BRANCH  24  25
ATOM     25  C   UNL     1      -0.047   9.619   1.953  0.00  0.00    +0.232 C 
BRANCH  25  26
ATOM     26  C   UNL     1      -0.129  11.130   1.728  0.00  0.00    +0.020 C 
ATOM     27  C   UNL     1      -1.399  11.459   0.940  0.00  0.00    +0.010 C 
ATOM     28  C   UNL     1      -0.167  11.846   3.079  0.00  0.00    +0.010 C 
ENDBRANCH  25  26
ENDBRANCH  24  25
ENDBRANCH  20  24
ENDBRANCH  15  23
ENDBRANCH   1  15
BRANCH   5  29
ATOM     29  C   UNL     1       5.186   2.217   0.107  0.00  0.00    +0.090 C 
BRANCH  29  30
ATOM     30  C   UNL     1       5.853   2.145   1.482  0.00  0.00    -0.060 C 
BRANCH  30  31
ATOM     31  N   UNL     1       7.311   2.245   1.325  0.00  0.00    +0.377 N 
ATOM     32  C   UNL     1       7.696   3.569   0.819  0.00  0.00    -0.097 C 
ATOM     33  C   UNL     1       7.998   1.944   2.588  0.00  0.00    -0.097 C 
ATOM     34  H   UNL     1       7.623   1.496   0.583  0.00  0.00    -0.083 HD
ENDBRANCH  30  31
ENDBRANCH  29  30
ENDBRANCH   5  29
TORSDOF 9
