REMARK  Name = ZINC03043958
REMARK  9 active torsions:
REMARK  status: ('A' for Active; 'I' for Inactive)
REMARK    1  A    between atoms: C_1  and  C_2
REMARK    2  A    between atoms: C_5  and  C_8
REMARK    3  A    between atoms: C_8  and  N_9
REMARK    4  A    between atoms: N_17  and  N_18
REMARK    5  A    between atoms: N_18  and  C_19
REMARK    6  A    between atoms: C_19  and  N_21
REMARK    7  A    between atoms: N_21  and  C_22
REMARK    8  A    between atoms: C_23  and  C_29
REMARK    9  A    between atoms: C_27  and  C_28
REMARK                            x       y       z     vdW  Elec       q    Type
REMARK                         _______ _______ _______ _____ _____    ______ ____
ROOT
ATOM      1  N   UNL     1       6.920   1.726   3.918  0.00  0.00    -0.261 N 
ATOM      2  C   UNL     1       7.707   1.926   5.048  0.00  0.00    +0.046 A 
ATOM      3  C   UNL     1       8.018   3.076   5.765  0.00  0.00    +0.025 A 
ATOM      4  C   UNL     1       8.839   3.001   6.872  0.00  0.00    +0.017 A 
ATOM      5  C   UNL     1       9.361   1.785   7.282  0.00  0.00    +0.019 A 
ATOM      6  C   UNL     1       9.062   0.632   6.582  0.00  0.00    +0.027 A 
ATOM      7  C   UNL     1       8.236   0.698   5.465  0.00  0.00    +0.029 A 
ATOM      8  C   UNL     1       7.731  -0.320   4.515  0.00  0.00    +0.153 C 
ATOM      9  N   UNL     1       7.974  -1.609   4.523  0.00  0.00    -0.175 NA
ATOM     10  C   UNL     1       6.892   0.431   3.562  0.00  0.00    +0.272 C 
ATOM     11  O   UNL     1       6.283  -0.040   2.619  0.00  0.00    -0.268 OA
ATOM     12 BR   UNL     1      10.484   1.703   8.802  0.00  0.00    -0.050 Br
ENDROOT
BRANCH   9  13
ATOM     13  N   UNL     1       7.410  -2.434   3.541  0.00  0.00    -0.217 N 
ATOM     14  H   UNL     1       6.840  -2.052   2.855  0.00  0.00    +0.176 HD
BRANCH  13  15
ATOM     15  C   UNL     1       7.659  -3.759   3.549  0.00  0.00    +0.154 C 
ATOM     16  S   UNL     1       6.970  -4.766   2.348  0.00  0.00    -0.017 S 
BRANCH  15  17
ATOM     17  N   UNL     1       8.450  -4.290   4.502  0.00  0.00    -0.295 N 
ATOM     18  H   UNL     1       8.905  -3.711   5.133  0.00  0.00    +0.154 HD
BRANCH  17  19
ATOM     19  C   UNL     1       8.615  -5.676   4.580  0.00  0.00    +0.039 A 
ATOM     20  C   UNL     1       9.747  -6.274   4.040  0.00  0.00    -0.029 A 
ATOM     21  C   UNL     1       9.907  -7.644   4.119  0.00  0.00    +0.005 A 
ATOM     22  C   UNL     1       8.942  -8.419   4.736  0.00  0.00    +0.001 A 
ATOM     23  C   UNL     1       7.815  -7.827   5.275  0.00  0.00    +0.005 A 
ATOM     24  C   UNL     1       7.652  -6.458   5.204  0.00  0.00    -0.029 A 
ATOM     25  C   UNL     1       6.426  -5.813   5.798  0.00  0.00    +0.045 C 
ATOM     26  C   UNL     1      10.798  -5.429   3.367  0.00  0.00    +0.045 C 
ENDBRANCH  17  19
ENDBRANCH  15  17
ENDBRANCH  13  15
ENDBRANCH   9  13
BRANCH   1  27
ATOM     27  C   UNL     1       6.209   2.793   3.209  0.00  0.00    +0.149 C 
BRANCH  27  32
ATOM     28  C   UNL     1       0.925   3.415   5.464  0.00  0.00    +0.044 C 
ATOM     29  C   UNL     1       2.303   3.252   4.876  0.00  0.00    -0.050 A 
ATOM     30  C   UNL     1       3.362   3.980   5.386  0.00  0.00    +0.003 A 
ATOM     31  C   UNL     1       4.626   3.831   4.846  0.00  0.00    +0.005 A 
ATOM     32  C   UNL     1       4.831   2.954   3.797  0.00  0.00    -0.030 A 
ATOM     33  C   UNL     1       3.772   2.226   3.288  0.00  0.00    +0.005 A 
ATOM     34  C   UNL     1       2.509   2.372   3.830  0.00  0.00    +0.003 A 
ENDBRANCH  27  32
ENDBRANCH   1  27
TORSDOF 6
