REMARK  Name = ZINC60042774
REMARK  6 active torsions:
REMARK  status: ('A' for Active; 'I' for Inactive)
REMARK    1  A    between atoms: N_9  and  C_11
REMARK    2  A    between atoms: C_11  and  C_12
REMARK    3  A    between atoms: C_12  and  C_14
REMARK    4  A    between atoms: C_12  and  O_33
REMARK    5  A    between atoms: C_14  and  N_15
REMARK    6  A    between atoms: C_24  and  C_26
REMARK                            x       y       z     vdW  Elec       q    Type
REMARK                         _______ _______ _______ _____ _____    ______ ____
ROOT
ATOM      1  N   UNL     1       8.671  -2.531   1.690  0.00  0.00    -0.226 N 
ATOM      2  C   UNL     1       8.504  -2.848   2.991  0.00  0.00    +0.275 A 
ATOM      3  O   UNL     1       7.901  -3.857   3.309  0.00  0.00    -0.266 OA
ATOM      4  C   UNL     1       9.061  -1.956   4.017  0.00  0.00    +0.050 A 
ATOM      5  C   UNL     1       8.925  -2.225   5.378  0.00  0.00    +0.014 A 
ATOM      6  C   UNL     1       9.467  -1.356   6.299  0.00  0.00    +0.001 A 
ATOM      7  C   UNL     1      10.146  -0.217   5.885  0.00  0.00    +0.001 A 
ATOM      8  C   UNL     1      10.292   0.067   4.545  0.00  0.00    +0.011 A 
ATOM      9  C   UNL     1       9.751  -0.799   3.595  0.00  0.00    +0.015 A 
ATOM     10  C   UNL     1       9.878  -0.544   2.153  0.00  0.00    +0.099 A 
ATOM     11  N   UNL     1       9.361  -1.385   1.294  0.00  0.00    -0.168 NA
ENDROOT
BRANCH  10  12
ATOM     12  C   UNL     1      10.596   0.660   1.673  0.00  0.00    +0.003 A 
ATOM     13  C   UNL     1      11.440   0.576   0.566  0.00  0.00    +0.013 A 
ATOM     14  C   UNL     1      12.106   1.700   0.122  0.00  0.00    +0.039 A 
ATOM     15  C   UNL     1      11.937   2.911   0.774  0.00  0.00    +0.123 A 
ATOM     16  C   UNL     1      11.100   2.999   1.875  0.00  0.00    +0.039 A 
ATOM     17  C   UNL     1      10.425   1.883   2.322  0.00  0.00    +0.013 A 
ATOM     18  F   UNL     1      12.591   4.009   0.336  0.00  0.00    -0.205 F 
ENDBRANCH  10  12
BRANCH   1  19
ATOM     19  C   UNL     1       8.116  -3.418   0.665  0.00  0.00    +0.176 C 
BRANCH  19  20
ATOM     20  C   UNL     1       6.691  -2.978   0.326  0.00  0.00    +0.120 C 
BRANCH  20  21
ATOM     21  O   UNL     1       5.880  -3.043   1.501  0.00  0.00    -0.392 OA
ATOM     22  H   UNL     1       5.821  -3.927   1.890  0.00  0.00    +0.210 HD
ENDBRANCH  20  21
BRANCH  20  23
ATOM     23  C   UNL     1       6.112  -3.905  -0.745  0.00  0.00    -0.045 C 
BRANCH  23  32
ATOM     24  C   UNL     1       1.225  -0.739  -3.439  0.00  0.00    +0.000 A 
ATOM     25  C   UNL     1       2.266   0.144  -3.220  0.00  0.00    +0.000 A 
ATOM     26  C   UNL     1       3.458  -0.314  -2.696  0.00  0.00    +0.002 A 
ATOM     27  C   UNL     1       3.617  -1.657  -2.386  0.00  0.00    -0.061 A 
ATOM     28  C   UNL     1       2.577  -2.536  -2.602  0.00  0.00    -0.048 A 
ATOM     29  C   UNL     1       1.381  -2.076  -3.130  0.00  0.00    +0.004 A 
ATOM     30  C   UNL     1       2.706  -4.001  -2.272  0.00  0.00    +0.017 C 
ATOM     31  C   UNL     1       4.181  -4.365  -2.097  0.00  0.00    -0.074 C 
ATOM     32  N   UNL     1       4.790  -3.412  -1.157  0.00  0.00    +0.384 N 
ATOM     33  C   UNL     1       4.936  -2.114  -1.820  0.00  0.00    -0.043 C 
ATOM     34  H   UNL     1       4.198  -3.312  -0.346  0.00  0.00    -0.081 HD
ENDBRANCH  23  32
ENDBRANCH  20  23
ENDBRANCH  19  20
ENDBRANCH   1  19
TORSDOF 6
