REMARK  Name = ZINC20913079
REMARK  11 active torsions:
REMARK  status: ('A' for Active; 'I' for Inactive)
REMARK    1  A    between atoms: C_1  and  C_2
REMARK    2  A    between atoms: C_2  and  C_34
REMARK    3  A    between atoms: C_4  and  N_10
REMARK    4  A    between atoms: C_6  and  C_8
REMARK    5  A    between atoms: C_6  and  C_9
REMARK    6  A    between atoms: C_11  and  C_13
REMARK    7  A    between atoms: C_13  and  S_14
REMARK    8  A    between atoms: S_14  and  C_15
REMARK    9  A    between atoms: N_19  and  N_20
REMARK   10  A    between atoms: N_21  and  N_22
REMARK   11  A    between atoms: C_23  and  C_24
REMARK                            x       y       z     vdW  Elec       q    Type
REMARK                         _______ _______ _______ _____ _____    ______ ____
ROOT
ATOM      1  C   UNL     1      -2.646  -2.378   0.041  0.00  0.00    +0.210 A 
ATOM      2  N   UNL     1      -3.317  -1.251   0.058  0.00  0.00    -0.119 NA
ATOM      3  N   UNL     1      -2.394  -0.197   0.053  0.00  0.00    -0.109 NA
ATOM      4  C   UNL     1      -1.189  -0.714   0.025  0.00  0.00    +0.254 A 
ATOM      5  N   UNL     1      -1.314  -2.076   0.020  0.00  0.00    -0.211 N 
ATOM      6  N   UNL     1       0.002  -0.004   0.009  0.00  0.00    -0.204 N 
ATOM      7  H   UNL     1       0.962  -0.541  -0.009  0.00  0.00    +0.177 HD
ENDROOT
BRANCH   5   8
ATOM      8  N   UNL     1      -0.287  -2.976  -0.002  0.00  0.00    -0.294 N 
ATOM      9  H   UNL     1       0.755  -2.622  -0.018  0.00  0.00    +0.163 HD
ATOM     10  H   UNL     1      -0.501  -4.055  -0.004  0.00  0.00    +0.163 HD
ENDBRANCH   5   8
BRANCH   6  11
ATOM     11  N   UNL     1      -0.017   1.397   0.017  0.00  0.00    -0.187 NA
ATOM     12  C   UNL     1       1.100   2.062   0.003  0.00  0.00    +0.139 C 
BRANCH  12  13
ATOM     13  C   UNL     1       1.080   3.532   0.011  0.00  0.00    +0.002 A 
ATOM     14  C   UNL     1       2.262   4.258   0.107  0.00  0.00    +0.010 A 
ATOM     15  C   UNL     1       2.240   5.646   0.109  0.00  0.00    +0.001 A 
ATOM     16  C   UNL     1       1.076   6.346   0.029  0.00  0.00    +0.008 A 
ATOM     17  C   UNL     1      -0.157   5.678  -0.065  0.00  0.00    -0.017 A 
ATOM     18  C   UNL     1      -0.183   4.262  -0.077  0.00  0.00    -0.009 A 
ATOM     19  C   UNL     1      -1.409   3.594  -0.172  0.00  0.00    +0.009 A 
ATOM     20  C   UNL     1      -2.565   4.313  -0.251  0.00  0.00    +0.001 A 
ATOM     21  C   UNL     1      -2.543   5.706  -0.239  0.00  0.00    +0.001 A 
ATOM     22  C   UNL     1      -1.368   6.388  -0.149  0.00  0.00    +0.008 A 
ENDBRANCH  12  13
ENDBRANCH   6  11
BRANCH   1  23
ATOM     23  S   UNL     1      -3.340  -3.997   0.043  0.00  0.00    -0.075 S 
BRANCH  23  24
ATOM     24  C   UNL     1      -5.102  -3.584   0.075  0.00  0.00    +0.173 C 
BRANCH  24  26
ATOM     25  N   UNL     1      -7.262  -4.789   0.105  0.00  0.00    -0.312 N 
ATOM     26  C   UNL     1      -5.916  -4.852   0.081  0.00  0.00    +0.224 C 
ATOM     27  O   UNL     1      -5.359  -5.930   0.066  0.00  0.00    -0.275 OA
ATOM     28  H   UNL     1      -7.766  -3.812   0.119  0.00  0.00    +0.149 HD
BRANCH  25  32
ATOM     29  C   UNL     1      -9.775  -7.967   1.835  0.00  0.00    -0.010 C 
ATOM     30  C   UNL     1     -10.273  -7.010   0.745  0.00  0.00    -0.072 C 
ATOM     31  C   UNL     1      -9.417  -5.746   0.746  0.00  0.00    +0.009 C 
ATOM     32  C   UNL     1      -8.055  -6.025   0.111  0.00  0.00    +0.070 C 
ATOM     33  C   UNL     1      -8.275  -6.489  -1.329  0.00  0.00    +0.009 C 
ATOM     34  C   UNL     1      -9.116  -7.763  -1.354  0.00  0.00    -0.072 C 
ATOM     35  N   UNL     1     -10.314  -7.665  -0.546  0.00  0.00    +0.386 N 
ATOM     36  C   UNL     1      -8.253  -8.955  -0.922  0.00  0.00    -0.010 C 
ATOM     37  C   UNL     1      -9.540  -8.012  -2.818  0.00  0.00    -0.010 C 
ATOM     38  C   UNL     1     -11.713  -6.597   1.122  0.00  0.00    -0.010 C 
ATOM     39  H   UNL     1     -10.631  -8.710  -0.418  0.00  0.00    -0.084 HD
ATOM     40  H   UNL     1     -11.029  -7.143  -1.200  0.00  0.00    -0.084 HD
ENDBRANCH  25  32
ENDBRANCH  24  26
ENDBRANCH  23  24
ENDBRANCH   1  23
TORSDOF 7
