REMARK  Name = ZINC13515731
REMARK  10 active torsions:
REMARK  status: ('A' for Active; 'I' for Inactive)
REMARK    1  A    between atoms: C_1  and  C_2
REMARK    2  A    between atoms: C_3  and  C_31
REMARK    3  A    between atoms: N_9  and  C_10
REMARK    4  A    between atoms: C_10  and  C_11
REMARK    5  A    between atoms: C_11  and  C_12
REMARK    6  A    between atoms: C_12  and  N_13
REMARK    7  A    between atoms: C_15  and  C_22
REMARK    8  A    between atoms: C_18  and  C_21
REMARK    9  A    between atoms: N_23  and  C_30
REMARK   10  A    between atoms: N_26  and  C_29
REMARK                            x       y       z     vdW  Elec       q    Type
REMARK                         _______ _______ _______ _____ _____    ______ ____
ROOT
ATOM      1  C   UNL     1      -0.018   1.503   0.010  0.00  0.00    +0.065 C 
ATOM      2  C   UNL     1       0.002  -0.004   0.002  0.00  0.00    +0.038 A 
ATOM      3  C   UNL     1       0.008  -0.778  -1.079  0.00  0.00    +0.043 A 
ATOM      4  N   UNL     1       0.028  -2.099  -0.668  0.00  0.00    -0.275 N 
ATOM      5  C   UNL     1       0.045  -3.419  -1.094  0.00  0.00    +0.157 A 
ATOM      6  C   UNL     1       0.061  -4.203   0.059  0.00  0.00    +0.170 A 
ATOM      7  N   UNL     1       0.054  -3.378   1.103  0.00  0.00    -0.193 NA
ATOM      8  C   UNL     1       0.034  -2.120   0.685  0.00  0.00    +0.218 A 
ATOM      9  N   UNL     1       0.024  -0.821   1.117  0.00  0.00    -0.314 N 
ATOM     10  N   UNL     1       0.081  -5.583  -0.073  0.00  0.00    -0.280 N 
ATOM     11  C   UNL     1       0.084  -6.143  -1.298  0.00  0.00    +0.333 A 
ATOM     12  O   UNL     1       0.100  -7.355  -1.396  0.00  0.00    -0.246 OA
ATOM     13  N   UNL     1       0.068  -5.395  -2.414  0.00  0.00    -0.262 N 
ATOM     14  C   UNL     1       0.049  -4.048  -2.350  0.00  0.00    +0.283 A 
ATOM     15  O   UNL     1       0.035  -3.383  -3.372  0.00  0.00    -0.265 OA
ATOM     16  C   UNL     1       0.072  -6.054  -3.723  0.00  0.00    +0.157 C 
ATOM     17  C   UNL     1       0.098  -6.433   1.121  0.00  0.00    +0.155 C 
ATOM     18  C   UNL     1      -0.005  -0.298  -2.508  0.00  0.00    +0.066 C 
ENDROOT
BRANCH   9  19
ATOM     19  C   UNL     1       0.031  -0.375   2.512  0.00  0.00    +0.123 C 
BRANCH  19  20
ATOM     20  C   UNL     1      -1.409  -0.240   3.012  0.00  0.00    +0.003 C 
BRANCH  20  21
ATOM     21  C   UNL     1      -1.402   0.225   4.469  0.00  0.00    -0.077 C 
BRANCH  21  22
ATOM     22  N   UNL     1      -2.784   0.355   4.949  0.00  0.00    +0.380 N 
ATOM     23  C   UNL     1      -3.463   1.417   4.197  0.00  0.00    -0.076 C 
ATOM     24  C   UNL     1      -4.927   1.502   4.636  0.00  0.00    -0.031 C 
ATOM     25  C   UNL     1      -4.987   1.816   6.134  0.00  0.00    +0.003 C 
ATOM     26  C   UNL     1      -4.212   0.742   6.902  0.00  0.00    -0.031 C 
ATOM     27  C   UNL     1      -2.775   0.685   6.379  0.00  0.00    -0.076 C 
ATOM     28  C   UNL     1      -4.201   1.088   8.393  0.00  0.00    +0.005 C 
ATOM     29  C   UNL     1      -5.632   2.611   3.852  0.00  0.00    +0.005 C 
ATOM     30  H   UNL     1      -3.271  -0.517   4.809  0.00  0.00    -0.082 HD
ENDBRANCH  21  22
ENDBRANCH  20  21
ENDBRANCH  19  20
ENDBRANCH   9  19
TORSDOF 4
