REMARK  Name = ZINC09380164
REMARK  7 active torsions:
REMARK  status: ('A' for Active; 'I' for Inactive)
REMARK    1  A    between atoms: C_6  and  C_7
REMARK    2  A    between atoms: C_9  and  C_22
REMARK    3  A    between atoms: C_10  and  O_21
REMARK    4  A    between atoms: N_13  and  C_14
REMARK    5  A    between atoms: C_14  and  C_15
REMARK    6  A    between atoms: C_15  and  N_53
REMARK    7  A    between atoms: C_22  and  C_24
REMARK                            x       y       z     vdW  Elec       q    Type
REMARK                         _______ _______ _______ _____ _____    ______ ____
ROOT
ATOM      1  C   UNL     1      -2.481   1.002   0.015  0.00  0.00    +0.144 C 
ATOM      2  C   UNL     1      -3.182   1.103  -1.320  0.00  0.00    +0.071 C 
ATOM      3  C   UNL     1      -4.387   1.675  -1.087  0.00  0.00    +0.188 C 
ATOM      4  C   UNL     1      -4.517   1.960   0.358  0.00  0.00    +0.282 C 
ATOM      5  O   UNL     1      -5.485   2.472   0.883  0.00  0.00    -0.267 OA
ATOM      6  N   UNL     1      -3.404   1.567   1.005  0.00  0.00    -0.285 N 
ENDROOT
BRANCH   1  12
ATOM      7  C   UNL     1       0.018   1.141   0.036  0.00  0.00    +0.007 A 
ATOM      8  C   UNL     1       1.193   1.867   0.007  0.00  0.00    +0.015 A 
ATOM      9  C   UNL     1       1.152   3.248  -0.066  0.00  0.00    +0.018 A 
ATOM     10  C   UNL     1      -0.067   3.901  -0.108  0.00  0.00    +0.015 A 
ATOM     11  C   UNL     1      -1.242   3.174  -0.079  0.00  0.00    +0.007 A 
ATOM     12  C   UNL     1      -1.200   1.794  -0.012  0.00  0.00    -0.022 A 
ATOM     13 BR   UNL     1       2.760   4.242  -0.107  0.00  0.00    -0.050 Br
ENDBRANCH   1  12
BRANCH   3  14
ATOM     14  O   UNL     1      -5.322   1.943  -2.026  0.00  0.00    -0.502 OA
ATOM     15  H   UNL     1      -6.119   2.365  -1.592  0.00  0.00    +0.292 HD
ENDBRANCH   3  14
BRANCH   2  16
ATOM     16  C   UNL     1      -2.659   0.666  -2.618  0.00  0.00    +0.195 C 
ATOM     17  O   UNL     1      -2.417   1.486  -3.484  0.00  0.00    -0.287 OA
BRANCH  16  18
ATOM     18  C   UNL     1      -2.425  -0.770  -2.875  0.00  0.00    +0.022 A 
ATOM     19  C   UNL     1      -2.803  -1.723  -1.926  0.00  0.00    +0.013 A 
ATOM     20  C   UNL     1      -2.586  -3.062  -2.174  0.00  0.00    +0.021 A 
ATOM     21  C   UNL     1      -1.985  -3.462  -3.356  0.00  0.00    +0.041 A 
ATOM     22  C   UNL     1      -1.602  -2.522  -4.299  0.00  0.00    +0.021 A 
ATOM     23  C   UNL     1      -1.818  -1.180  -4.065  0.00  0.00    +0.013 A 
ATOM     24 CL   UNL     1      -1.710  -5.149  -3.658  0.00  0.00    -0.084 Cl
ENDBRANCH  16  18
ENDBRANCH   2  16
BRANCH   6  25
ATOM     25  C   UNL     1      -3.158   1.683   2.445  0.00  0.00    +0.090 C 
BRANCH  25  26
ATOM     26  C   UNL     1      -2.493   3.029   2.742  0.00  0.00    -0.059 C 
BRANCH  26  32
ATOM     27  C   UNL     1      -3.510   3.216   4.931  0.00  0.00    -0.050 C 
ATOM     28  C   UNL     1      -3.209   3.276   6.431  0.00  0.00    +0.141 C 
ATOM     29  O   UNL     1      -2.360   4.396   6.697  0.00  0.00    -0.383 OA
ATOM     30  C   UNL     1      -1.119   4.359   5.987  0.00  0.00    +0.141 C 
ATOM     31  C   UNL     1      -1.399   4.310   4.482  0.00  0.00    -0.050 C 
ATOM     32  N   UNL     1      -2.233   3.123   4.194  0.00  0.00    +0.384 N 
ATOM     33  H   UNL     1      -1.732   2.281   4.500  0.00  0.00    -0.082 HD
ENDBRANCH  26  32
ENDBRANCH  25  26
ENDBRANCH   6  25
TORSDOF 7
