REMARK  Name = ZINC57589761
REMARK  8 active torsions:
REMARK  status: ('A' for Active; 'I' for Inactive)
REMARK    1  A    between atoms: C_1  and  C_2
REMARK    2  A    between atoms: C_4  and  C_41
REMARK    3  A    between atoms: C_9  and  C_14
REMARK    4  A    between atoms: C_14  and  C_16
REMARK    5  A    between atoms: C_14  and  N_28
REMARK    6  A    between atoms: N_20  and  C_21
REMARK    7  A    between atoms: C_21  and  C_22
REMARK    8  A    between atoms: C_31  and  C_34
REMARK                            x       y       z     vdW  Elec       q    Type
REMARK                         _______ _______ _______ _____ _____    ______ ____
ROOT
ATOM      1  C   UNL     1       0.089  -5.020   3.624  0.00  0.00    +0.163 C 
ENDROOT
BRANCH   1  10
ATOM      2  C   UNL     1       1.513   1.406   0.118  0.00  0.00    +0.044 C 
ATOM      3  C   UNL     1       1.276  -0.082   0.090  0.00  0.00    -0.050 A 
ATOM      4  C   UNL     1       1.301  -0.760  -1.122  0.00  0.00    +0.008 A 
ATOM      5  C   UNL     1       1.086  -2.120  -1.171  0.00  0.00    -0.026 A 
ATOM      6  C   UNL     1       0.843  -2.824   0.004  0.00  0.00    +0.052 A 
ATOM      7  C   UNL     1       0.819  -2.133   1.230  0.00  0.00    -0.001 A 
ATOM      8  C   UNL     1       1.044  -0.752   1.257  0.00  0.00    +0.013 A 
ATOM      9  C   UNL     1       0.562  -2.882   2.462  0.00  0.00    +0.021 A 
ATOM     10  C   UNL     1       0.356  -4.219   2.376  0.00  0.00    +0.042 A 
ATOM     11  C   UNL     1       0.391  -4.864   1.121  0.00  0.00    +0.254 A 
ATOM     12  O   UNL     1       0.203  -6.067   1.065  0.00  0.00    -0.268 OA
ATOM     13  N   UNL     1       0.626  -4.185  -0.016  0.00  0.00    -0.322 N 
ATOM     14  H   UNL     1       0.642  -4.659  -0.862  0.00  0.00    +0.169 HD
ATOM     15  C   UNL     1       1.115  -2.843  -2.493  0.00  0.00    +0.046 C 
ENDBRANCH   1  10
BRANCH   1  16
ATOM     16  N   UNL     1      -1.154  -5.785   3.458  0.00  0.00    -0.285 NA
ATOM     17  C   UNL     1      -2.301  -4.888   3.246  0.00  0.00    +0.090 C 
ATOM     18  C   UNL     1      -3.491  -5.724   2.768  0.00  0.00    +0.051 C 
ATOM     19  C   UNL     1      -3.670  -6.913   3.670  0.00  0.00    -0.042 C 
ATOM     20  C   UNL     1      -2.731  -7.328   4.492  0.00  0.00    -0.007 C 
ATOM     21  C   UNL     1      -1.395  -6.654   4.617  0.00  0.00    +0.113 C 
BRANCH  19  22
ATOM     22  C   UNL     1      -4.953  -7.646   3.631  0.00  0.00    -0.022 A 
ATOM     23  C   UNL     1      -5.334  -8.330   2.476  0.00  0.00    +0.011 A 
ATOM     24  C   UNL     1      -6.532  -9.012   2.445  0.00  0.00    +0.039 A 
ATOM     25  C   UNL     1      -7.357  -9.020   3.558  0.00  0.00    +0.123 A 
ATOM     26  C   UNL     1      -6.983  -8.342   4.708  0.00  0.00    +0.039 A 
ATOM     27  C   UNL     1      -5.784  -7.662   4.752  0.00  0.00    +0.011 A 
ATOM     28  F   UNL     1      -8.530  -9.690   3.523  0.00  0.00    -0.205 F 
ENDBRANCH  19  22
ENDBRANCH   1  16
BRANCH   1  29
ATOM     29  C   UNL     1       1.234  -5.969   3.867  0.00  0.00    +0.173 A 
ATOM     30  N   UNL     1       1.462  -7.098   3.240  0.00  0.00    -0.111 NA
ATOM     31  N   UNL     1       2.534  -7.617   3.732  0.00  0.00    -0.023 NA
ATOM     32  N   UNL     1       2.996  -6.848   4.655  0.00  0.00    -0.044 NA
ATOM     33  N   UNL     1       2.226  -5.819   4.765  0.00  0.00    -0.225 N 
BRANCH  33  34
ATOM     34  C   UNL     1       2.396  -4.699   5.694  0.00  0.00    +0.179 C 
BRANCH  34  35
ATOM     35  C   UNL     1       1.668  -5.009   7.004  0.00  0.00    +0.140 C 
ATOM     36  C   UNL     1       1.739  -3.786   7.944  0.00  0.00    +0.035 C 
ATOM     37  C   UNL     1       1.954  -4.450   9.332  0.00  0.00    +0.031 C 
ATOM     38  C   UNL     1       2.819  -5.675   8.941  0.00  0.00    +0.160 C 
ATOM     39  O   UNL     1       2.307  -6.106   7.668  0.00  0.00    -0.375 OA
ENDBRANCH  34  35
ENDBRANCH  33  34
ENDBRANCH   1  29
TORSDOF 6
