REMARK  Name = ZINC16741896
REMARK  11 active torsions:
REMARK  status: ('A' for Active; 'I' for Inactive)
REMARK    1  A    between atoms: C_1  and  C_2
REMARK    2  A    between atoms: C_5  and  O_8
REMARK    3  A    between atoms: O_8  and  C_9
REMARK    4  A    between atoms: C_9  and  C_10
REMARK    5  A    between atoms: N_12  and  C_13
REMARK    6  A    between atoms: C_14  and  C_27
REMARK    7  A    between atoms: C_19  and  C_23
REMARK    8  A    between atoms: C_23  and  C_24
REMARK    9  A    between atoms: C_23  and  C_25
REMARK   10  A    between atoms: C_23  and  C_26
REMARK   11  A    between atoms: N_29  and  C_30
REMARK                            x       y       z     vdW  Elec       q    Type
REMARK                         _______ _______ _______ _____ _____    ______ ____
ROOT
ATOM      1  C   UNL     1       3.264  -6.346  -0.062  0.00  0.00    +0.084 A 
ATOM      2  C   UNL     1       4.245  -7.328  -0.076  0.00  0.00    +0.069 A 
ATOM      3  C   UNL     1       3.807  -8.714  -0.079  0.00  0.00    -0.023 A 
ATOM      4  C   UNL     1       2.469  -8.895  -0.067  0.00  0.00    -0.004 A 
ATOM      5  S   UNL     1       1.792  -7.259  -0.044  0.00  0.00    -0.077 S 
ATOM      6  C   UNL     1       1.733 -10.199  -0.065  0.00  0.00    +0.046 C 
ATOM      7  C   UNL     1       2.725 -11.313   0.298  0.00  0.00    -0.000 C 
ATOM      8  C   UNL     1       3.989 -11.144  -0.551  0.00  0.00    +0.009 C 
ATOM      9  C   UNL     1       4.759  -9.903  -0.095  0.00  0.00    +0.037 C 
ENDROOT
BRANCH   1  12
ATOM     10  C   UNL     1       2.343  -4.165  -0.042  0.00  0.00    +0.255 C 
ATOM     11  O   UNL     1       1.230  -4.646  -0.033  0.00  0.00    -0.272 OA
ATOM     12  N   UNL     1       3.425  -4.969  -0.056  0.00  0.00    -0.277 N 
ATOM     13  H   UNL     1       4.315  -4.584  -0.063  0.00  0.00    +0.155 HD
BRANCH  10  14
ATOM     14  C   UNL     1       2.518  -2.668  -0.036  0.00  0.00    +0.324 C 
BRANCH  14  15
ATOM     15  O   UNL     1       1.234  -2.039  -0.020  0.00  0.00    -0.483 OA
BRANCH  15  20
ATOM     16  C   UNL     1       1.147   3.593   0.011  0.00  0.00    +0.044 C 
ATOM     17  C   UNL     1       1.171   2.086   0.002  0.00  0.00    -0.050 A 
ATOM     18  C   UNL     1      -0.017   1.377   0.010  0.00  0.00    +0.007 A 
ATOM     19  C   UNL     1       0.002  -0.004   0.002  0.00  0.00    +0.046 A 
ATOM     20  C   UNL     1       1.213  -0.680  -0.013  0.00  0.00    +0.121 A 
ATOM     21  C   UNL     1       2.403   0.033  -0.021  0.00  0.00    +0.046 A 
ATOM     22  C   UNL     1       2.379   1.415  -0.013  0.00  0.00    +0.007 A 
ENDBRANCH  15  20
ENDBRANCH  14  15
ENDBRANCH  10  14
ENDBRANCH   1  12
BRANCH   7  23
ATOM     23  C   UNL     1       2.093 -12.677   0.010  0.00  0.00    -0.035 C 
ATOM     24  C   UNL     1       3.091 -13.784   0.356  0.00  0.00    +0.011 C 
ATOM     25  C   UNL     1       0.831 -12.843   0.859  0.00  0.00    +0.011 C 
ATOM     26  C   UNL     1       1.726 -12.766  -1.473  0.00  0.00    +0.011 C 
ENDBRANCH   7  23
BRANCH   2  27
ATOM     27  C   UNL     1       5.669  -6.981  -0.088  0.00  0.00    +0.247 C 
ATOM     28  O   UNL     1       6.270  -6.842   0.961  0.00  0.00    -0.270 OA
ATOM     29  N   UNL     1       6.313  -6.815  -1.260  0.00  0.00    -0.307 N 
ATOM     30  H   UNL     1       5.834  -6.926  -2.097  0.00  0.00    +0.149 HD
BRANCH  29  31
ATOM     31  C   UNL     1       7.736  -6.468  -1.272  0.00  0.00    +0.096 C 
ATOM     32  C   UNL     1       7.899  -4.942  -1.173  0.00  0.00    +0.046 C 
ATOM     33  C   UNL     1       9.358  -4.545  -1.504  0.00  0.00    +0.168 C 
ATOM     34  S   UNL     1       9.895  -5.889  -2.638  0.00  0.00    -0.029 S 
ATOM     35  O   UNL     1      10.965  -6.604  -2.034  0.00  0.00    -0.174 OA
ATOM     36  O   UNL     1      10.060  -5.354  -3.944  0.00  0.00    -0.174 OA
ATOM     37  C   UNL     1       8.380  -6.938  -2.607  0.00  0.00    +0.188 C 
ENDBRANCH  29  31
ENDBRANCH   2  27
TORSDOF 7
