REMARK  Name = ZINC36155919
REMARK  13 active torsions:
REMARK  status: ('A' for Active; 'I' for Inactive)
REMARK    1  A    between atoms: C_1  and  C_2
REMARK    2  A    between atoms: C_2  and  C_3
REMARK    3  A    between atoms: C_2  and  C_4
REMARK    4  A    between atoms: C_4  and  N_5
REMARK    5  A    between atoms: N_5  and  C_6
REMARK    6  A    between atoms: N_5  and  C_29
REMARK    7  A    between atoms: C_6  and  C_7
REMARK    8  A    between atoms: N_19  and  C_22
REMARK    9  A    between atoms: C_22  and  C_23
REMARK   10  A    between atoms: C_29  and  C_30
REMARK   11  A    between atoms: C_30  and  C_32
REMARK   12  A    between atoms: C_30  and  O_39
REMARK   13  A    between atoms: C_32  and  C_33
REMARK                            x       y       z     vdW  Elec       q    Type
REMARK                         _______ _______ _______ _____ _____    ______ ____
ROOT
ATOM      1  C   UNL     1      -0.450  -2.475  -1.142  0.00  0.00    +0.094 A 
ATOM      2  N   UNL     1       0.623  -3.267  -0.886  0.00  0.00    -0.312 N 
ATOM      3  H   UNL     1       0.576  -3.911  -0.161  0.00  0.00    +0.170 HD
ATOM      4  C   UNL     1       1.749  -3.179  -1.617  0.00  0.00    +0.260 A 
ATOM      5  O   UNL     1       2.703  -3.898  -1.374  0.00  0.00    -0.267 OA
ATOM      6  C   UNL     1       1.809  -2.224  -2.685  0.00  0.00    +0.075 A 
ATOM      7  C   UNL     1       2.914  -1.952  -3.600  0.00  0.00    -0.020 A 
ATOM      8  C   UNL     1       2.719  -0.992  -4.531  0.00  0.00    +0.010 A 
ATOM      9  S   UNL     1       1.072  -0.405  -4.245  0.00  0.00    -0.072 S 
ATOM     10  C   UNL     1       0.652  -1.451  -2.873  0.00  0.00    +0.116 A 
ATOM     11  N   UNL     1      -0.428  -1.600  -2.112  0.00  0.00    -0.229 NA
ATOM     12  C   UNL     1       3.700  -0.540  -5.567  0.00  0.00    +0.127 C 
ATOM     13  N   UNL     1       5.033  -1.050  -5.194  0.00  0.00    -0.293 NA
ATOM     14  C   UNL     1       4.968  -2.484  -4.877  0.00  0.00    +0.090 C 
ATOM     15  C   UNL     1       4.246  -2.696  -3.545  0.00  0.00    +0.052 C 
ENDROOT
BRANCH   1  16
ATOM     16  C   UNL     1      -1.690  -2.611  -0.296  0.00  0.00    -0.003 C 
BRANCH  16  17
ATOM     17  N   UNL     1      -2.731  -1.708  -0.804  0.00  0.00    +0.386 N 
ATOM     18  H   UNL     1      -2.885  -1.891  -1.785  0.00  0.00    -0.081 HD
BRANCH  17  19
ATOM     19  C   UNL     1      -2.300  -0.315  -0.628  0.00  0.00    -0.075 C 
BRANCH  19  21
ATOM     20  C   UNL     1      -0.976   1.238   0.813  0.00  0.00    +0.005 C 
ATOM     21  C   UNL     1      -1.539  -0.179   0.692  0.00  0.00    -0.034 C 
ATOM     22  C   UNL     1      -2.490  -0.452   1.859  0.00  0.00    +0.005 C 
ENDBRANCH  19  21
ENDBRANCH  17  19
BRANCH  17  23
ATOM     23  C   UNL     1      -3.979  -1.932  -0.062  0.00  0.00    -0.046 C 
BRANCH  23  24
ATOM     24  C   UNL     1      -5.145  -1.293  -0.819  0.00  0.00    +0.102 C 
BRANCH  24  25
ATOM     25  O   UNL     1      -5.008   0.129  -0.792  0.00  0.00    -0.393 OA
ATOM     26  H   UNL     1      -4.977   0.504   0.099  0.00  0.00    +0.210 HD
ENDBRANCH  24  25
BRANCH  24  27
ATOM     27  C   UNL     1      -6.464  -1.692  -0.155  0.00  0.00    +0.064 C 
BRANCH  27  28
ATOM     28  C   UNL     1      -7.616  -1.165  -0.970  0.00  0.00    -0.045 A 
ATOM     29  C   UNL     1      -8.127   0.094  -0.712  0.00  0.00    +0.004 A 
ATOM     30  C   UNL     1      -9.184   0.577  -1.460  0.00  0.00    +0.000 A 
ATOM     31  C   UNL     1      -9.730  -0.197  -2.466  0.00  0.00    +0.000 A 
ATOM     32  C   UNL     1      -9.219  -1.455  -2.725  0.00  0.00    +0.000 A 
ATOM     33  C   UNL     1      -8.159  -1.937  -1.980  0.00  0.00    +0.004 A 
ENDBRANCH  27  28
ENDBRANCH  24  27
ENDBRANCH  23  24
ENDBRANCH  17  23
ENDBRANCH  16  17
ENDBRANCH   1  16
BRANCH  13  34
ATOM     34  C   UNL     1       6.013  -0.789  -6.256  0.00  0.00    +0.120 C 
BRANCH  34  35
ATOM     35  C   UNL     1       6.223   0.697  -6.392  0.00  0.00    -0.033 A 
ATOM     36  C   UNL     1       5.431   1.431  -7.254  0.00  0.00    +0.005 A 
ATOM     37  C   UNL     1       5.623   2.794  -7.379  0.00  0.00    +0.000 A 
ATOM     38  C   UNL     1       6.608   3.423  -6.641  0.00  0.00    +0.000 A 
ATOM     39  C   UNL     1       7.400   2.689  -5.778  0.00  0.00    +0.000 A 
ATOM     40  C   UNL     1       7.205   1.327  -5.650  0.00  0.00    +0.005 A 
ENDBRANCH  34  35
ENDBRANCH  13  34
TORSDOF 11
