REMARK  Name = ZINC37377534
REMARK  6 active torsions:
REMARK  status: ('A' for Active; 'I' for Inactive)
REMARK    1  A    between atoms: C_4  and  N_7
REMARK    2  A    between atoms: C_8  and  N_33
REMARK    3  A    between atoms: C_10  and  C_25
REMARK    4  A    between atoms: N_16  and  C_17
REMARK    5  A    between atoms: C_17  and  C_18
REMARK    6  A    between atoms: C_18  and  N_19
REMARK                            x       y       z     vdW  Elec       q    Type
REMARK                         _______ _______ _______ _____ _____    ______ ____
ROOT
ATOM      1  N   UNL     1       3.793  -0.482   0.323  0.00  0.00    -0.216 N 
ATOM      2  C   UNL     1       4.016  -1.691   0.875  0.00  0.00    +0.131 A 
ATOM      3  C   UNL     1       5.281  -2.106   0.478  0.00  0.00    +0.086 A 
ATOM      4  C   UNL     1       6.091  -3.242   0.702  0.00  0.00    +0.091 A 
ATOM      5  N   UNL     1       7.289  -3.282   0.133  0.00  0.00    -0.214 NA
ATOM      6  C   UNL     1       7.742  -2.293  -0.632  0.00  0.00    +0.218 A 
ATOM      7  N   UNL     1       7.055  -1.199  -0.892  0.00  0.00    -0.193 NA
ATOM      8  C   UNL     1       5.822  -1.032  -0.376  0.00  0.00    +0.189 A 
ATOM      9  N   UNL     1       4.900  -0.097  -0.441  0.00  0.00    -0.144 NA
ATOM     10  N   UNL     1       9.004  -2.419  -1.184  0.00  0.00    -0.315 N 
ATOM     11  H   UNL     1       9.533  -3.213  -1.009  0.00  0.00    +0.149 HD
ENDROOT
BRANCH   4  12
ATOM     12  C   UNL     1       5.615  -4.359   1.548  0.00  0.00    +0.039 A 
ATOM     13  C   UNL     1       4.438  -5.033   1.221  0.00  0.00    +0.051 A 
ATOM     14  C   UNL     1       3.999  -6.074   2.015  0.00  0.00    +0.124 A 
ATOM     15  C   UNL     1       4.725  -6.450   3.135  0.00  0.00    +0.041 A 
ATOM     16  C   UNL     1       5.891  -5.786   3.465  0.00  0.00    +0.042 A 
ATOM     17  C   UNL     1       6.345  -4.745   2.675  0.00  0.00    +0.133 A 
ATOM     18  F   UNL     1       7.489  -4.101   2.994  0.00  0.00    -0.205 F 
ATOM     19  F   UNL     1       2.860  -6.729   1.700  0.00  0.00    -0.205 F 
ENDBRANCH   4  12
BRANCH   1  23
ATOM     20  C   UNL     1       0.317   1.765   0.803  0.00  0.00    +0.000 A 
ATOM     21  C   UNL     1       1.541   2.401   0.702  0.00  0.00    +0.002 A 
ATOM     22  C   UNL     1       2.695   1.659   0.542  0.00  0.00    +0.028 A 
ATOM     23  C   UNL     1       2.625   0.273   0.485  0.00  0.00    +0.067 A 
ATOM     24  C   UNL     1       1.395  -0.362   0.588  0.00  0.00    +0.028 A 
ATOM     25  C   UNL     1       0.244   0.385   0.747  0.00  0.00    +0.002 A 
ENDBRANCH   1  23
BRANCH   2  26
ATOM     26  N   UNL     1       3.145  -2.391   1.689  0.00  0.00    -0.342 N 
ATOM     27  H   UNL     1       2.317  -1.978   1.982  0.00  0.00    +0.144 HD
ATOM     28  H   UNL     1       3.361  -3.295   1.966  0.00  0.00    +0.144 HD
ENDBRANCH   2  26
BRANCH  10  29
ATOM     29  C   UNL     1       9.542  -1.353  -2.033  0.00  0.00    +0.086 C 
BRANCH  29  30
ATOM     30  C   UNL     1      10.943  -1.739  -2.511  0.00  0.00    -0.060 C 
BRANCH  30  31
ATOM     31  N   UNL     1      11.483  -0.670  -3.362  0.00  0.00    +0.381 N 
ATOM     32  C   UNL     1      10.667  -0.555  -4.576  0.00  0.00    -0.079 C 
ATOM     33  C   UNL     1      11.175   0.610  -5.428  0.00  0.00    -0.019 C 
ATOM     34  C   UNL     1      12.635   0.354  -5.814  0.00  0.00    -0.004 C 
ATOM     35  C   UNL     1      13.463   0.162  -4.540  0.00  0.00    -0.019 C 
ATOM     36  C   UNL     1      12.870  -0.987  -3.721  0.00  0.00    -0.079 C 
ATOM     37  H   UNL     1      11.458   0.204  -2.858  0.00  0.00    -0.082 HD
ENDBRANCH  30  31
ENDBRANCH  29  30
ENDBRANCH  10  29
TORSDOF 6
