REMARK  Name = ZINC40927599
REMARK  12 active torsions:
REMARK  status: ('A' for Active; 'I' for Inactive)
REMARK    1  A    between atoms: C_1  and  C_2
REMARK    2  A    between atoms: C_3  and  C_34
REMARK    3  A    between atoms: C_4  and  C_20
REMARK    4  A    between atoms: C_9  and  S_11
REMARK    5  A    between atoms: S_11  and  C_12
REMARK    6  A    between atoms: C_12  and  C_13
REMARK    7  A    between atoms: C_23  and  O_26
REMARK    8  A    between atoms: O_26  and  C_27
REMARK    9  A    between atoms: C_27  and  C_28
REMARK   10  A    between atoms: C_34  and  O_36
REMARK   11  A    between atoms: O_36  and  C_37
REMARK   12  A    between atoms: C_37  and  C_38
REMARK                            x       y       z     vdW  Elec       q    Type
REMARK                         _______ _______ _______ _____ _____    ______ ____
ROOT
ATOM      1  C   UNL     1      -0.018   1.503   0.010  0.00  0.00    +0.061 C 
ATOM      2  C   UNL     1       0.002  -0.004   0.002  0.00  0.00    +0.020 C 
ATOM      3  C   UNL     1      -1.164  -0.669   0.004  0.00  0.00    +0.082 C 
ATOM      4  C   UNL     1      -1.253  -2.171   0.007  0.00  0.00    +0.179 C 
ATOM      5  N   UNL     1       0.062  -2.737  -0.284  0.00  0.00    -0.220 N 
ATOM      6  C   UNL     1       1.208  -2.012  -0.281  0.00  0.00    +0.219 A 
ATOM      7  N   UNL     1       2.196  -2.814  -0.571  0.00  0.00    -0.187 NA
ATOM      8  C   UNL     1       1.724  -4.053  -0.770  0.00  0.00    +0.211 A 
ATOM      9  N   UNL     1       0.418  -4.046  -0.604  0.00  0.00    -0.141 NA
ATOM     10  N   UNL     1       1.212  -0.651  -0.013  0.00  0.00    -0.287 N 
ATOM     11  H   UNL     1       2.040  -0.175   0.160  0.00  0.00    +0.155 HD
ENDROOT
BRANCH   4  12
ATOM     12  C   UNL     1      -1.715  -2.644   1.361  0.00  0.00    -0.018 A 
ATOM     13  C   UNL     1      -0.970  -2.346   2.488  0.00  0.00    +0.009 A 
ATOM     14  C   UNL     1      -1.391  -2.779   3.730  0.00  0.00    +0.046 A 
ATOM     15  C   UNL     1      -2.562  -3.513   3.848  0.00  0.00    +0.121 A 
ATOM     16  C   UNL     1      -3.308  -3.811   2.716  0.00  0.00    +0.046 A 
ATOM     17  C   UNL     1      -2.885  -3.371   1.476  0.00  0.00    +0.009 A 
BRANCH  15  18
ATOM     18  O   UNL     1      -2.978  -3.941   5.069  0.00  0.00    -0.487 OA
BRANCH  18  19
ATOM     19  C   UNL     1      -4.193  -4.691   5.114  0.00  0.00    +0.264 C 
BRANCH  19  20
ATOM     20  C   UNL     1      -4.493  -5.077   6.540  0.00  0.00    -0.010 A 
ATOM     21  C   UNL     1      -4.005  -6.264   7.052  0.00  0.00    +0.007 A 
ATOM     22  C   UNL     1      -4.280  -6.617   8.360  0.00  0.00    +0.000 A 
ATOM     23  C   UNL     1      -5.043  -5.783   9.156  0.00  0.00    +0.000 A 
ATOM     24  C   UNL     1      -5.530  -4.595   8.643  0.00  0.00    +0.000 A 
ATOM     25  C   UNL     1      -5.252  -4.240   7.337  0.00  0.00    +0.007 A 
ENDBRANCH  19  20
ENDBRANCH  18  19
ENDBRANCH  15  18
ENDBRANCH   4  12
BRANCH   3  26
ATOM     26  C   UNL     1      -2.364   0.077   0.003  0.00  0.00    +0.339 C 
ATOM     27  O   UNL     1      -2.325   1.293  -0.001  0.00  0.00    -0.245 OA
BRANCH  26  28
ATOM     28  O   UNL     1      -3.554  -0.560   0.004  0.00  0.00    -0.457 OA
BRANCH  28  29
ATOM     29  C   UNL     1      -4.727   0.257   0.003  0.00  0.00    +0.259 C 
BRANCH  29  30
ATOM     30  C   UNL     1      -5.951  -0.622   0.005  0.00  0.00    +0.006 C 
ATOM     31  C   UNL     1      -6.950  -0.350   0.807  0.00  0.00    +0.007 C 
ENDBRANCH  29  30
ENDBRANCH  28  29
ENDBRANCH  26  28
ENDBRANCH   3  26
BRANCH   8  32
ATOM     32  S   UNL     1       2.694  -5.463  -1.188  0.00  0.00    -0.080 S 
BRANCH  32  33
ATOM     33  C   UNL     1       4.389  -4.821  -1.267  0.00  0.00    +0.112 C 
BRANCH  33  34
ATOM     34  C   UNL     1       5.334  -5.941  -1.621  0.00  0.00    -0.037 A 
ATOM     35  C   UNL     1       5.910  -6.701  -0.620  0.00  0.00    +0.004 A 
ATOM     36  C   UNL     1       6.776  -7.728  -0.944  0.00  0.00    +0.000 A 
ATOM     37  C   UNL     1       7.067  -7.995  -2.269  0.00  0.00    +0.000 A 
ATOM     38  C   UNL     1       6.491  -7.235  -3.269  0.00  0.00    +0.000 A 
ATOM     39  C   UNL     1       5.620  -6.211  -2.946  0.00  0.00    +0.004 A 
ENDBRANCH  33  34
ENDBRANCH  32  33
ENDBRANCH   8  32
TORSDOF 11
