REMARK  Name = ZINC12490353
REMARK  15 active torsions:
REMARK  status: ('A' for Active; 'I' for Inactive)
REMARK    1  A    between atoms: C_1  and  C_2
REMARK    2  A    between atoms: C_5  and  C_29
REMARK    3  A    between atoms: C_6  and  O_8
REMARK    4  A    between atoms: O_8  and  C_9
REMARK    5  A    between atoms: C_9  and  C_10
REMARK    6  A    between atoms: N_12  and  N_13
REMARK    7  A    between atoms: C_14  and  C_16
REMARK    8  A    between atoms: C_16  and  O_17
REMARK    9  A    between atoms: O_17  and  C_18
REMARK   10  A    between atoms: C_20  and  C_28
REMARK   11  A    between atoms: C_23  and  C_24
REMARK   12  A    between atoms: C_24  and  C_25
REMARK   13  A    between atoms: C_24  and  C_26
REMARK   14  A    between atoms: C_29  and  C_30
REMARK   15  A    between atoms: C_29  and  C_31
REMARK                            x       y       z     vdW  Elec       q    Type
REMARK                         _______ _______ _______ _____ _____    ______ ____
ROOT
ATOM      1  N   UNL     1       0.078  -3.286   7.105  0.00  0.00    -0.231 N 
ATOM      2  C   UNL     1       0.077  -2.780   8.354  0.00  0.00    +0.267 C 
ATOM      3  O   UNL     1       0.062  -1.579   8.521  0.00  0.00    -0.271 OA
ATOM      4  H   UNL     1       0.090  -4.247   6.971  0.00  0.00    +0.173 HD
ENDROOT
BRANCH   1   7
ATOM      5  C   UNL     1       0.063  -2.932   4.751  0.00  0.00    +0.267 C 
ATOM      6  O   UNL     1       0.078  -4.133   4.584  0.00  0.00    -0.271 OA
ATOM      7  N   UNL     1       0.062  -2.425   6.000  0.00  0.00    -0.231 N 
ATOM      8  H   UNL     1       0.050  -1.465   6.134  0.00  0.00    +0.173 HD
BRANCH   5   9
ATOM      9  C   UNL     1       0.045  -2.006   3.562  0.00  0.00    +0.326 C 
BRANCH   9  10
ATOM     10  O   UNL     1       0.050  -2.776   2.358  0.00  0.00    -0.482 OA
BRANCH  10  16
ATOM     11  C   UNL     1      -0.018   1.503   0.010  0.00  0.00    +0.044 C 
ATOM     12  C   UNL     1       0.002  -0.004   0.002  0.00  0.00    -0.047 A 
ATOM     13  C   UNL     1       0.006  -0.688  -1.200  0.00  0.00    +0.004 A 
ATOM     14  C   UNL     1       0.024  -2.071  -1.211  0.00  0.00    +0.008 A 
ATOM     15  C   UNL     1       0.039  -2.772  -0.020  0.00  0.00    -0.003 A 
ATOM     16  C   UNL     1       0.035  -2.088   1.186  0.00  0.00    +0.125 A 
ATOM     17  C   UNL     1       0.023  -0.700   1.195  0.00  0.00    +0.049 A 
BRANCH  15  18
ATOM     18  C   UNL     1       0.059  -4.279  -0.033  0.00  0.00    +0.016 C 
ATOM     19  C   UNL     1      -1.188  -4.799  -0.753  0.00  0.00    +0.012 C 
ATOM     20  C   UNL     1       1.311  -4.766  -0.764  0.00  0.00    +0.012 C 
ENDBRANCH  15  18
ENDBRANCH  10  16
ENDBRANCH   9  10
ENDBRANCH   5   9
ENDBRANCH   1   7
BRANCH   2  21
ATOM     21  C   UNL     1       0.095  -3.706   9.543  0.00  0.00    +0.326 C 
BRANCH  21  22
ATOM     22  O   UNL     1       0.090  -2.936  10.747  0.00  0.00    -0.482 OA
BRANCH  22  23
ATOM     23  C   UNL     1       0.105  -3.624  11.919  0.00  0.00    +0.125 A 
ATOM     24  C   UNL     1       0.129  -5.011  11.910  0.00  0.00    +0.050 A 
ATOM     25  C   UNL     1       0.143  -5.708  13.103  0.00  0.00    -0.033 A 
ATOM     26  C   UNL     1       0.134  -5.023  14.305  0.00  0.00    +0.021 A 
ATOM     27  C   UNL     1       0.110  -3.640  14.316  0.00  0.00    +0.023 A 
ATOM     28  C   UNL     1       0.101  -2.939  13.126  0.00  0.00    -0.002 A 
ATOM     29 BR   UNL     1       0.154  -5.980  15.936  0.00  0.00    -0.050 Br
ATOM     30  C   UNL     1       0.169  -7.215  13.094  0.00  0.00    +0.045 C 
BRANCH  28  31
ATOM     31  C   UNL     1       0.082  -1.433  13.138  0.00  0.00    +0.016 C 
ATOM     32  C   UNL     1      -1.171  -0.945  13.868  0.00  0.00    +0.012 C 
ATOM     33  C   UNL     1       1.327  -0.912  13.858  0.00  0.00    +0.012 C 
ENDBRANCH  28  31
ENDBRANCH  22  23
ENDBRANCH  21  22
ENDBRANCH   2  21
TORSDOF 9
