REMARK  Name = ZINC00710584
REMARK  11 active torsions:
REMARK  status: ('A' for Active; 'I' for Inactive)
REMARK    1  A    between atoms: C_1  and  C_2
REMARK    2  A    between atoms: C_5  and  N_9
REMARK    3  A    between atoms: C_6  and  C_8
REMARK    4  A    between atoms: C_10  and  C_12
REMARK    5  A    between atoms: C_12  and  S_13
REMARK    6  A    between atoms: S_13  and  C_14
REMARK    7  A    between atoms: C_15  and  C_36
REMARK    8  A    between atoms: C_16  and  C_31
REMARK    9  A    between atoms: C_18  and  C_22
REMARK   10  A    between atoms: C_19  and  C_21
REMARK   11  A    between atoms: N_24  and  C_25
REMARK                            x       y       z     vdW  Elec       q    Type
REMARK                         _______ _______ _______ _____ _____    ______ ____
ROOT
ATOM      1  C   UNL     1       8.778   2.228   0.371  0.00  0.00    +0.093 C 
ATOM      2  C   UNL     1      10.053   1.765   0.465  0.00  0.00    +0.161 C 
ATOM      3  C   UNL     1      11.220   2.708   0.545  0.00  0.00    +0.115 C 
ATOM      4  C   UNL     1      10.763   4.092   0.909  0.00  0.00    +0.048 C 
ATOM      5  C   UNL     1       9.474   4.461   0.809  0.00  0.00    +0.048 C 
ATOM      6  N   UNL     1       8.524   3.581   0.366  0.00  0.00    -0.248 NA
ATOM      7  C   UNL     1       9.071   5.865   1.177  0.00  0.00    +0.066 C 
ENDROOT
BRANCH   3   8
ATOM      8  C   UNL     1      11.922   2.752  -0.787  0.00  0.00    +0.114 A 
ATOM      9  C   UNL     1      13.198   2.394  -1.016  0.00  0.00    +0.045 A 
ATOM     10  C   UNL     1      13.438   2.593  -2.395  0.00  0.00    +0.041 A 
ATOM     11  C   UNL     1      12.295   3.061  -2.927  0.00  0.00    +0.195 A 
ATOM     12  O   UNL     1      11.378   3.150  -1.949  0.00  0.00    -0.467 OA
ENDBRANCH   3   8
BRANCH   4  13
ATOM     13  C   UNL     1      11.714   5.032   1.374  0.00  0.00    +0.247 C 
ATOM     14  O   UNL     1      11.361   6.158   1.673  0.00  0.00    -0.270 OA
ATOM     15  N   UNL     1      13.010   4.680   1.486  0.00  0.00    -0.282 N 
ATOM     16  H   UNL     1      13.303   3.807   1.184  0.00  0.00    +0.155 HD
BRANCH  15  17
ATOM     17  C   UNL     1      13.932   5.575   2.039  0.00  0.00    +0.034 A 
ATOM     18  C   UNL     1      13.800   6.939   1.812  0.00  0.00    +0.023 A 
ATOM     19  C   UNL     1      14.709   7.820   2.365  0.00  0.00    +0.002 A 
ATOM     20  C   UNL     1      15.756   7.345   3.134  0.00  0.00    +0.000 A 
ATOM     21  C   UNL     1      15.893   5.987   3.357  0.00  0.00    +0.002 A 
ATOM     22  C   UNL     1      14.984   5.101   2.812  0.00  0.00    +0.023 A 
ENDBRANCH  15  17
ENDBRANCH   4  13
BRANCH   2  23
ATOM     23  C   UNL     1      10.289   0.353   0.483  0.00  0.00    +0.074 C 
ATOM     24  N   UNL     1      10.476  -0.768   0.497  0.00  0.00    -0.196 NA
ENDBRANCH   2  23
BRANCH   1  25
ATOM     25  S   UNL     1       7.440   1.087   0.254  0.00  0.00    -0.100 S 
BRANCH  25  26
ATOM     26  C   UNL     1       6.050   2.242   0.158  0.00  0.00    +0.171 C 
BRANCH  26  28
ATOM     27  N   UNL     1       3.586   2.124  -0.036  0.00  0.00    -0.285 N 
ATOM     28  C   UNL     1       4.761   1.468   0.049  0.00  0.00    +0.227 C 
ATOM     29  O   UNL     1       4.781   0.256   0.037  0.00  0.00    -0.275 OA
ATOM     30  H   UNL     1       3.575   3.091  -0.107  0.00  0.00    +0.155 HD
BRANCH  27  35
ATOM     31  C   UNL     1      -1.291  -0.773   0.027  0.00  0.00    +0.044 C 
ATOM     32  C   UNL     1       0.005  -0.004   0.010  0.00  0.00    -0.050 A 
ATOM     33  C   UNL     1       1.137  -0.546   0.590  0.00  0.00    +0.005 A 
ATOM     34  C   UNL     1       2.326   0.156   0.577  0.00  0.00    +0.024 A 
ATOM     35  C   UNL     1       2.384   1.409  -0.020  0.00  0.00    +0.036 A 
ATOM     36  C   UNL     1       1.245   1.951  -0.602  0.00  0.00    -0.029 A 
ATOM     37  C   UNL     1       0.059   1.243  -0.585  0.00  0.00    +0.008 A 
ATOM     38  C   UNL     1       1.303   3.309  -1.252  0.00  0.00    +0.045 C 
ENDBRANCH  27  35
ENDBRANCH  26  28
ENDBRANCH  25  26
ENDBRANCH   1  25
TORSDOF 8
