REMARK  Name = ZINC02632586
REMARK  6 active torsions:
REMARK  status: ('A' for Active; 'I' for Inactive)
REMARK    1  A    between atoms: C_1  and  C_2
REMARK    2  A    between atoms: C_7  and  N_8
REMARK    3  A    between atoms: C_9  and  C_28
REMARK    4  A    between atoms: C_12  and  S_13
REMARK    5  A    between atoms: S_13  and  C_14
REMARK    6  A    between atoms: C_14  and  C_15
REMARK                            x       y       z     vdW  Elec       q    Type
REMARK                         _______ _______ _______ _____ _____    ______ ____
ROOT
ATOM      1  N   UNL     1       2.921   5.850   0.000  0.00  0.00    -0.270 N 
ATOM      2  C   UNL     1       4.299   5.862  -0.007  0.00  0.00    +0.169 A 
ATOM      3  N   UNL     1       4.696   4.611  -0.018  0.00  0.00    -0.128 NA
ATOM      4  N   UNL     1       3.677   3.827  -0.013  0.00  0.00    -0.122 NA
ATOM      5  C   UNL     1       2.565   4.530   0.002  0.00  0.00    +0.197 A 
ENDROOT
BRANCH   1  12
ATOM      6  C   UNL     1       2.087   6.923  -2.501  0.00  0.00    +0.046 C 
ATOM      7  C   UNL     1       1.633   7.513  -1.190  0.00  0.00    -0.026 A 
ATOM      8  C   UNL     1       0.783   8.602  -1.179  0.00  0.00    +0.005 A 
ATOM      9  C   UNL     1       0.371   9.147   0.022  0.00  0.00    +0.000 A 
ATOM     10  C   UNL     1       0.803   8.601   1.217  0.00  0.00    +0.002 A 
ATOM     11  C   UNL     1       1.647   7.508   1.213  0.00  0.00    +0.026 A 
ATOM     12  C   UNL     1       2.063   6.959   0.007  0.00  0.00    +0.053 A 
ENDBRANCH   1  12
BRANCH   2  13
ATOM     13  C   UNL     1       5.167   7.058  -0.009  0.00  0.00    +0.022 A 
ATOM     14  C   UNL     1       4.652   8.322   0.308  0.00  0.00    +0.031 A 
ATOM     15  C   UNL     1       5.498   9.410   0.300  0.00  0.00    +0.111 A 
ATOM     16  N   UNL     1       6.774   9.274  -0.012  0.00  0.00    -0.263 NA
ATOM     17  C   UNL     1       7.298   8.103  -0.322  0.00  0.00    +0.111 A 
ATOM     18  C   UNL     1       6.526   6.962  -0.333  0.00  0.00    +0.031 A 
ENDBRANCH   2  13
BRANCH   5  19
ATOM     19  S   UNL     1       0.924   3.890   0.014  0.00  0.00    -0.076 S 
BRANCH  19  20
ATOM     20  C   UNL     1       1.278   2.115   0.001  0.00  0.00    +0.173 C 
BRANCH  20  21
ATOM     21  C   UNL     1      -0.016   1.344   0.009  0.00  0.00    +0.231 C 
ATOM     22  O   UNL     1      -1.075   1.936   0.018  0.00  0.00    -0.274 OA
ATOM     23  N   UNL     1       0.002  -0.004   0.002  0.00  0.00    -0.260 N 
ATOM     24  C   UNL     1       1.272  -0.746  -0.020  0.00  0.00    +0.209 C 
ATOM     25  C   UNL     1       1.153  -1.903  -0.972  0.00  0.00    +0.235 C 
ATOM     26  O   UNL     1       2.141  -2.313  -1.543  0.00  0.00    -0.274 OA
ATOM     27  N   UNL     1      -0.038  -2.488  -1.203  0.00  0.00    -0.283 N 
ATOM     28  C   UNL     1      -1.202  -2.003  -0.596  0.00  0.00    +0.055 A 
ATOM     29  C   UNL     1      -1.190  -0.745   0.009  0.00  0.00    +0.058 A 
ATOM     30  C   UNL     1      -2.336  -0.247   0.602  0.00  0.00    +0.025 A 
ATOM     31  C   UNL     1      -3.496  -1.003   0.596  0.00  0.00    +0.002 A 
ATOM     32  C   UNL     1      -3.509  -2.251   0.002  0.00  0.00    +0.002 A 
ATOM     33  C   UNL     1      -2.366  -2.754  -0.594  0.00  0.00    +0.025 A 
ATOM     34  H   UNL     1      -0.090  -3.254  -1.796  0.00  0.00    +0.155 HD
ENDBRANCH  20  21
ENDBRANCH  19  20
ENDBRANCH   5  19
TORSDOF 5
