REMARK  Name = ZINC14473838
REMARK  3 active torsions:
REMARK  status: ('A' for Active; 'I' for Inactive)
REMARK    1  A    between atoms: C_4  and  O_26
REMARK    2  A    between atoms: C_5  and  C_7
REMARK    3  A    between atoms: C_20  and  C_23
REMARK                            x       y       z     vdW  Elec       q    Type
REMARK                         _______ _______ _______ _____ _____    ______ ____
ROOT
ATOM      1  C   UNL     1       2.184   4.102  -0.600  0.00  0.00    +0.108 C 
ATOM      2  C   UNL     1       3.518   3.690   0.026  0.00  0.00    +0.029 C 
ATOM      3  C   UNL     1       4.657   4.218  -0.891  0.00  0.00    +0.033 C 
ATOM      4  C   UNL     1       4.754   3.166  -1.979  0.00  0.00    -0.030 C 
ATOM      5  C   UNL     1       4.235   2.035  -1.572  0.00  0.00    -0.023 C 
ATOM      6  C   UNL     1       3.710   2.170  -0.161  0.00  0.00    +0.049 C 
ATOM      7  C   UNL     1       2.415   1.429  -0.007  0.00  0.00    -0.019 A 
ATOM      8  C   UNL     1       2.456   0.042   0.006  0.00  0.00    +0.006 A 
ATOM      9  C   UNL     1       1.300  -0.704   0.140  0.00  0.00    +0.001 A 
ATOM     10  C   UNL     1       0.079  -0.076   0.262  0.00  0.00    +0.015 A 
ATOM     11  C   UNL     1       0.016   1.317   0.252  0.00  0.00    +0.058 A 
ATOM     12  C   UNL     1       1.197   2.075   0.119  0.00  0.00    +0.044 A 
ATOM     13  N   UNL     1       1.088   3.456   0.123  0.00  0.00    -0.336 N 
ATOM     14  H   UNL     1       0.193   3.749  -0.240  0.00  0.00    +0.147 HD
ENDROOT
BRANCH   1  19
ATOM     15  C   UNL     1       2.031   7.746  -1.575  0.00  0.00    +0.001 A 
ATOM     16  C   UNL     1       1.747   8.348  -0.363  0.00  0.00    +0.004 A 
ATOM     17  C   UNL     1       1.604   7.578   0.775  0.00  0.00    +0.046 A 
ATOM     18  C   UNL     1       1.745   6.199   0.701  0.00  0.00    +0.122 A 
ATOM     19  C   UNL     1       2.029   5.598  -0.516  0.00  0.00    +0.014 A 
ATOM     20  C   UNL     1       2.177   6.373  -1.651  0.00  0.00    +0.009 A 
BRANCH  18  21
ATOM     21  O   UNL     1       1.605   5.440   1.819  0.00  0.00    -0.506 OA
ATOM     22  H   UNL     1       2.429   5.300   2.305  0.00  0.00    +0.292 HD
ENDBRANCH  18  21
ENDBRANCH   1  19
BRANCH  11  23
ATOM     23  C   UNL     1      -1.286   1.997   0.375  0.00  0.00    +0.243 C 
ATOM     24  O   UNL     1      -1.332   3.207   0.488  0.00  0.00    -0.270 OA
ATOM     25  N   UNL     1      -2.426   1.278   0.362  0.00  0.00    -0.325 N 
ATOM     26  H   UNL     1      -2.389   0.313   0.271  0.00  0.00    +0.145 HD
ATOM     27  H   UNL     1      -3.283   1.726   0.442  0.00  0.00    +0.145 HD
ENDBRANCH  11  23
TORSDOF 3
