REMARK  Name = ZINC40031749
REMARK  8 active torsions:
REMARK  status: ('A' for Active; 'I' for Inactive)
REMARK    1  A    between atoms: C_4  and  C_7
REMARK    2  A    between atoms: C_7  and  O_8
REMARK    3  A    between atoms: O_8  and  C_9
REMARK    4  A    between atoms: C_13  and  C_15
REMARK    5  A    between atoms: N_30  and  C_31
REMARK    6  A    between atoms: C_31  and  C_32
REMARK    7  A    between atoms: C_32  and  C_33
REMARK    8  A    between atoms: C_33  and  O_34
REMARK                            x       y       z     vdW  Elec       q    Type
REMARK                         _______ _______ _______ _____ _____    ______ ____
ROOT
ATOM      1  C   UNL     1       7.507  -2.840   4.289  0.00  0.00    +0.145 C 
ATOM      2  C   UNL     1       7.259  -4.271   4.637  0.00  0.00    +0.072 A 
ATOM      3  C   UNL     1       6.012  -5.033   4.763  0.00  0.00    +0.199 A 
ATOM      4  O   UNL     1       4.928  -4.601   4.413  0.00  0.00    -0.287 OA
ATOM      5  C   UNL     1       6.197  -6.381   5.357  0.00  0.00    +0.065 A 
ATOM      6  C   UNL     1       5.092  -7.147   5.726  0.00  0.00    +0.030 A 
ATOM      7  C   UNL     1       5.282  -8.394   6.280  0.00  0.00    +0.019 A 
ATOM      8  C   UNL     1       6.569  -8.882   6.471  0.00  0.00    +0.019 A 
ATOM      9  C   UNL     1       7.666  -8.135   6.109  0.00  0.00    +0.048 A 
ATOM     10  C   UNL     1       7.500  -6.871   5.543  0.00  0.00    +0.140 A 
ATOM     11  O   UNL     1       8.596  -6.162   5.188  0.00  0.00    -0.450 OA
ATOM     12  C   UNL     1       8.471  -4.861   4.858  0.00  0.00    +0.199 A 
ATOM     13  C   UNL     1       9.521  -3.846   4.668  0.00  0.00    +0.283 C 
ATOM     14  O   UNL     1      10.713  -4.046   4.794  0.00  0.00    -0.267 OA
ATOM     15  N   UNL     1       8.967  -2.660   4.336  0.00  0.00    -0.284 N 
ATOM     16 BR   UNL     1       3.790  -9.442   6.783  0.00  0.00    -0.050 Br
ENDROOT
BRANCH   1  21
ATOM     17  C   UNL     1       5.319  -1.605   1.466  0.00  0.00    +0.121 A 
ATOM     18  C   UNL     1       6.048  -2.007   0.357  0.00  0.00    +0.045 A 
ATOM     19  C   UNL     1       7.245  -2.676   0.525  0.00  0.00    +0.004 A 
ATOM     20  C   UNL     1       7.716  -2.945   1.797  0.00  0.00    +0.006 A 
ATOM     21  C   UNL     1       6.991  -2.545   2.904  0.00  0.00    -0.019 A 
ATOM     22  C   UNL     1       5.796  -1.871   2.742  0.00  0.00    +0.051 A 
BRANCH  17  23
ATOM     23  O   UNL     1       4.141  -0.946   1.304  0.00  0.00    -0.487 OA
BRANCH  23  24
ATOM     24  C   UNL     1       3.711  -0.707  -0.038  0.00  0.00    +0.264 C 
BRANCH  24  28
ATOM     25  C   UNL     1      -0.017   1.378   0.010  0.00  0.00    +0.000 A 
ATOM     26  C   UNL     1       1.171   2.086   0.002  0.00  0.00    +0.000 A 
ATOM     27  C   UNL     1       2.377   1.411  -0.013  0.00  0.00    +0.007 A 
ATOM     28  C   UNL     1       2.396   0.029  -0.020  0.00  0.00    -0.010 A 
ATOM     29  C   UNL     1       1.208  -0.679  -0.012  0.00  0.00    +0.007 A 
ATOM     30  C   UNL     1       0.002  -0.004   0.002  0.00  0.00    +0.000 A 
ENDBRANCH  24  28
ENDBRANCH  23  24
ENDBRANCH  17  23
ENDBRANCH   1  21
BRANCH  15  31
ATOM     31  C   UNL     1       9.691  -1.415   4.067  0.00  0.00    +0.111 C 
BRANCH  31  32
ATOM     32  C   UNL     1       9.855  -0.630   5.370  0.00  0.00    +0.047 C 
BRANCH  32  33
ATOM     33  C   UNL     1      10.610   0.671   5.089  0.00  0.00    +0.157 C 
BRANCH  33  34
ATOM     34  O   UNL     1      10.763   1.405   6.306  0.00  0.00    -0.395 OA
ATOM     35  H   UNL     1      11.235   2.243   6.203  0.00  0.00    +0.209 HD
ENDBRANCH  33  34
ENDBRANCH  32  33
ENDBRANCH  31  32
ENDBRANCH  15  31
TORSDOF 8
