REMARK  Name = ZINC64066284
REMARK  8 active torsions:
REMARK  status: ('A' for Active; 'I' for Inactive)
REMARK    1  A    between atoms: C_7  and  C_10
REMARK    2  A    between atoms: C_10  and  C_12
REMARK    3  A    between atoms: C_10  and  C_30
REMARK    4  A    between atoms: C_12  and  N_13
REMARK    5  A    between atoms: C_14  and  C_16
REMARK    6  A    between atoms: C_16  and  C_17
REMARK    7  A    between atoms: C_17  and  C_19
REMARK    8  A    between atoms: C_17  and  N_26
REMARK                            x       y       z     vdW  Elec       q    Type
REMARK                         _______ _______ _______ _____ _____    ______ ____
ROOT
ATOM      1  N   UNL     1       0.673  -5.240  -1.561  0.00  0.00    -0.314 N 
ATOM      2  C   UNL     1       0.391  -6.097  -2.562  0.00  0.00    +0.215 C 
ATOM      3  O   UNL     1       1.056  -6.086  -3.576  0.00  0.00    -0.276 OA
ATOM      4  H   UNL     1       0.142  -5.249  -0.750  0.00  0.00    +0.149 HD
ENDROOT
BRANCH   1   5
ATOM      5  C   UNL     1       1.784  -4.295  -1.698  0.00  0.00    +0.116 C 
BRANCH   5   6
ATOM      6  C   UNL     1       1.889  -3.444  -0.431  0.00  0.00    +0.066 C 
BRANCH   6  13
ATOM      7  C   UNL     1       1.759   1.142  -0.328  0.00  0.00    +0.001 A 
ATOM      8  C   UNL     1       3.003   1.745  -0.560  0.00  0.00    +0.002 A 
ATOM      9  C   UNL     1       4.126   1.033  -0.791  0.00  0.00    +0.026 A 
ATOM     10  C   UNL     1       4.086  -0.388  -0.807  0.00  0.00    +0.043 A 
ATOM     11  N   UNL     1       5.021  -1.286  -1.005  0.00  0.00    -0.380 N 
ATOM     12  C   UNL     1       4.417  -2.619  -0.909  0.00  0.00    +0.145 C 
ATOM     13  C   UNL     1       2.950  -2.391  -0.619  0.00  0.00    -0.033 C 
ATOM     14  C   UNL     1       2.784  -1.050  -0.564  0.00  0.00    -0.000 A 
ATOM     15  C   UNL     1       1.610  -0.202  -0.321  0.00  0.00    +0.010 A 
ATOM     16  H   UNL     1       5.956  -1.099  -1.184  0.00  0.00    +0.160 HD
ENDBRANCH   6  13
BRANCH   6  17
ATOM     17  C   UNL     1       2.256  -4.324   0.736  0.00  0.00    -0.020 A 
ATOM     18  C   UNL     1       3.441  -5.036   0.719  0.00  0.00    +0.006 A 
ATOM     19  C   UNL     1       3.778  -5.843   1.789  0.00  0.00    +0.000 A 
ATOM     20  C   UNL     1       2.930  -5.939   2.877  0.00  0.00    +0.001 A 
ATOM     21  C   UNL     1       1.746  -5.227   2.896  0.00  0.00    +0.020 A 
ATOM     22  C   UNL     1       1.411  -4.415   1.827  0.00  0.00    +0.045 A 
ATOM     23 CL   UNL     1      -0.074  -3.515   1.852  0.00  0.00    -0.083 Cl
ENDBRANCH   6  17
ENDBRANCH   5   6
ENDBRANCH   1   5
BRANCH   2  24
ATOM     24  C   UNL     1      -0.752  -7.069  -2.421  0.00  0.00    +0.123 C 
BRANCH  24  25
ATOM     25  C   UNL     1      -0.857  -7.920  -3.688  0.00  0.00    +0.116 C 
BRANCH  25  26
ATOM     26  C   UNL     1      -1.918  -8.973  -3.500  0.00  0.00    +0.008 A 
ATOM     27  C   UNL     1      -2.818  -8.869  -2.456  0.00  0.00    +0.008 A 
ATOM     28  C   UNL     1      -3.792  -9.835  -2.283  0.00  0.00    +0.000 A 
ATOM     29  C   UNL     1      -3.867 -10.906  -3.153  0.00  0.00    +0.003 A 
ATOM     30  C   UNL     1      -2.968 -11.013  -4.198  0.00  0.00    +0.039 A 
ATOM     31  C   UNL     1      -1.996 -10.043  -4.375  0.00  0.00    +0.128 A 
ATOM     32  F   UNL     1      -1.120 -10.144  -5.399  0.00  0.00    -0.205 F 
ENDBRANCH  25  26
BRANCH  25  33
ATOM     33  N   UNL     1      -1.214  -7.065  -4.823  0.00  0.00    -0.292 N 
ATOM     34  C   UNL     1      -2.409  -6.442  -4.847  0.00  0.00    +0.298 C 
ATOM     35  O   UNL     1      -3.152  -6.514  -3.887  0.00  0.00    -0.253 OA
ATOM     36  N   UNL     1      -2.780  -5.740  -5.936  0.00  0.00    -0.313 N 
ATOM     37  H   UNL     1      -0.590  -6.947  -5.556  0.00  0.00    +0.151 HD
ATOM     38  H   UNL     1      -2.188  -5.683  -6.702  0.00  0.00    +0.146 HD
ATOM     39  H   UNL     1      -3.641  -5.292  -5.954  0.00  0.00    +0.146 HD
ENDBRANCH  25  33
ENDBRANCH  24  25
ENDBRANCH   2  24
TORSDOF 8
