REMARK  Name = ZINC02659954
REMARK  6 active torsions:
REMARK  status: ('A' for Active; 'I' for Inactive)
REMARK    1  A    between atoms: C_1  and  C_2
REMARK    2  A    between atoms: C_4  and  C_14
REMARK    3  A    between atoms: C_5  and  C_13
REMARK    4  A    between atoms: N_6  and  C_7
REMARK    5  A    between atoms: N_16  and  N_17
REMARK    6  A    between atoms: C_18  and  C_20
REMARK                            x       y       z     vdW  Elec       q    Type
REMARK                         _______ _______ _______ _____ _____    ______ ____
ROOT
ATOM      1  C   UNL     1       1.141   2.087   0.002  0.00  0.00    +0.262 C 
ATOM      2  O   UNL     1       2.202   1.493  -0.011  0.00  0.00    -0.269 OA
ATOM      3  N   UNL     1      -0.017   1.397   0.010  0.00  0.00    -0.230 N 
ATOM      4  H   UNL     1      -0.864   1.870   0.016  0.00  0.00    +0.173 HD
ENDROOT
BRANCH   1   8
ATOM      5  C   UNL     1      -0.467   6.929   0.044  0.00  0.00    +0.064 C 
ATOM      6  C   UNL     1       0.391   5.690   0.029  0.00  0.00    +0.022 A 
ATOM      7  C   UNL     1      -0.064   4.424   0.027  0.00  0.00    +0.036 A 
ATOM      8  C   UNL     1       1.121   3.559   0.011  0.00  0.00    +0.059 A 
ATOM      9  C   UNL     1       2.203   4.395   0.010  0.00  0.00    +0.033 A 
ATOM     10  N   UNL     1       1.757   5.668   0.015  0.00  0.00    -0.317 N 
ATOM     11  C   UNL     1       3.648   3.967   0.002  0.00  0.00    +0.064 C 
BRANCH  10  12
ATOM     12  C   UNL     1       2.577   6.805   0.013  0.00  0.00    +0.047 A 
ATOM     13  C   UNL     1       3.389   7.075  -1.080  0.00  0.00    +0.026 A 
ATOM     14  C   UNL     1       4.192   8.198  -1.081  0.00  0.00    +0.002 A 
ATOM     15  C   UNL     1       4.196   9.049   0.009  0.00  0.00    +0.000 A 
ATOM     16  C   UNL     1       3.392   8.780   1.102  0.00  0.00    +0.002 A 
ATOM     17  C   UNL     1       2.582   7.661   1.107  0.00  0.00    +0.026 A 
ENDBRANCH  10  12
ENDBRANCH   1   8
BRANCH   3  18
ATOM     18  N   UNL     1       0.002  -0.004   0.002  0.00  0.00    -0.230 N 
ATOM     19  C   UNL     1      -1.156  -0.694   0.009  0.00  0.00    +0.267 C 
ATOM     20  O   UNL     1      -2.217  -0.100   0.023  0.00  0.00    -0.268 OA
ATOM     21  H   UNL     1       0.849  -0.478  -0.009  0.00  0.00    +0.173 HD
BRANCH  19  22
ATOM     22  C   UNL     1      -1.136  -2.166   0.001  0.00  0.00    +0.123 A 
ATOM     23  C   UNL     1       0.065  -2.854  -0.020  0.00  0.00    +0.031 A 
ATOM     24  C   UNL     1       0.037  -4.272  -0.021  0.00  0.00    +0.018 A 
ATOM     25  C   UNL     1       1.236  -5.001  -0.036  0.00  0.00    +0.011 A 
ATOM     26  C   UNL     1       1.202  -6.366  -0.043  0.00  0.00    +0.001 A 
ATOM     27  C   UNL     1      -0.012  -7.040  -0.036  0.00  0.00    +0.004 A 
ATOM     28  C   UNL     1      -1.202  -6.343  -0.021  0.00  0.00    +0.047 A 
ATOM     29  C   UNL     1      -1.193  -4.953  -0.013  0.00  0.00    +0.139 A 
ATOM     30  O   UNL     1      -2.360  -4.273   0.001  0.00  0.00    -0.422 OA
ATOM     31  C   UNL     1      -2.389  -2.930   0.009  0.00  0.00    +0.350 A 
ATOM     32  O   UNL     1      -3.456  -2.346   0.022  0.00  0.00    -0.244 OA
ENDBRANCH  19  22
ENDBRANCH   3  18
TORSDOF 4
