REMARK  Name = ZINC21006876
REMARK  11 active torsions:
REMARK  status: ('A' for Active; 'I' for Inactive)
REMARK    1  A    between atoms: C_1  and  C_2
REMARK    2  A    between atoms: C_2  and  C_3
REMARK    3  A    between atoms: C_2  and  C_4
REMARK    4  A    between atoms: C_2  and  C_5
REMARK    5  A    between atoms: C_8  and  O_31
REMARK    6  A    between atoms: C_9  and  N_11
REMARK    7  A    between atoms: C_12  and  C_14
REMARK    8  A    between atoms: C_18  and  S_20
REMARK    9  A    between atoms: S_20  and  N_23
REMARK   10  A    between atoms: N_23  and  C_24
REMARK   11  A    between atoms: C_24  and  C_25
REMARK                            x       y       z     vdW  Elec       q    Type
REMARK                         _______ _______ _______ _____ _____    ______ ____
ROOT
ATOM      1  C   UNL     1       6.008   1.081  -2.304  0.00  0.00    +0.039 A 
ATOM      2  C   UNL     1       6.657   0.634  -3.457  0.00  0.00    +0.013 A 
ATOM      3  C   UNL     1       7.938   1.067  -3.734  0.00  0.00    +0.003 A 
ATOM      4  C   UNL     1       8.578   1.941  -2.873  0.00  0.00    +0.028 A 
ATOM      5  C   UNL     1       7.940   2.387  -1.730  0.00  0.00    +0.106 A 
ATOM      6  C   UNL     1       6.657   1.966  -1.443  0.00  0.00    +0.041 A 
ENDROOT
BRANCH   1   8
ATOM      7  N   UNL     1       4.011  -0.234  -2.834  0.00  0.00    -0.279 N 
ATOM      8  C   UNL     1       4.636   0.622  -2.001  0.00  0.00    +0.248 C 
ATOM      9  O   UNL     1       4.070   1.016  -1.000  0.00  0.00    -0.270 OA
ATOM     10  H   UNL     1       4.485  -0.599  -3.598  0.00  0.00    +0.155 HD
BRANCH   7  15
ATOM     11  C   UNL     1       0.900  -1.085  -1.066  0.00  0.00    -0.040 A 
ATOM     12  C   UNL     1       0.044  -1.310  -2.129  0.00  0.00    +0.008 A 
ATOM     13  C   UNL     1       0.500  -1.180  -3.428  0.00  0.00    +0.047 A 
ATOM     14  C   UNL     1       1.817  -0.823  -3.668  0.00  0.00    +0.138 A 
ATOM     15  C   UNL     1       2.679  -0.595  -2.598  0.00  0.00    +0.076 A 
ATOM     16  C   UNL     1       2.214  -0.724  -1.297  0.00  0.00    +0.031 A 
BRANCH  11  18
ATOM     17  C   UNL     1       0.549   0.105   1.081  0.00  0.00    +0.015 C 
ATOM     18  C   UNL     1       0.398  -1.229   0.347  0.00  0.00    -0.013 C 
ATOM     19  C   UNL     1       1.211  -2.304   1.071  0.00  0.00    +0.015 C 
ATOM     20  C   UNL     1      -1.077  -1.635   0.325  0.00  0.00    +0.015 C 
ENDBRANCH  11  18
BRANCH  14  21
ATOM     21  O   UNL     1       2.266  -0.694  -4.945  0.00  0.00    -0.505 OA
ATOM     22  H   UNL     1       2.165   0.196  -5.310  0.00  0.00    +0.292 HD
ENDBRANCH  14  21
ENDBRANCH   7  15
ENDBRANCH   1   8
BRANCH   5  23
ATOM     23  S   UNL     1       8.764   3.499  -0.640  0.00  0.00    +0.059 S 
ATOM     24  O   UNL     1       8.161   3.339   0.637  0.00  0.00    -0.153 OA
ATOM     25  O   UNL     1      10.158   3.318  -0.852  0.00  0.00    -0.153 OA
BRANCH  23  26
ATOM     26  N   UNL     1       8.405   5.035  -1.144  0.00  0.00    -0.187 NA
ATOM     27  H   UNL     1       9.107   5.611  -1.483  0.00  0.00    +0.148 HD
BRANCH  26  28
ATOM     28  C   UNL     1       7.025   5.524  -1.077  0.00  0.00    +0.137 C 
BRANCH  28  29
ATOM     29  C   UNL     1       7.015   7.045  -1.235  0.00  0.00    +0.134 C 
ATOM     30  C   UNL     1       5.580   7.582  -1.045  0.00  0.00    +0.035 C 
ATOM     31  C   UNL     1       5.499   8.696  -2.125  0.00  0.00    +0.031 C 
ATOM     32  C   UNL     1       6.380   8.084  -3.244  0.00  0.00    +0.160 C 
ATOM     33  O   UNL     1       7.441   7.400  -2.556  0.00  0.00    -0.375 OA
ENDBRANCH  28  29
ENDBRANCH  26  28
ENDBRANCH  23  26
ENDBRANCH   5  23
TORSDOF 8
