REMARK  Name = ZINC15972057
REMARK  7 active torsions:
REMARK  status: ('A' for Active; 'I' for Inactive)
REMARK    1  A    between atoms: C_1  and  C_2
REMARK    2  A    between atoms: C_2  and  C_3
REMARK    3  A    between atoms: C_2  and  C_4
REMARK    4  A    between atoms: C_2  and  N_5
REMARK    5  A    between atoms: C_25  and  C_27
REMARK    6  A    between atoms: C_27  and  C_29
REMARK    7  A    between atoms: C_27  and  O_36
REMARK                            x       y       z     vdW  Elec       q    Type
REMARK                         _______ _______ _______ _____ _____    ______ ____
ROOT
ATOM      1  N   UNL     1       0.688  -0.476  -1.203  0.00  0.00    -0.236 N 
ATOM      2  C   UNL     1       0.091  -1.247  -2.120  0.00  0.00    +0.228 C 
ATOM      3  O   UNL     1      -1.056  -1.638  -2.068  0.00  0.00    -0.275 OA
ATOM      4  C   UNL     1       1.069  -1.554  -3.232  0.00  0.00    +0.110 C 
ATOM      5  C   UNL     1       2.360  -0.810  -2.788  0.00  0.00    +0.123 C 
ATOM      6  C   UNL     1       1.960  -0.168  -1.479  0.00  0.00    +0.229 C 
ATOM      7  O   UNL     1       2.680   0.517  -0.787  0.00  0.00    -0.275 OA
ATOM      8  C   UNL     1       3.385  -1.925  -2.550  0.00  0.00    +0.136 C 
ATOM      9  C   UNL     1       4.768  -1.498  -2.950  0.00  0.00    +0.003 A 
ATOM     10  C   UNL     1       5.321  -1.062  -4.134  0.00  0.00    +0.008 A 
ATOM     11  C   UNL     1       6.664  -0.734  -4.192  0.00  0.00    +0.000 A 
ATOM     12  C   UNL     1       7.449  -0.845  -3.059  0.00  0.00    +0.002 A 
ATOM     13  C   UNL     1       6.900  -1.280  -1.870  0.00  0.00    +0.023 A 
ATOM     14  C   UNL     1       5.548  -1.613  -1.803  0.00  0.00    +0.039 A 
ATOM     15  N   UNL     1       4.773  -2.068  -0.735  0.00  0.00    -0.283 N 
ATOM     16  C   UNL     1       3.490  -2.274  -1.090  0.00  0.00    +0.243 C 
ATOM     17  O   UNL     1       2.593  -2.663  -0.372  0.00  0.00    -0.273 OA
ATOM     18  N   UNL     1       2.922  -3.078  -3.345  0.00  0.00    -0.293 NA
ATOM     19  C   UNL     1       1.425  -3.056  -3.192  0.00  0.00    +0.101 C 
ATOM     20  H   UNL     1       5.118  -2.219   0.159  0.00  0.00    +0.155 HD
ATOM     21  H   UNL     1       3.190  -2.981  -4.313  0.00  0.00    +0.124 HD
ENDROOT
BRANCH   1  23
ATOM     22  C   UNL     1      -0.019   1.526   0.010  0.00  0.00    +0.031 C 
ATOM     23  C   UNL     1       0.002  -0.004   0.002  0.00  0.00    +0.036 C 
ATOM     24  C   UNL     1       0.742  -0.511   1.242  0.00  0.00    +0.031 C 
ATOM     25  C   UNL     1      -1.433  -0.534   0.013  0.00  0.00    +0.031 C 
ENDBRANCH   1  23
BRANCH  19  26
ATOM     26  C   UNL     1       0.759  -3.792  -4.356  0.00  0.00    +0.162 C 
BRANCH  26  27
ATOM     27  C   UNL     1       1.119  -5.254  -4.298  0.00  0.00    -0.018 A 
ATOM     28  C   UNL     1       2.347  -5.683  -4.767  0.00  0.00    +0.007 A 
ATOM     29  C   UNL     1       2.677  -7.024  -4.713  0.00  0.00    +0.020 A 
ATOM     30  C   UNL     1       1.779  -7.937  -4.190  0.00  0.00    +0.041 A 
ATOM     31  C   UNL     1       0.550  -7.507  -3.721  0.00  0.00    +0.020 A 
ATOM     32  C   UNL     1       0.223  -6.165  -3.770  0.00  0.00    +0.007 A 
ATOM     33 CL   UNL     1       2.193  -9.621  -4.123  0.00  0.00    -0.084 Cl
ENDBRANCH  26  27
BRANCH  26  34
ATOM     34  O   UNL     1       1.214  -3.238  -5.593  0.00  0.00    -0.386 OA
ATOM     35  H   UNL     1       2.171  -3.302  -5.723  0.00  0.00    +0.210 HD
ENDBRANCH  26  34
ENDBRANCH  19  26
TORSDOF 4
