REMARK  Name = ZINC64792356
REMARK  8 active torsions:
REMARK  status: ('A' for Active; 'I' for Inactive)
REMARK    1  A    between atoms: C_1  and  C_2
REMARK    2  A    between atoms: C_2  and  N_3
REMARK    3  A    between atoms: C_7  and  C_30
REMARK    4  A    between atoms: C_13  and  C_16
REMARK    5  A    between atoms: C_14  and  C_15
REMARK    6  A    between atoms: C_16  and  C_17
REMARK    7  A    between atoms: C_17  and  C_18
REMARK    8  A    between atoms: N_20  and  C_21
REMARK                            x       y       z     vdW  Elec       q    Type
REMARK                         _______ _______ _______ _____ _____    ______ ____
ROOT
ATOM      1  N   UNL     1       0.618  -0.573   1.153  0.00  0.00    -0.302 N 
ATOM      2  C   UNL     1       2.055  -0.829   0.984  0.00  0.00    +0.254 C 
ATOM      3  N   UNL     1       2.334  -1.240  -0.417  0.00  0.00    -0.262 NA
ATOM      4  C   UNL     1       3.529  -2.111  -0.228  0.00  0.00    +0.173 C 
ATOM      5  N   UNL     1       3.281  -2.784   1.069  0.00  0.00    -0.213 NA
ATOM      6  N   UNL     1       2.368  -2.043   1.773  0.00  0.00    -0.197 N 
ATOM      7  C   UNL     1       1.763  -2.328   2.944  0.00  0.00    +0.260 C 
ATOM      8  O   UNL     1       2.178  -3.213   3.670  0.00  0.00    -0.269 OA
ATOM      9  C   UNL     1       0.624  -1.557   3.301  0.00  0.00    +0.033 C 
ATOM     10  C   UNL     1       0.086  -0.691   2.413  0.00  0.00    +0.014 C 
ATOM     11  C   UNL     1      -1.105   0.145   2.804  0.00  0.00    +0.061 C 
ATOM     12  H   UNL     1       1.561  -1.764  -0.800  0.00  0.00    +0.127 HD
ATOM     13  H   UNL     1       2.958  -3.729   0.929  0.00  0.00    +0.147 HD
ENDROOT
BRANCH   4  14
ATOM     14  C   UNL     1       3.627  -3.122  -1.341  0.00  0.00    -0.015 A 
ATOM     15  C   UNL     1       3.146  -2.814  -2.599  0.00  0.00    +0.006 A 
ATOM     16  C   UNL     1       3.236  -3.741  -3.620  0.00  0.00    +0.000 A 
ATOM     17  C   UNL     1       3.808  -4.977  -3.383  0.00  0.00    +0.000 A 
ATOM     18  C   UNL     1       4.290  -5.285  -2.124  0.00  0.00    +0.000 A 
ATOM     19  C   UNL     1       4.204  -4.356  -1.105  0.00  0.00    +0.006 A 
ENDBRANCH   4  14
BRANCH   1  21
ATOM     20  C   UNL     1      -0.229   1.327  -0.134  0.00  0.00    +0.024 C 
ATOM     21  C   UNL     1      -0.220  -0.196   0.012  0.00  0.00    +0.104 C 
ENDBRANCH   1  21
BRANCH   9  22
ATOM     22  C   UNL     1       0.017  -1.701   4.673  0.00  0.00    +0.051 C 
BRANCH  22  23
ATOM     23  C   UNL     1      -0.977  -2.864   4.671  0.00  0.00    +0.101 C 
BRANCH  23  24
ATOM     24  C   UNL     1      -1.584  -3.008   6.043  0.00  0.00    +0.216 C 
ATOM     25  O   UNL     1      -1.254  -2.254   6.934  0.00  0.00    -0.276 OA
ATOM     26  N   UNL     1      -2.493  -3.974   6.280  0.00  0.00    -0.278 N 
ATOM     27  H   UNL     1      -2.757  -4.577   5.567  0.00  0.00    +0.152 HD
BRANCH  26  28
ATOM     28  C   UNL     1      -3.083  -4.114   7.614  0.00  0.00    +0.269 C 
ATOM     29  N   UNL     1      -2.139  -4.788   8.514  0.00  0.00    -0.348 N 
ATOM     30  C   UNL     1      -2.706  -5.887   8.921  0.00  0.00    +0.061 A 
ATOM     31  C   UNL     1      -2.267  -6.963   9.821  0.00  0.00    +0.027 A 
ATOM     32  C   UNL     1      -3.088  -8.004  10.062  0.00  0.00    +0.002 A 
ATOM     33  C   UNL     1      -4.366  -8.111   9.486  0.00  0.00    +0.002 A 
ATOM     34  C   UNL     1      -4.865  -7.181   8.647  0.00  0.00    +0.027 A 
ATOM     35  C   UNL     1      -4.058  -6.000   8.311  0.00  0.00    +0.061 A 
ATOM     36  N   UNL     1      -4.276  -4.967   7.550  0.00  0.00    -0.348 N 
ATOM     37  H   UNL     1      -1.256  -4.472   8.760  0.00  0.00    +0.163 HD
ATOM     38  H   UNL     1      -5.080  -4.793   7.035  0.00  0.00    +0.163 HD
ENDBRANCH  26  28
ENDBRANCH  23  24
ENDBRANCH  22  23
ENDBRANCH   9  22
TORSDOF 6
