REMARK  Name = ZINC43065016
REMARK  11 active torsions:
REMARK  status: ('A' for Active; 'I' for Inactive)
REMARK    1  A    between atoms: C_1  and  C_2
REMARK    2  A    between atoms: C_3  and  S_8
REMARK    3  A    between atoms: C_4  and  C_7
REMARK    4  A    between atoms: S_8  and  N_11
REMARK    5  A    between atoms: C_17  and  C_23
REMARK    6  A    between atoms: N_18  and  C_19
REMARK    7  A    between atoms: C_19  and  C_20
REMARK    8  A    between atoms: C_23  and  C_24
REMARK    9  A    between atoms: C_24  and  C_25
REMARK   10  A    between atoms: C_24  and  C_26
REMARK   11  A    between atoms: C_24  and  C_27
REMARK                            x       y       z     vdW  Elec       q    Type
REMARK                         _______ _______ _______ _____ _____    ______ ____
ROOT
ATOM      1  N   UNL     1       1.570  -0.091  -3.285  0.00  0.00    -0.170 NA
ATOM      2  C   UNL     1       2.274   1.186  -3.095  0.00  0.00    +0.116 C 
ATOM      3  C   UNL     1       3.430   0.980  -2.107  0.00  0.00    +0.072 C 
ATOM      4  C   UNL     1       4.164  -0.283  -2.476  0.00  0.00    +0.042 A 
ATOM      5  C   UNL     1       3.670  -1.259  -3.268  0.00  0.00    +0.053 A 
ATOM      6  N   UNL     1       4.592  -2.219  -3.369  0.00  0.00    -0.346 N 
ATOM      7  C   UNL     1       5.644  -1.876  -2.671  0.00  0.00    +0.088 A 
ATOM      8  N   UNL     1       5.414  -0.671  -2.100  0.00  0.00    -0.332 N 
ATOM      9  C   UNL     1       2.304  -1.211  -3.900  0.00  0.00    +0.164 C 
ATOM     10  H   UNL     1       4.498  -3.039  -3.877  0.00  0.00    +0.167 HD
ENDROOT
BRANCH   1  11
ATOM     11  S   UNL     1      -0.008  -0.267  -2.813  0.00  0.00    +0.066 S 
ATOM     12  O   UNL     1      -0.547  -1.328  -3.589  0.00  0.00    -0.153 OA
ATOM     13  O   UNL     1      -0.577   1.035  -2.802  0.00  0.00    -0.153 OA
BRANCH  11  16
ATOM     14  C   UNL     1      -0.018   1.503   0.010  0.00  0.00    +0.071 C 
ATOM     15  C   UNL     1       0.002  -0.004   0.002  0.00  0.00    +0.107 A 
ATOM     16  C   UNL     1       0.008  -0.824  -1.141  0.00  0.00    +0.170 A 
ATOM     17  C   UNL     1       0.027  -2.108  -0.735  0.00  0.00    +0.161 A 
ATOM     18  O   UNL     1       0.034  -2.119   0.606  0.00  0.00    -0.358 OA
ATOM     19  N   UNL     1       0.023  -0.775   1.052  0.00  0.00    -0.081 NA
ATOM     20  C   UNL     1       0.039  -3.320  -1.631  0.00  0.00    +0.091 C 
ENDBRANCH  11  16
ENDBRANCH   1  11
BRANCH   8  21
ATOM     21  C   UNL     1       6.336   0.075  -1.239  0.00  0.00    +0.126 C 
BRANCH  21  22
ATOM     22  C   UNL     1       6.104  -0.322   0.220  0.00  0.00    +0.009 C 
ATOM     23  C   UNL     1       5.609   0.764   1.177  0.00  0.00    +0.005 C 
ATOM     24  C   UNL     1       7.051   0.263   1.270  0.00  0.00    +0.005 C 
ENDBRANCH  21  22
ENDBRANCH   8  21
BRANCH   7  25
ATOM     25  C   UNL     1       6.905  -2.688  -2.528  0.00  0.00    +0.078 C 
BRANCH  25  26
ATOM     26  C   UNL     1       7.835  -2.399  -3.708  0.00  0.00    -0.031 C 
ATOM     27  C   UNL     1       8.188  -0.910  -3.727  0.00  0.00    +0.011 C 
ATOM     28  C   UNL     1       9.116  -3.224  -3.563  0.00  0.00    +0.011 C 
ATOM     29  C   UNL     1       7.133  -2.773  -5.015  0.00  0.00    +0.011 C 
ENDBRANCH  25  26
ENDBRANCH   7  25
TORSDOF 6
