REMARK  Name = ZINC14986145
REMARK  10 active torsions:
REMARK  status: ('A' for Active; 'I' for Inactive)
REMARK    1  A    between atoms: C_1  and  C_2
REMARK    2  A    between atoms: C_7  and  C_8
REMARK    3  A    between atoms: C_8  and  S_9
REMARK    4  A    between atoms: S_9  and  C_10
REMARK    5  A    between atoms: C_13  and  C_22
REMARK    6  A    between atoms: N_14  and  C_15
REMARK    7  A    between atoms: C_22  and  C_23
REMARK    8  A    between atoms: C_23  and  N_24
REMARK    9  A    between atoms: N_24  and  S_25
REMARK   10  A    between atoms: S_25  and  C_28
REMARK                            x       y       z     vdW  Elec       q    Type
REMARK                         _______ _______ _______ _____ _____    ______ ____
ROOT
ATOM      1  C   UNL     1      -1.388   1.185   4.552  0.00  0.00    +0.196 A 
ATOM      2  N   UNL     1      -0.217   1.492   5.062  0.00  0.00    -0.122 NA
ATOM      3  N   UNL     1      -0.375   2.126   6.168  0.00  0.00    -0.133 NA
ATOM      4  C   UNL     1      -1.644   2.254   6.435  0.00  0.00    +0.140 A 
ATOM      5  N   UNL     1      -2.337   1.659   5.415  0.00  0.00    -0.274 N 
ENDROOT
BRANCH   5   6
ATOM      6  C   UNL     1      -3.730   1.557   5.283  0.00  0.00    +0.050 A 
ATOM      7  C   UNL     1      -4.499   2.702   5.123  0.00  0.00    +0.029 A 
ATOM      8  C   UNL     1      -5.870   2.599   4.987  0.00  0.00    +0.040 A 
ATOM      9  C   UNL     1      -6.478   1.355   5.022  0.00  0.00    +0.124 A 
ATOM     10  C   UNL     1      -5.713   0.213   5.188  0.00  0.00    +0.040 A 
ATOM     11  C   UNL     1      -4.342   0.312   5.318  0.00  0.00    +0.029 A 
ATOM     12  F   UNL     1      -7.819   1.257   4.895  0.00  0.00    -0.205 F 
ENDBRANCH   5   6
BRANCH   1  13
ATOM     13  S   UNL     1      -1.680   0.321   3.045  0.00  0.00    -0.081 S 
BRANCH  13  14
ATOM     14  C   UNL     1       0.025   0.045   2.504  0.00  0.00    +0.112 C 
BRANCH  14  21
ATOM     15  C   UNL     1      -0.018   1.503   0.010  0.00  0.00    +0.044 C 
ATOM     16  C   UNL     1       0.002  -0.004   0.002  0.00  0.00    -0.046 A 
ATOM     17  C   UNL     1      -0.006  -0.689  -1.199  0.00  0.00    +0.003 A 
ATOM     18  C   UNL     1       0.018  -2.071  -1.207  0.00  0.00    +0.000 A 
ATOM     19  C   UNL     1       0.039  -2.768  -0.013  0.00  0.00    +0.000 A 
ATOM     20  C   UNL     1       0.041  -2.084   1.188  0.00  0.00    +0.005 A 
ATOM     21  C   UNL     1       0.023  -0.702   1.195  0.00  0.00    -0.034 A 
ENDBRANCH  14  21
ENDBRANCH  13  14
ENDBRANCH   1  13
BRANCH   4  22
ATOM     22  C   UNL     1      -2.239   2.931   7.643  0.00  0.00    +0.093 C 
BRANCH  22  23
ATOM     23  C   UNL     1      -2.415   1.907   8.766  0.00  0.00    +0.113 C 
BRANCH  23  24
ATOM     24  N   UNL     1      -2.993   2.565   9.941  0.00  0.00    -0.189 NA
ATOM     25  H   UNL     1      -2.999   3.533  10.001  0.00  0.00    +0.148 HD
BRANCH  24  26
ATOM     26  S   UNL     1      -3.638   1.656  11.166  0.00  0.00    +0.064 S 
ATOM     27  O   UNL     1      -4.086   2.570  12.157  0.00  0.00    -0.153 OA
ATOM     28  O   UNL     1      -4.503   0.708  10.556  0.00  0.00    -0.153 OA
BRANCH  26  29
ATOM     29  C   UNL     1      -2.316   0.741  11.886  0.00  0.00    +0.175 A 
ATOM     30  C   UNL     1      -2.001  -0.517  11.402  0.00  0.00    +0.152 A 
ATOM     31  C   UNL     1      -0.959  -1.234  11.966  0.00  0.00    +0.040 A 
ATOM     32  C   UNL     1      -0.240  -0.698  13.018  0.00  0.00    +0.006 A 
ATOM     33  C   UNL     1      -0.557   0.556  13.505  0.00  0.00    +0.040 A 
ATOM     34  C   UNL     1      -1.595   1.276  12.939  0.00  0.00    +0.152 A 
ATOM     35  F   UNL     1      -1.905   2.502  13.416  0.00  0.00    -0.203 F 
ATOM     36  F   UNL     1      -2.707  -1.044  10.378  0.00  0.00    -0.203 F 
ENDBRANCH  26  29
ENDBRANCH  24  26
ENDBRANCH  23  24
ENDBRANCH  22  23
ENDBRANCH   4  22
TORSDOF 9
