REMARK  Name = ZINC63205754
REMARK  9 active torsions:
REMARK  status: ('A' for Active; 'I' for Inactive)
REMARK    1  A    between atoms: C_1  and  C_2
REMARK    2  A    between atoms: C_3  and  C_35
REMARK    3  A    between atoms: C_11  and  C_13
REMARK    4  A    between atoms: C_13  and  N_14
REMARK    5  A    between atoms: N_17  and  C_20
REMARK    6  A    between atoms: C_20  and  C_21
REMARK    7  A    between atoms: N_23  and  C_24
REMARK    8  A    between atoms: C_24  and  C_25
REMARK    9  A    between atoms: C_25  and  C_26
REMARK                            x       y       z     vdW  Elec       q    Type
REMARK                         _______ _______ _______ _____ _____    ______ ____
ROOT
ATOM      1  N   UNL     1       0.104  -4.815   4.051  0.00  0.00    +0.386 N 
ATOM      2  C   UNL     1       1.356  -5.060   3.322  0.00  0.00    -0.063 C 
ATOM      3  C   UNL     1       1.363  -6.495   2.789  0.00  0.00    +0.066 C 
ATOM      4  N   UNL     1       1.239  -7.433   3.914  0.00  0.00    -0.298 NA
ATOM      5  C   UNL     1       0.002  -7.183   4.668  0.00  0.00    +0.066 C 
ATOM      6  C   UNL     1       0.006  -5.743   5.186  0.00  0.00    -0.063 C 
ATOM      7  H   UNL     1      -0.679  -4.958   3.431  0.00  0.00    -0.081 HD
ENDROOT
BRANCH   1   8
ATOM      8  C   UNL     1       0.090  -3.432   4.547  0.00  0.00    -0.003 C 
BRANCH   8  19
ATOM      9  C   UNL     1      -0.018   1.503   0.010  0.00  0.00    +0.045 C 
ATOM     10  C   UNL     1       0.002  -0.004   0.002  0.00  0.00    -0.026 A 
ATOM     11  C   UNL     1       0.006  -0.677  -1.160  0.00  0.00    -0.008 A 
ATOM     12  S   UNL     1       0.032  -2.385  -0.648  0.00  0.00    -0.073 S 
ATOM     13  C   UNL     1       0.037  -2.144   1.110  0.00  0.00    +0.116 A 
ATOM     14  C   UNL     1       0.024  -0.745   1.250  0.00  0.00    +0.075 A 
ATOM     15  C   UNL     1       0.029  -0.257   2.597  0.00  0.00    +0.260 A 
ATOM     16  O   UNL     1       0.014   0.942   2.821  0.00  0.00    -0.267 OA
ATOM     17  N   UNL     1       0.051  -1.142   3.611  0.00  0.00    -0.312 N 
ATOM     18  H   UNL     1       0.054  -0.817   4.525  0.00  0.00    +0.170 HD
ATOM     19  C   UNL     1       0.067  -2.480   3.380  0.00  0.00    +0.094 A 
ATOM     20  N   UNL     1       0.053  -2.956   2.163  0.00  0.00    -0.229 NA
ATOM     21  C   UNL     1      -0.009  -0.122  -2.561  0.00  0.00    +0.052 C 
ENDBRANCH   8  19
ENDBRANCH   1   8
BRANCH   4  22
ATOM     22  C   UNL     1       1.299  -8.824   3.447  0.00  0.00    +0.180 C 
BRANCH  22  23
ATOM     23  C   UNL     1       1.416  -9.747   4.633  0.00  0.00    +0.227 C 
ATOM     24  O   UNL     1       1.446  -9.290   5.756  0.00  0.00    -0.274 OA
ATOM     25  N   UNL     1       1.486 -11.080   4.446  0.00  0.00    -0.314 N 
ATOM     26  H   UNL     1       1.462 -11.445   3.548  0.00  0.00    +0.149 HD
BRANCH  25  27
ATOM     27  C   UNL     1       1.600 -11.977   5.599  0.00  0.00    +0.108 C 
BRANCH  27  28
ATOM     28  C   UNL     1       1.663 -13.426   5.113  0.00  0.00    +0.052 C 
BRANCH  28  29
ATOM     29  C   UNL     1       1.780 -14.349   6.299  0.00  0.00    -0.040 C 
ATOM     30  C   UNL     1       0.771 -14.990   6.933  0.00  0.00    -0.001 A 
ATOM     31  C   UNL     1      -0.680 -15.018   6.717  0.00  0.00    +0.010 A 
ATOM     32  C   UNL     1      -1.450 -15.771   7.535  0.00  0.00    +0.001 A 
ATOM     33  C   UNL     1      -0.898 -16.523   8.581  0.00  0.00    +0.002 A 
ATOM     34  C   UNL     1       0.426 -16.548   8.842  0.00  0.00    +0.026 A 
ATOM     35  C   UNL     1       1.330 -15.793   8.044  0.00  0.00    +0.043 A 
ATOM     36  N   UNL     1       2.632 -15.654   8.095  0.00  0.00    -0.380 N 
ATOM     37  C   UNL     1       3.049 -14.750   7.017  0.00  0.00    +0.144 C 
ATOM     38  H   UNL     1       3.222 -16.080   8.736  0.00  0.00    +0.160 HD
ENDBRANCH  28  29
ENDBRANCH  27  28
ENDBRANCH  25  27
ENDBRANCH  22  23
ENDBRANCH   4  22
TORSDOF 7
