REMARK  Name = ZINC39488086
REMARK  10 active torsions:
REMARK  status: ('A' for Active; 'I' for Inactive)
REMARK    1  A    between atoms: C_1  and  C_2
REMARK    2  A    between atoms: C_2  and  O_3
REMARK    3  A    between atoms: O_3  and  N_4
REMARK    4  A    between atoms: C_6  and  C_32
REMARK    5  A    between atoms: C_6  and  C_33
REMARK    6  A    between atoms: N_7  and  C_10
REMARK    7  A    between atoms: C_10  and  C_11
REMARK    8  A    between atoms: C_11  and  C_26
REMARK    9  A    between atoms: N_14  and  S_17
REMARK   10  A    between atoms: S_17  and  C_20
REMARK                            x       y       z     vdW  Elec       q    Type
REMARK                         _______ _______ _______ _____ _____    ______ ____
ROOT
ATOM      1  C   UNL     1      -0.175  -5.450   2.174  0.00  0.00    -0.008 C 
ATOM      2  C   UNL     1       0.447  -4.291   2.957  0.00  0.00    +0.026 C 
ATOM      3  C   UNL     1       0.398  -3.020   2.104  0.00  0.00    +0.110 C 
ATOM      4  N   UNL     1       1.043  -3.291   0.812  0.00  0.00    -0.177 NA
ATOM      5  C   UNL     1       0.582  -4.439   0.019  0.00  0.00    +0.110 C 
ATOM      6  C   UNL     1       0.630  -5.694   0.895  0.00  0.00    +0.026 C 
ENDROOT
BRANCH   1   7
ATOM      7  C   UNL     1      -0.158  -6.714   3.036  0.00  0.00    -0.003 C 
ATOM      8  C   UNL     1      -0.742  -6.399   4.415  0.00  0.00    +0.004 C 
ATOM      9  C   UNL     1      -0.725  -7.663   5.277  0.00  0.00    +0.000 C 
ATOM     10  C   UNL     1       0.715  -8.155   5.433  0.00  0.00    +0.000 C 
ATOM     11  C   UNL     1       1.299  -8.470   4.055  0.00  0.00    +0.000 C 
ATOM     12  C   UNL     1       1.283  -7.205   3.193  0.00  0.00    +0.004 C 
ENDBRANCH   1   7
BRANCH   4  13
ATOM     13  S   UNL     1       2.267  -2.321   0.261  0.00  0.00    +0.061 S 
ATOM     14  O   UNL     1       2.290  -2.460  -1.153  0.00  0.00    -0.153 OA
ATOM     15  O   UNL     1       2.107  -1.062   0.900  0.00  0.00    -0.153 OA
BRANCH  13  16
ATOM     16  C   UNL     1       3.780  -3.001   0.858  0.00  0.00    +0.105 A 
ATOM     17  C   UNL     1       4.282  -2.599   2.081  0.00  0.00    +0.028 A 
ATOM     18  C   UNL     1       5.469  -3.132   2.550  0.00  0.00    +0.002 A 
ATOM     19  C   UNL     1       6.152  -4.067   1.794  0.00  0.00    +0.000 A 
ATOM     20  C   UNL     1       5.649  -4.469   0.571  0.00  0.00    +0.002 A 
ATOM     21  C   UNL     1       4.460  -3.939   0.105  0.00  0.00    +0.028 A 
ENDBRANCH  13  16
ENDBRANCH   4  13
BRANCH   1  22
ATOM     22  C   UNL     1      -1.619  -5.101   1.809  0.00  0.00    +0.117 C 
BRANCH  22  26
ATOM     23  N   UNL     1      -2.578  -7.577  -0.693  0.00  0.00    -0.162 N 
ATOM     24  C   UNL     1      -3.491  -8.073   0.348  0.00  0.00    +0.172 C 
ATOM     25  C   UNL     1      -3.237  -7.130   1.540  0.00  0.00    +0.079 C 
ATOM     26  N   UNL     1      -2.209  -6.203   1.044  0.00  0.00    -0.272 N 
ATOM     27  C   UNL     1      -1.893  -6.530  -0.216  0.00  0.00    +0.329 C 
ATOM     28  O   UNL     1      -1.062  -5.928  -0.868  0.00  0.00    -0.250 OA
ATOM     29  C   UNL     1      -2.716  -7.916   2.745  0.00  0.00    +0.039 C 
BRANCH  25  30
ATOM     30  C   UNL     1      -4.495  -6.381   1.899  0.00  0.00    -0.023 A 
ATOM     31  C   UNL     1      -4.526  -5.002   1.815  0.00  0.00    +0.006 A 
ATOM     32  C   UNL     1      -5.680  -4.315   2.144  0.00  0.00    +0.000 A 
ATOM     33  C   UNL     1      -6.802  -5.008   2.558  0.00  0.00    +0.000 A 
ATOM     34  C   UNL     1      -6.771  -6.387   2.641  0.00  0.00    +0.000 A 
ATOM     35  C   UNL     1      -5.619  -7.074   2.308  0.00  0.00    +0.006 A 
ENDBRANCH  25  30
BRANCH  23  36
ATOM     36  O   UNL     1      -2.441  -8.124  -1.992  0.00  0.00    -0.276 OA
BRANCH  36  38
ATOM     37  C   UNL     1      -1.395  -9.669  -3.528  0.00  0.00    +0.036 C 
ATOM     38  C   UNL     1      -1.456  -9.155  -2.088  0.00  0.00    +0.187 C 
ENDBRANCH  36  38
ENDBRANCH  23  36
ENDBRANCH  22  26
ENDBRANCH   1  22
TORSDOF 8
