REMARK  Name = ZINC39782281
REMARK  6 active torsions:
REMARK  status: ('A' for Active; 'I' for Inactive)
REMARK    1  A    between atoms: C_1  and  C_2
REMARK    2  A    between atoms: C_2  and  C_3
REMARK    3  A    between atoms: C_2  and  C_4
REMARK    4  A    between atoms: C_2  and  C_5
REMARK    5  A    between atoms: C_8  and  C_19
REMARK    6  A    between atoms: N_28  and  C_29
REMARK                            x       y       z     vdW  Elec       q    Type
REMARK                         _______ _______ _______ _____ _____    ______ ____
ROOT
ATOM      1  C   UNL     1       0.707  -0.490  -1.238  0.00  0.00    +0.046 C 
ATOM      2  N   UNL     1       1.228   0.242  -2.162  0.00  0.00    -0.236 NA
ATOM      3  C   UNL     1       1.799  -0.485  -3.163  0.00  0.00    +0.145 A 
ATOM      4  C   UNL     1       2.444  -0.041  -4.304  0.00  0.00    +0.080 A 
ATOM      5  C   UNL     1       2.972  -0.960  -5.227  0.00  0.00    +0.198 A 
ATOM      6  O   UNL     1       3.543  -0.576  -6.236  0.00  0.00    -0.287 OA
ATOM      7  C   UNL     1       2.820  -2.398  -4.946  0.00  0.00    +0.046 A 
ATOM      8  C   UNL     1       3.319  -3.366  -5.817  0.00  0.00    +0.014 A 
ATOM      9  C   UNL     1       3.158  -4.691  -5.522  0.00  0.00    +0.001 A 
ATOM     10  C   UNL     1       2.502  -5.080  -4.362  0.00  0.00    +0.002 A 
ATOM     11  C   UNL     1       2.001  -4.139  -3.489  0.00  0.00    +0.026 A 
ATOM     12  C   UNL     1       2.154  -2.784  -3.770  0.00  0.00    +0.055 A 
ATOM     13  N   UNL     1       1.664  -1.824  -2.914  0.00  0.00    -0.319 N 
ATOM     14  C   UNL     1       0.946  -1.932  -1.633  0.00  0.00    +0.175 C 
ENDROOT
BRANCH   4  15
ATOM     15  C   UNL     1       2.581   1.438  -4.558  0.00  0.00    +0.197 C 
ATOM     16  N   UNL     1       1.975   1.788  -5.848  0.00  0.00    -0.320 N 
ATOM     17  C   UNL     1       2.989   2.325  -6.654  0.00  0.00    +0.050 A 
ATOM     18  C   UNL     1       2.947   2.808  -7.956  0.00  0.00    +0.025 A 
ATOM     19  C   UNL     1       4.094   3.295  -8.554  0.00  0.00    +0.002 A 
ATOM     20  C   UNL     1       5.288   3.303  -7.858  0.00  0.00    +0.002 A 
ATOM     21  C   UNL     1       5.340   2.825  -6.563  0.00  0.00    +0.025 A 
ATOM     22  C   UNL     1       4.192   2.334  -5.954  0.00  0.00    +0.052 A 
ATOM     23  N   UNL     1       3.998   1.804  -4.669  0.00  0.00    -0.309 N 
ATOM     24  C   UNL     1       5.019   1.645  -3.630  0.00  0.00    +0.131 C 
ATOM     25  H   UNL     1       1.045   1.670  -6.098  0.00  0.00    +0.148 HD
ENDBRANCH   4  15
BRANCH   1  27
ATOM     26  C   UNL     1      -0.019   1.526   0.010  0.00  0.00    +0.017 C 
ATOM     27  C   UNL     1       0.002  -0.004   0.002  0.00  0.00    +0.002 C 
ATOM     28  C   UNL     1       0.742  -0.511   1.242  0.00  0.00    +0.017 C 
ATOM     29  C   UNL     1      -1.433  -0.534   0.013  0.00  0.00    +0.017 C 
ENDBRANCH   1  27
TORSDOF 2
