REMARK  Name = ZINC09389173
REMARK  12 active torsions:
REMARK  status: ('A' for Active; 'I' for Inactive)
REMARK    1  A    between atoms: C_1  and  C_2
REMARK    2  A    between atoms: C_2  and  N_3
REMARK    3  A    between atoms: C_6  and  C_32
REMARK    4  A    between atoms: C_7  and  C_31
REMARK    5  A    between atoms: N_12  and  C_13
REMARK    6  A    between atoms: C_13  and  C_15
REMARK    7  A    between atoms: C_18  and  S_21
REMARK    8  A    between atoms: S_21  and  N_24
REMARK    9  A    between atoms: N_24  and  C_25
REMARK   10  A    between atoms: N_24  and  C_28
REMARK   11  A    between atoms: C_25  and  C_26
REMARK   12  A    between atoms: C_28  and  C_29
REMARK                            x       y       z     vdW  Elec       q    Type
REMARK                         _______ _______ _______ _____ _____    ______ ____
ROOT
ATOM      1  C   UNL     1      -4.134   1.814  -0.782  0.00  0.00    +0.269 C 
ATOM      2  O   UNL     1      -4.425   2.244  -1.885  0.00  0.00    -0.268 OA
ENDROOT
BRANCH   1  12
ATOM      3  N   UNL     1      -0.563   1.600  -1.249  0.00  0.00    -0.321 N 
ATOM      4  C   UNL     1       0.282   1.898  -2.301  0.00  0.00    +0.058 A 
ATOM      5  C   UNL     1       1.679   1.764  -2.362  0.00  0.00    +0.030 A 
ATOM      6  C   UNL     1       2.368   2.104  -3.502  0.00  0.00    -0.046 A 
ATOM      7  C   UNL     1       1.711   2.582  -4.623  0.00  0.00    -0.046 A 
ATOM      8  C   UNL     1       0.334   2.718  -4.593  0.00  0.00    +0.020 A 
ATOM      9  C   UNL     1      -0.356   2.378  -3.454  0.00  0.00    +0.039 A 
ATOM     10  S   UNL     1      -2.071   2.394  -2.993  0.00  0.00    -0.052 S 
ATOM     11  C   UNL     1      -1.904   1.790  -1.376  0.00  0.00    +0.167 A 
ATOM     12  N   UNL     1      -2.857   1.567  -0.477  0.00  0.00    -0.152 NA
ATOM     13  C   UNL     1       2.486   2.948  -5.863  0.00  0.00    +0.044 C 
ATOM     14  C   UNL     1       3.868   1.955  -3.531  0.00  0.00    +0.044 C 
BRANCH   3  16
ATOM     15  C   UNL     1      -0.801   1.665   1.185  0.00  0.00    +0.027 C 
ATOM     16  C   UNL     1      -0.013   1.086   0.008  0.00  0.00    +0.121 C 
ENDBRANCH   3  16
ENDBRANCH   1  12
BRANCH   1  17
ATOM     17  C   UNL     1      -5.197   1.565   0.219  0.00  0.00    +0.039 A 
ATOM     18  C   UNL     1      -4.867   1.067   1.480  0.00  0.00    +0.015 A 
ATOM     19  C   UNL     1      -5.861   0.841   2.411  0.00  0.00    +0.029 A 
ATOM     20  C   UNL     1      -7.182   1.099   2.092  0.00  0.00    +0.106 A 
ATOM     21  C   UNL     1      -7.516   1.588   0.842  0.00  0.00    +0.029 A 
ATOM     22  C   UNL     1      -6.531   1.822  -0.096  0.00  0.00    +0.015 A 
BRANCH  20  23
ATOM     23  S   UNL     1      -8.446   0.802   3.283  0.00  0.00    +0.061 S 
ATOM     24  O   UNL     1      -7.823   0.862   4.559  0.00  0.00    -0.153 OA
ATOM     25  O   UNL     1      -9.541   1.636   2.930  0.00  0.00    -0.153 OA
BRANCH  23  26
ATOM     26  N   UNL     1      -8.956  -0.760   3.078  0.00  0.00    -0.169 NA
BRANCH  26  27
ATOM     27  C   UNL     1      -8.306  -1.846   3.817  0.00  0.00    +0.136 C 
BRANCH  27  28
ATOM     28  C   UNL     1      -9.087  -2.136   5.073  0.00  0.00    -0.018 C 
ATOM     29  C   UNL     1      -9.514  -3.351   5.312  0.00  0.00    +0.005 C 
ENDBRANCH  27  28
ENDBRANCH  26  27
BRANCH  26  30
ATOM     30  C   UNL     1     -10.056  -1.057   2.157  0.00  0.00    +0.136 C 
BRANCH  30  31
ATOM     31  C   UNL     1      -9.496  -1.443   0.813  0.00  0.00    -0.018 C 
ATOM     32  C   UNL     1      -9.836  -2.582   0.263  0.00  0.00    +0.005 C 
ENDBRANCH  30  31
ENDBRANCH  26  30
ENDBRANCH  23  26
ENDBRANCH  20  23
ENDBRANCH   1  17
TORSDOF 9
