REMARK  Name = ZINC62366789
REMARK  2 active torsions:
REMARK  status: ('A' for Active; 'I' for Inactive)
REMARK    1  A    between atoms: C_1  and  N_2
REMARK    2  A    between atoms: N_7  and  C_12
REMARK                            x       y       z     vdW  Elec       q    Type
REMARK                         _______ _______ _______ _____ _____    ______ ____
ROOT
ATOM      1  C   UNL     1      -0.018   1.461   0.010  0.00  0.00    +0.127 C 
ATOM      2  N   UNL     1       0.002  -0.004   0.002  0.00  0.00    -0.331 N 
ATOM      3  C   UNL     1      -1.184  -0.711   0.010  0.00  0.00    +0.133 A 
ATOM      4  C   UNL     1      -1.185  -2.119   0.008  0.00  0.00    +0.079 A 
ATOM      5  C   UNL     1      -0.182  -3.113  -0.001  0.00  0.00    +0.148 A 
ATOM      6  N   UNL     1      -0.758  -4.282   0.002  0.00  0.00    -0.172 NA
ATOM      7  N   UNL     1      -2.149  -4.123   0.012  0.00  0.00    -0.212 N 
ATOM      8  C   UNL     1      -2.426  -2.786   0.016  0.00  0.00    +0.168 A 
ATOM      9  N   UNL     1      -3.544  -2.062   0.025  0.00  0.00    -0.216 NA
ATOM     10  C   UNL     1      -3.493  -0.748   0.027  0.00  0.00    +0.225 A 
ATOM     11  N   UNL     1      -2.353  -0.079   0.024  0.00  0.00    -0.220 NA
ATOM     12  H   UNL     1       0.849  -0.478  -0.009  0.00  0.00    +0.147 HD
ENDROOT
BRANCH   7  13
ATOM     13  C   UNL     1      -3.094  -5.158   0.017  0.00  0.00    +0.086 A 
ATOM     14  C   UNL     1      -4.451  -4.861   0.022  0.00  0.00    +0.031 A 
ATOM     15  C   UNL     1      -5.380  -5.882   0.026  0.00  0.00    +0.022 A 
ATOM     16  C   UNL     1      -4.961  -7.201   0.026  0.00  0.00    +0.042 A 
ATOM     17  C   UNL     1      -3.610  -7.501   0.021  0.00  0.00    +0.042 A 
ATOM     18  C   UNL     1      -2.676  -6.483   0.012  0.00  0.00    +0.068 A 
ATOM     19 CL   UNL     1      -0.981  -6.859  -0.001  0.00  0.00    -0.081 Cl
ATOM     20 CL   UNL     1      -6.133  -8.482   0.032  0.00  0.00    -0.083 Cl
ENDBRANCH   7  13
TORSDOF 1
