REMARK  Name = ZINC09092368
REMARK  6 active torsions:
REMARK  status: ('A' for Active; 'I' for Inactive)
REMARK    1  A    between atoms: C_5  and  C_7
REMARK    2  A    between atoms: C_10  and  S_13
REMARK    3  A    between atoms: N_11  and  N_12
REMARK    4  A    between atoms: S_13  and  C_14
REMARK    5  A    between atoms: C_14  and  C_15
REMARK    6  A    between atoms: N_17  and  C_18
REMARK                            x       y       z     vdW  Elec       q    Type
REMARK                         _______ _______ _______ _____ _____    ______ ____
ROOT
ATOM      1  S   UNL     1      -0.353  -0.323  -2.755  0.00  0.00    -0.075 S 
ENDROOT
BRANCH   1   5
ATOM      2  C   UNL     1       0.119  -0.840   1.089  0.00  0.00    +0.183 A 
ATOM      3  N   UNL     1       0.143  -2.069   0.627  0.00  0.00    -0.127 NA
ATOM      4  N   UNL     1       0.001  -2.061  -0.650  0.00  0.00    -0.121 NA
ATOM      5  C   UNL     1      -0.128  -0.826  -1.082  0.00  0.00    +0.209 A 
ATOM      6  N   UNL     1      -0.051  -0.006   0.007  0.00  0.00    -0.224 N 
BRANCH   2  11
ATOM      7  C   UNL     1      -0.512   0.876   4.369  0.00  0.00    +0.001 A 
ATOM      8  C   UNL     1       0.495   0.339   5.152  0.00  0.00    +0.001 A 
ATOM      9  C   UNL     1       1.381  -0.579   4.618  0.00  0.00    +0.016 A 
ATOM     10  C   UNL     1       1.261  -0.971   3.300  0.00  0.00    +0.029 A 
ATOM     11  C   UNL     1       0.250  -0.429   2.503  0.00  0.00    +0.035 A 
ATOM     12  C   UNL     1      -0.639   0.497   3.049  0.00  0.00    +0.013 A 
ATOM     13 BR   UNL     1       2.467  -2.233   2.572  0.00  0.00    -0.050 Br
ENDBRANCH   2  11
BRANCH   6  14
ATOM     14  N   UNL     1      -0.133   1.357   0.022  0.00  0.00    -0.295 N 
ATOM     15  H   UNL     1       0.767   1.775  -0.163  0.00  0.00    +0.163 HD
ATOM     16  H   UNL     1      -0.825   1.685  -0.635  0.00  0.00    +0.163 HD
ENDBRANCH   6  14
ENDBRANCH   1   5
BRANCH   1  17
ATOM     17  C   UNL     1      -0.349  -1.938  -3.573  0.00  0.00    +0.173 C 
BRANCH  17  18
ATOM     18  C   UNL     1      -0.533  -1.750  -5.057  0.00  0.00    +0.224 C 
ATOM     19  O   UNL     1      -0.655  -0.634  -5.516  0.00  0.00    -0.275 OA
ATOM     20  N   UNL     1      -0.563  -2.822  -5.873  0.00  0.00    -0.309 N 
ATOM     21  H   UNL     1      -0.466  -3.715  -5.505  0.00  0.00    +0.149 HD
BRANCH  20  22
ATOM     22  C   UNL     1      -0.742  -2.640  -7.315  0.00  0.00    +0.035 C 
ATOM     23  C   UNL     1      -2.075  -1.938  -7.579  0.00  0.00    +0.029 C 
ATOM     24  C   UNL     1      -2.262  -1.747  -9.086  0.00  0.00    -0.008 C 
ATOM     25  C   UNL     1      -2.259  -3.112  -9.777  0.00  0.00    +0.007 C 
ATOM     26  C   UNL     1      -0.925  -3.815  -9.513  0.00  0.00    -0.008 C 
ATOM     27  C   UNL     1      -0.739  -4.005  -8.006  0.00  0.00    +0.029 C 
ATOM     28  C   UNL     1       0.218  -2.961 -10.065  0.00  0.00    +0.007 C 
ATOM     29  C   UNL     1       0.215  -1.596  -9.374  0.00  0.00    -0.008 C 
ATOM     30  C   UNL     1      -1.118  -0.894  -9.638  0.00  0.00    +0.007 C 
ATOM     31  C   UNL     1       0.402  -1.786  -7.867  0.00  0.00    +0.029 C 
ENDBRANCH  20  22
ENDBRANCH  17  18
ENDBRANCH   1  17
TORSDOF 6
