REMARK  Name = ZINC39252154
REMARK  8 active torsions:
REMARK  status: ('A' for Active; 'I' for Inactive)
REMARK    1  A    between atoms: C_4  and  C_7
REMARK    2  A    between atoms: C_7  and  C_8
REMARK    3  A    between atoms: C_8  and  C_9
REMARK    4  A    between atoms: C_13  and  N_16
REMARK    5  A    between atoms: C_17  and  C_19
REMARK    6  A    between atoms: N_24  and  C_26
REMARK    7  A    between atoms: C_26  and  C_27
REMARK    8  A    between atoms: C_27  and  C_28
REMARK                            x       y       z     vdW  Elec       q    Type
REMARK                         _______ _______ _______ _____ _____    ______ ____
ROOT
ATOM      1  C   UNL     1      10.511   1.067   4.057  0.00  0.00    +0.101 C 
ATOM      2  C   UNL     1      11.250   1.845   2.943  0.00  0.00    +0.110 C 
ATOM      3  C   UNL     1      12.532   2.307   3.601  0.00  0.00    +0.216 C 
ATOM      4  O   UNL     1      13.260   3.175   3.170  0.00  0.00    -0.276 OA
ATOM      5  N   UNL     1      12.745   1.615   4.734  0.00  0.00    -0.300 N 
ATOM      6  C   UNL     1      11.680   0.632   4.968  0.00  0.00    +0.121 C 
ENDROOT
BRANCH   1   8
ATOM      7  N   UNL     1       8.778   0.041   2.622  0.00  0.00    -0.284 N 
ATOM      8  C   UNL     1       9.792  -0.131   3.492  0.00  0.00    +0.220 C 
ATOM      9  O   UNL     1      10.126  -1.249   3.821  0.00  0.00    -0.275 OA
ATOM     10  H   UNL     1       8.510   0.935   2.358  0.00  0.00    +0.152 HD
BRANCH   7  14
ATOM     11  C   UNL     1       5.507  -1.710   1.381  0.00  0.00    +0.188 C 
ATOM     12  N   UNL     1       5.998  -1.969   2.754  0.00  0.00    -0.175 NA
ATOM     13  N   UNL     1       7.144  -1.708   3.062  0.00  0.00    -0.157 NA
ATOM     14  C   UNL     1       8.079  -1.124   2.073  0.00  0.00    +0.275 C 
ATOM     15  S   UNL     1       6.873  -0.632   0.759  0.00  0.00    -0.085 S 
BRANCH  11  16
ATOM     16  C   UNL     1       4.171  -0.963   1.399  0.00  0.00    +0.044 C 
BRANCH  16  17
ATOM     17  C   UNL     1       3.711  -0.707  -0.038  0.00  0.00    +0.038 C 
BRANCH  17  21
ATOM     18  C   UNL     1      -0.017   1.378   0.010  0.00  0.00    +0.000 A 
ATOM     19  C   UNL     1       1.171   2.086   0.002  0.00  0.00    +0.000 A 
ATOM     20  C   UNL     1       2.377   1.411  -0.013  0.00  0.00    +0.003 A 
ATOM     21  C   UNL     1       2.396   0.029  -0.020  0.00  0.00    -0.047 A 
ATOM     22  C   UNL     1       1.208  -0.679  -0.012  0.00  0.00    +0.003 A 
ATOM     23  C   UNL     1       0.002  -0.004   0.002  0.00  0.00    +0.000 A 
ENDBRANCH  17  21
ENDBRANCH  16  17
ENDBRANCH  11  16
ENDBRANCH   7  14
ENDBRANCH   1   8
BRANCH   5  24
ATOM     24  C   UNL     1      13.893   1.817   5.622  0.00  0.00    +0.112 C 
BRANCH  24  25
ATOM     25  C   UNL     1      13.544   2.873   6.674  0.00  0.00    +0.056 C 
BRANCH  25  26
ATOM     26  C   UNL     1      14.724   3.081   7.587  0.00  0.00    -0.021 A 
ATOM     27  C   UNL     1      15.862   3.973   7.351  0.00  0.00    +0.004 A 
ATOM     28  C   UNL     1      16.213   4.844   6.318  0.00  0.00    +0.030 A 
ATOM     29  C   UNL     1      17.386   5.561   6.402  0.00  0.00    +0.042 A 
ATOM     30  C   UNL     1      18.218   5.422   7.506  0.00  0.00    +0.022 A 
ATOM     31  C   UNL     1      17.884   4.566   8.533  0.00  0.00    +0.027 A 
ATOM     32  C   UNL     1      16.704   3.833   8.469  0.00  0.00    +0.047 A 
ATOM     33  N   UNL     1      16.110   2.920   9.313  0.00  0.00    -0.360 N 
ATOM     34  C   UNL     1      14.929   2.488   8.774  0.00  0.00    +0.087 A 
ATOM     35 CL   UNL     1      17.828   6.646   5.120  0.00  0.00    -0.084 Cl
ATOM     36  H   UNL     1      16.473   2.630  10.165  0.00  0.00    +0.165 HD
ENDBRANCH  25  26
ENDBRANCH  24  25
ENDBRANCH   5  24
TORSDOF 8
