REMARK  Name = ZINC33033365
REMARK  13 active torsions:
REMARK  status: ('A' for Active; 'I' for Inactive)
REMARK    1  A    between atoms: C_1  and  C_2
REMARK    2  A    between atoms: C_2  and  C_3
REMARK    3  A    between atoms: C_3  and  N_4
REMARK    4  A    between atoms: C_5  and  C_7
REMARK    5  A    between atoms: C_7  and  N_8
REMARK    6  A    between atoms: N_8  and  C_9
REMARK    7  A    between atoms: C_10  and  C_12
REMARK    8  A    between atoms: C_15  and  N_30
REMARK    9  A    between atoms: C_16  and  N_18
REMARK   10  A    between atoms: N_18  and  S_19
REMARK   11  A    between atoms: S_19  and  C_22
REMARK   12  A    between atoms: C_25  and  C_29
REMARK   13  A    between atoms: C_26  and  C_28
REMARK                            x       y       z     vdW  Elec       q    Type
REMARK                         _______ _______ _______ _____ _____    ______ ____
ROOT
ATOM      1  C   UNL     1       0.457   5.111   3.235  0.00  0.00    +0.039 A 
ATOM      2  C   UNL     1       0.575   4.882   4.609  0.00  0.00    +0.015 A 
ATOM      3  C   UNL     1       0.103   3.709   5.156  0.00  0.00    +0.026 A 
ATOM      4  C   UNL     1      -0.492   2.750   4.345  0.00  0.00    +0.052 A 
ATOM      5  C   UNL     1      -0.614   2.973   2.970  0.00  0.00    +0.070 A 
ATOM      6  C   UNL     1      -0.137   4.145   2.416  0.00  0.00    +0.039 A 
ENDROOT
BRANCH   4   7
ATOM      7  N   UNL     1      -0.969   1.566   4.903  0.00  0.00    -0.332 N 
ATOM      8  C   UNL     1      -0.541   1.433   6.303  0.00  0.00    +0.086 C 
ATOM      9  C   UNL     1      -1.016   0.087   6.853  0.00  0.00    -0.063 C 
ATOM     10  N   UNL     1      -2.479   0.004   6.743  0.00  0.00    +0.381 N 
ATOM     11  C   UNL     1      -2.907   0.136   5.343  0.00  0.00    -0.063 C 
ATOM     12  C   UNL     1      -2.432   1.483   4.792  0.00  0.00    +0.086 C 
ATOM     13  H   UNL     1      -2.821  -0.968   7.127  0.00  0.00    -0.086 HD
ATOM     14  H   UNL     1      -2.938   0.812   7.331  0.00  0.00    -0.086 HD
ENDBRANCH   4   7
BRANCH   1  17
ATOM     15  N   UNL     1       0.744   7.539   3.277  0.00  0.00    -0.292 N 
ATOM     16  C   UNL     1       0.086   7.558   4.585  0.00  0.00    +0.133 C 
ATOM     17  C   UNL     1       0.962   6.367   2.649  0.00  0.00    +0.247 C 
ATOM     18  O   UNL     1       1.577   6.344   1.600  0.00  0.00    -0.270 OA
BRANCH  15  19
ATOM     19  C   UNL     1       1.164   8.795   2.650  0.00  0.00    +0.203 C 
BRANCH  19  21
ATOM     20  N   UNL     1       0.204  10.485   1.121  0.00  0.00    -0.314 N 
ATOM     21  C   UNL     1       0.043   9.331   1.798  0.00  0.00    +0.230 C 
ATOM     22  O   UNL     1      -1.004   8.723   1.721  0.00  0.00    -0.274 OA
ATOM     23  H   UNL     1       1.153  11.036   1.190  0.00  0.00    +0.149 HD
BRANCH  20  24
ATOM     24  C   UNL     1      -0.886  11.006   0.292  0.00  0.00    +0.104 C 
BRANCH  24  26
ATOM     25  C   UNL     1      -1.585  12.861  -1.228  0.00  0.00    +0.005 C 
ATOM     26  C   UNL     1      -0.447  12.317  -0.363  0.00  0.00    +0.015 C 
ENDBRANCH  24  26
ENDBRANCH  20  24
ENDBRANCH  19  21
ENDBRANCH  15  19
ENDBRANCH   1  17
BRANCH   5  27
ATOM     27  N   UNL     1      -1.214   2.005   2.155  0.00  0.00    -0.214 N 
ATOM     28  H   UNL     1      -2.309   1.976   2.050  0.00  0.00    +0.174 HD
BRANCH  27  29
ATOM     29  S   UNL     1      -0.276   0.905   1.347  0.00  0.00    +0.072 S 
ATOM     30  O   UNL     1       0.737   1.647   0.681  0.00  0.00    -0.150 OA
ATOM     31  O   UNL     1      -1.167   0.041   0.657  0.00  0.00    -0.150 OA
BRANCH  29  32
ATOM     32  C   UNL     1       0.537  -0.077   2.563  0.00  0.00    +0.109 A 
ATOM     33  C   UNL     1       1.774   0.306   3.048  0.00  0.00    +0.029 A 
ATOM     34  C   UNL     1       2.415  -0.468   3.997  0.00  0.00    +0.005 A 
ATOM     35  C   UNL     1       1.819  -1.625   4.462  0.00  0.00    -0.047 A 
ATOM     36  C   UNL     1       0.583  -2.008   3.978  0.00  0.00    -0.046 A 
ATOM     37  C   UNL     1      -0.058  -1.234   3.029  0.00  0.00    +0.032 A 
ATOM     38  C   UNL     1      -0.067  -3.270   4.485  0.00  0.00    +0.044 C 
ATOM     39  C   UNL     1       2.517  -2.468   5.498  0.00  0.00    +0.044 C 
ENDBRANCH  29  32
ENDBRANCH  27  29
ENDBRANCH   5  27
TORSDOF 9
