REMARK  Name = ZINC41584986
REMARK  7 active torsions:
REMARK  status: ('A' for Active; 'I' for Inactive)
REMARK    1  A    between atoms: C_1  and  C_2
REMARK    2  A    between atoms: C_4  and  O_37
REMARK    3  A    between atoms: C_5  and  C_20
REMARK    4  A    between atoms: C_11  and  C_12
REMARK    5  A    between atoms: C_20  and  N_21
REMARK    6  A    between atoms: N_24  and  C_27
REMARK    7  A    between atoms: C_27  and  C_28
REMARK                            x       y       z     vdW  Elec       q    Type
REMARK                         _______ _______ _______ _____ _____    ______ ____
ROOT
ATOM      1  C   UNL     1      -0.714   1.600   0.143  0.00  0.00    +0.045 C 
ATOM      2  C   UNL     1      -0.777   0.095   0.115  0.00  0.00    -0.033 A 
ATOM      3  C   UNL     1      -1.029  -0.558  -1.059  0.00  0.00    +0.050 A 
ATOM      4  C   UNL     1      -1.087  -1.948  -1.088  0.00  0.00    +0.122 A 
ATOM      5  C   UNL     1      -0.892  -2.686   0.069  0.00  0.00    +0.020 A 
ATOM      6  C   UNL     1      -0.635  -2.038   1.271  0.00  0.00    +0.145 A 
ATOM      7  C   UNL     1      -0.573  -0.635   1.286  0.00  0.00    +0.071 A 
ATOM      8  C   UNL     1      -0.282  -0.247   2.678  0.00  0.00    +0.232 C 
ATOM      9  O   UNL     1      -0.151   0.878   3.127  0.00  0.00    -0.283 OA
ATOM     10  C   UNL     1      -0.187  -1.523   3.404  0.00  0.00    +0.176 C 
ATOM     11  C   UNL     1       0.069  -1.675   4.728  0.00  0.00    +0.061 C 
ATOM     12  O   UNL     1      -0.414  -2.518   2.514  0.00  0.00    -0.451 OA
ENDROOT
BRANCH  11  13
ATOM     13  C   UNL     1      -0.018  -3.005   5.345  0.00  0.00    +0.014 A 
ATOM     14  C   UNL     1      -0.009  -4.154   4.545  0.00  0.00    +0.011 A 
ATOM     15  C   UNL     1      -0.090  -5.398   5.132  0.00  0.00    +0.001 A 
ATOM     16  C   UNL     1      -0.180  -5.516   6.509  0.00  0.00    +0.003 A 
ATOM     17  C   UNL     1      -0.189  -4.388   7.309  0.00  0.00    +0.039 A 
ATOM     18  C   UNL     1      -0.103  -3.132   6.738  0.00  0.00    +0.131 A 
ATOM     19  F   UNL     1      -0.106  -2.030   7.520  0.00  0.00    -0.205 F 
ENDBRANCH  11  13
BRANCH   4  20
ATOM     20  O   UNL     1      -1.338  -2.587  -2.259  0.00  0.00    -0.506 OA
ATOM     21  H   UNL     1      -0.544  -2.806  -2.766  0.00  0.00    +0.292 HD
ENDBRANCH   4  20
BRANCH   5  22
ATOM     22  C   UNL     1      -0.959  -4.191   0.023  0.00  0.00    -0.035 C 
BRANCH  22  23
ATOM     23  N   UNL     1       0.378  -4.733  -0.254  0.00  0.00    +0.384 N 
ATOM     24  C   UNL     1       1.276  -4.416   0.864  0.00  0.00    -0.063 C 
ATOM     25  C   UNL     1       2.673  -4.963   0.567  0.00  0.00    +0.066 C 
ATOM     26  N   UNL     1       2.596  -6.419   0.375  0.00  0.00    -0.302 NA
ATOM     27  C   UNL     1       1.680  -6.752  -0.725  0.00  0.00    +0.066 C 
ATOM     28  C   UNL     1       0.291  -6.190  -0.417  0.00  0.00    -0.063 C 
ATOM     29  H   UNL     1       0.738  -4.320  -1.102  0.00  0.00    -0.081 HD
BRANCH  26  30
ATOM     30  C   UNL     1       3.929  -6.991   0.143  0.00  0.00    +0.119 C 
BRANCH  30  31
ATOM     31  C   UNL     1       3.846  -8.495   0.196  0.00  0.00    -0.030 A 
ATOM     32  C   UNL     1       4.020  -9.153   1.400  0.00  0.00    +0.009 A 
ATOM     33  C   UNL     1       3.944 -10.532   1.454  0.00  0.00    +0.050 A 
ATOM     34  C   UNL     1       3.694 -11.259   0.301  0.00  0.00    +0.166 A 
ATOM     35  C   UNL     1       3.519 -10.595  -0.911  0.00  0.00    +0.167 A 
ATOM     36  C   UNL     1       3.590  -9.213  -0.957  0.00  0.00    +0.054 A 
ATOM     37  O   UNL     1       3.288 -11.523  -1.886  0.00  0.00    -0.453 OA
ATOM     38  C   UNL     1       3.728 -12.778  -1.335  0.00  0.00    +0.466 C 
ATOM     39  O   UNL     1       3.573 -12.601   0.085  0.00  0.00    -0.453 OA
ENDBRANCH  30  31
ENDBRANCH  26  30
ENDBRANCH  22  23
ENDBRANCH   5  22
TORSDOF 6
