REMARK  Name = ZINC07158437
REMARK  10 active torsions:
REMARK  status: ('A' for Active; 'I' for Inactive)
REMARK    1  A    between atoms: C_1  and  C_2
REMARK    2  A    between atoms: C_2  and  C_4
REMARK    3  A    between atoms: C_2  and  O_11
REMARK    4  A    between atoms: O_11  and  C_12
REMARK    5  A    between atoms: C_12  and  C_13
REMARK    6  A    between atoms: C_13  and  C_15
REMARK    7  A    between atoms: C_13  and  O_30
REMARK    8  A    between atoms: C_15  and  N_55
REMARK    9  A    between atoms: N_18  and  C_21
REMARK   10  A    between atoms: C_26  and  N_27
REMARK                            x       y       z     vdW  Elec       q    Type
REMARK                         _______ _______ _______ _____ _____    ______ ____
ROOT
ATOM      1  C   UNL     1      -8.199   0.825   4.534  0.00  0.00    -0.060 C 
ATOM      2  C   UNL     1      -9.113   1.732   5.361  0.00  0.00    +0.086 C 
ATOM      3  N   UNL     1     -10.048   2.428   4.467  0.00  0.00    -0.332 N 
ATOM      4  C   UNL     1      -9.323   3.238   3.478  0.00  0.00    +0.086 C 
ATOM      5  C   UNL     1      -8.410   2.331   2.651  0.00  0.00    -0.060 C 
ATOM      6  N   UNL     1      -7.460   1.655   3.559  0.00  0.00    +0.383 N 
ATOM      7  H   UNL     1      -6.920   2.365   4.067  0.00  0.00    -0.082 HD
ENDROOT
BRANCH   3   8
ATOM      8  C   UNL     1     -10.947   3.211   5.194  0.00  0.00    +0.060 A 
ATOM      9  C   UNL     1     -10.477   4.224   6.020  0.00  0.00    +0.025 A 
ATOM     10  C   UNL     1     -11.368   5.001   6.734  0.00  0.00    +0.002 A 
ATOM     11  C   UNL     1     -12.728   4.764   6.635  0.00  0.00    +0.002 A 
ATOM     12  C   UNL     1     -13.198   3.753   5.818  0.00  0.00    +0.034 A 
ATOM     13  C   UNL     1     -12.312   2.976   5.098  0.00  0.00    +0.147 A 
BRANCH  13  14
ATOM     14  N   UNL     1     -12.818   1.893   4.224  0.00  0.00    +0.058 N 
ATOM     15  O   UNL     1     -14.005   1.622   4.215  0.00  0.00    -0.126 OA
ATOM     16  O   UNL     1     -12.046   1.274   3.514  0.00  0.00    -0.126 OA
ENDBRANCH  13  14
ENDBRANCH   3   8
BRANCH   6  17
ATOM     17  C   UNL     1      -6.529   0.811   2.780  0.00  0.00    -0.045 C 
BRANCH  17  18
ATOM     18  C   UNL     1      -5.473   1.711   2.136  0.00  0.00    +0.124 C 
BRANCH  18  19
ATOM     19  O   UNL     1      -4.755   2.409   3.156  0.00  0.00    -0.391 OA
ATOM     20  H   UNL     1      -4.295   1.830   3.780  0.00  0.00    +0.210 HD
ENDBRANCH  18  19
BRANCH  18  21
ATOM     21  C   UNL     1      -4.499   0.855   1.323  0.00  0.00    +0.190 C 
BRANCH  21  22
ATOM     22  O   UNL     1      -3.584   1.703   0.628  0.00  0.00    -0.370 OA
BRANCH  22  24
ATOM     23  C   UNL     1      -3.184   0.795  -1.575  0.00  0.00    +0.043 C 
ATOM     24  C   UNL     1      -2.627   0.999  -0.165  0.00  0.00    +0.145 C 
BRANCH  24  25
ATOM     25  C   UNL     1      -1.351   1.798  -0.240  0.00  0.00    -0.019 A 
ATOM     26  C   UNL     1      -0.130   1.150  -0.273  0.00  0.00    +0.007 A 
ATOM     27  C   UNL     1       1.040   1.882  -0.347  0.00  0.00    +0.020 A 
ATOM     28  C   UNL     1       0.989   3.264  -0.384  0.00  0.00    +0.041 A 
ATOM     29  C   UNL     1      -0.233   3.913  -0.346  0.00  0.00    +0.020 A 
ATOM     30  C   UNL     1      -1.402   3.180  -0.271  0.00  0.00    +0.007 A 
ATOM     31 CL   UNL     1       2.458   4.185  -0.479  0.00  0.00    -0.084 Cl
ENDBRANCH  24  25
ENDBRANCH  22  24
ENDBRANCH  21  22
ENDBRANCH  18  21
ENDBRANCH  17  18
ENDBRANCH   6  17
TORSDOF 9
