REMARK  Name = ZINC55412221
REMARK  4 active torsions:
REMARK  status: ('A' for Active; 'I' for Inactive)
REMARK    1  A    between atoms: C_1  and  C_2
REMARK    2  A    between atoms: C_3  and  C_25
REMARK    3  A    between atoms: C_4  and  C_19
REMARK    4  A    between atoms: C_9  and  C_11
REMARK                            x       y       z     vdW  Elec       q    Type
REMARK                         _______ _______ _______ _____ _____    ______ ____
ROOT
ATOM      1  C   UNL     1      -0.675   0.523  -1.254  0.00  0.00    +0.062 C 
ATOM      2  C   UNL     1      -0.997   1.775  -2.028  0.00  0.00    +0.034 C 
ATOM      3  C   UNL     1      -0.692   3.105  -1.400  0.00  0.00    +0.148 C 
ATOM      4  C   UNL     1      -0.308   4.146  -2.458  0.00  0.00    +0.158 C 
ATOM      5  N   UNL     1      -1.213   3.989  -3.596  0.00  0.00    -0.220 N 
ATOM      6  C   UNL     1      -1.767   2.785  -3.932  0.00  0.00    +0.250 A 
ATOM      7  N   UNL     1      -2.508   2.970  -4.993  0.00  0.00    -0.189 NA
ATOM      8  C   UNL     1      -2.463   4.261  -5.355  0.00  0.00    +0.183 A 
ATOM      9  N   UNL     1      -1.680   4.918  -4.519  0.00  0.00    -0.147 NA
ATOM     10  N   UNL     1      -1.518   1.656  -3.205  0.00  0.00    -0.220 NA
ENDROOT
BRANCH   8  11
ATOM     11  C   UNL     1      -3.179   4.855  -6.511  0.00  0.00    +0.021 A 
ATOM     12  C   UNL     1      -3.048   6.214  -6.791  0.00  0.00    +0.013 A 
ATOM     13  C   UNL     1      -3.715   6.762  -7.867  0.00  0.00    +0.021 A 
ATOM     14  C   UNL     1      -4.513   5.964  -8.668  0.00  0.00    +0.041 A 
ATOM     15  C   UNL     1      -4.646   4.614  -8.395  0.00  0.00    +0.021 A 
ATOM     16  C   UNL     1      -3.979   4.055  -7.324  0.00  0.00    +0.013 A 
ATOM     17 CL   UNL     1      -5.351   6.660 -10.021  0.00  0.00    -0.084 Cl
ENDBRANCH   8  11
BRANCH   4  18
ATOM     18  C   UNL     1      -0.447   5.532  -1.882  0.00  0.00    -0.019 A 
ATOM     19  C   UNL     1      -0.319   5.750  -0.519  0.00  0.00    +0.025 A 
ATOM     20  C   UNL     1      -0.453   7.035  -0.027  0.00  0.00    +0.111 A 
ATOM     21  N   UNL     1      -0.699   8.045  -0.838  0.00  0.00    -0.263 NA
ATOM     22  C   UNL     1      -0.827   7.875  -2.140  0.00  0.00    +0.111 A 
ATOM     23  C   UNL     1      -0.699   6.619  -2.704  0.00  0.00    +0.025 A 
ENDBRANCH   4  18
BRANCH   3  24
ATOM     24  C   UNL     1      -1.908   3.587  -0.651  0.00  0.00    +0.221 C 
ATOM     25  O   UNL     1      -2.794   4.166  -1.244  0.00  0.00    -0.275 OA
ATOM     26  N   UNL     1      -2.010   3.376   0.675  0.00  0.00    -0.329 N 
ATOM     27  H   UNL     1      -1.302   2.913   1.149  0.00  0.00    +0.145 HD
ATOM     28  H   UNL     1      -2.793   3.686   1.157  0.00  0.00    +0.145 HD
ENDBRANCH   3  24
TORSDOF 3
