REMARK  Name = ZINC39674625
REMARK  11 active torsions:
REMARK  status: ('A' for Active; 'I' for Inactive)
REMARK    1  A    between atoms: C_1  and  C_2
REMARK    2  A    between atoms: C_4  and  C_14
REMARK    3  A    between atoms: C_7  and  C_12
REMARK    4  A    between atoms: C_14  and  C_15
REMARK    5  A    between atoms: C_15  and  N_16
REMARK    6  A    between atoms: C_17  and  C_19
REMARK    7  A    between atoms: C_30  and  C_32
REMARK    8  A    between atoms: C_34  and  O_40
REMARK    9  A    between atoms: C_36  and  O_38
REMARK   10  A    between atoms: O_38  and  C_39
REMARK   11  A    between atoms: O_40  and  C_41
REMARK                            x       y       z     vdW  Elec       q    Type
REMARK                         _______ _______ _______ _____ _____    ______ ____
ROOT
ATOM      1  C   UNL     1       1.240  -1.626  -7.111  0.00  0.00    +0.100 C 
ATOM      2  C   UNL     1      -0.141  -2.060  -7.650  0.00  0.00    +0.121 C 
ATOM      3  N   UNL     1       0.117  -2.476  -9.049  0.00  0.00    -0.296 N 
ATOM      4  C   UNL     1       1.416  -3.188  -8.988  0.00  0.00    +0.115 C 
ATOM      5  C   UNL     1       2.259  -2.368  -7.991  0.00  0.00    -0.004 C 
ATOM      6  C   UNL     1       3.116  -3.298  -7.137  0.00  0.00    -0.010 C 
ATOM      7  C   UNL     1       4.160  -3.981  -8.024  0.00  0.00    -0.082 C 
ATOM      8  N   UNL     1       4.999  -2.963  -8.669  0.00  0.00    +0.379 N 
ATOM      9  C   UNL     1       4.182  -2.132  -9.560  0.00  0.00    -0.082 C 
ATOM     10  C   UNL     1       3.139  -1.370  -8.738  0.00  0.00    -0.010 C 
ATOM     11  C   UNL     1      -0.654  -2.256 -10.132  0.00  0.00    +0.247 C 
ATOM     12  O   UNL     1      -1.634  -1.542 -10.046  0.00  0.00    -0.270 OA
ATOM     13  H   UNL     1       5.422  -2.381  -7.961  0.00  0.00    -0.086 HD
ATOM     14  H   UNL     1       5.724  -3.416  -9.204  0.00  0.00    -0.086 HD
ENDROOT
BRANCH  11  15
ATOM     15  C   UNL     1      -0.309  -2.884 -11.426  0.00  0.00    +0.044 A 
ATOM     16  C   UNL     1       0.514  -4.010 -11.459  0.00  0.00    +0.059 A 
ATOM     17  C   UNL     1       0.835  -4.595 -12.673  0.00  0.00    +0.124 A 
ATOM     18  C   UNL     1       0.340  -4.062 -13.854  0.00  0.00    +0.091 A 
ATOM     19  C   UNL     1      -0.479  -2.943 -13.825  0.00  0.00    +0.124 A 
ATOM     20  C   UNL     1      -0.809  -2.355 -12.616  0.00  0.00    +0.059 A 
BRANCH  19  21
ATOM     21  O   UNL     1      -0.962  -2.425 -14.986  0.00  0.00    -0.495 OA
ATOM     22  C   UNL     1      -0.585  -3.084 -16.197  0.00  0.00    +0.277 C 
ENDBRANCH  19  21
BRANCH  17  23
ATOM     23  O   UNL     1       1.636  -5.692 -12.707  0.00  0.00    -0.495 OA
ATOM     24  C   UNL     1       1.927  -6.244 -13.992  0.00  0.00    +0.277 C 
ENDBRANCH  17  23
ENDBRANCH  11  15
BRANCH   1  26
ATOM     25  N   UNL     1       2.160  -1.305  -4.837  0.00  0.00    -0.315 N 
ATOM     26  C   UNL     1       1.393  -2.037  -5.669  0.00  0.00    +0.218 C 
ATOM     27  O   UNL     1       0.826  -3.027  -5.257  0.00  0.00    -0.275 OA
ATOM     28  H   UNL     1       2.614  -0.513  -5.167  0.00  0.00    +0.149 HD
BRANCH  25  29
ATOM     29  C   UNL     1       2.309  -1.704  -3.436  0.00  0.00    +0.108 C 
BRANCH  29  30
ATOM     30  C   UNL     1       3.224  -0.712  -2.717  0.00  0.00    +0.052 C 
BRANCH  30  33
ATOM     31  C   UNL     1       5.669  -0.394  -0.613  0.00  0.00    +0.035 C 
ATOM     32  C   UNL     1       4.193  -0.423  -0.212  0.00  0.00    +0.103 C 
ATOM     33  C   UNL     1       3.377  -1.123  -1.275  0.00  0.00    -0.037 C 
ATOM     34  C   UNL     1       2.812  -2.197  -0.668  0.00  0.00    +0.000 A 
ATOM     35  C   UNL     1       1.950  -3.215  -1.155  0.00  0.00    +0.028 A 
ATOM     36  C   UNL     1       1.512  -4.210  -0.312  0.00  0.00    +0.052 A 
ATOM     37  C   UNL     1       1.915  -4.247   1.090  0.00  0.00    +0.021 A 
ATOM     38  C   UNL     1       2.733  -3.307   1.607  0.00  0.00    +0.027 A 
ATOM     39  C   UNL     1       3.228  -2.223   0.751  0.00  0.00    +0.043 A 
ATOM     40  N   UNL     1       4.018  -1.208   1.014  0.00  0.00    -0.378 N 
ATOM     41  H   UNL     1       4.419  -1.011   1.875  0.00  0.00    +0.160 HD
BRANCH  36  42
ATOM     42  C   UNL     1       0.643  -5.228  -0.820  0.00  0.00    +0.099 C 
ATOM     43  N   UNL     1      -0.047  -6.036  -1.222  0.00  0.00    -0.191 NA
ENDBRANCH  36  42
ENDBRANCH  30  33
ENDBRANCH  29  30
ENDBRANCH  25  29
ENDBRANCH   1  26
TORSDOF 8
