REMARK  Name = ZINC39873216
REMARK  5 active torsions:
REMARK  status: ('A' for Active; 'I' for Inactive)
REMARK    1  A    between atoms: C_4  and  N_7
REMARK    2  A    between atoms: C_8  and  C_23
REMARK    3  A    between atoms: C_26  and  O_29
REMARK    4  A    between atoms: O_29  and  C_30
REMARK    5  A    between atoms: C_30  and  C_31
REMARK                            x       y       z     vdW  Elec       q    Type
REMARK                         _______ _______ _______ _____ _____    ______ ____
ROOT
ATOM      1  N   UNL     1       3.620  -0.650  -0.037  0.00  0.00    -0.253 N 
ATOM      2  C   UNL     1       3.796  -2.111  -0.053  0.00  0.00    +0.150 C 
ATOM      3  C   UNL     1       5.271  -2.344  -0.065  0.00  0.00    +0.072 A 
ATOM      4  C   UNL     1       6.053  -3.584  -0.073  0.00  0.00    +0.199 A 
ATOM      5  O   UNL     1       5.558  -4.684  -0.247  0.00  0.00    -0.287 OA
ATOM      6  C   UNL     1       7.505  -3.373   0.151  0.00  0.00    +0.064 A 
ATOM      7  C   UNL     1       8.352  -4.459   0.369  0.00  0.00    +0.015 A 
ATOM      8  C   UNL     1       9.687  -4.247   0.578  0.00  0.00    +0.001 A 
ATOM      9  C   UNL     1      10.198  -2.957   0.575  0.00  0.00    +0.004 A 
ATOM     10  C   UNL     1       9.377  -1.873   0.359  0.00  0.00    +0.047 A 
ATOM     11  C   UNL     1       8.012  -2.063   0.141  0.00  0.00    +0.139 A 
ATOM     12  O   UNL     1       7.226  -0.985  -0.078  0.00  0.00    -0.450 OA
ATOM     13  C   UNL     1       5.885  -1.124  -0.062  0.00  0.00    +0.199 A 
ATOM     14  C   UNL     1       4.844  -0.082  -0.048  0.00  0.00    +0.287 C 
ATOM     15  O   UNL     1       5.056   1.114  -0.042  0.00  0.00    -0.266 OA
ENDROOT
BRANCH   1  19
ATOM     16  C   UNL     1      -0.017   1.379   0.010  0.00  0.00    +0.000 A 
ATOM     17  C   UNL     1       1.169   2.090   0.002  0.00  0.00    +0.002 A 
ATOM     18  C   UNL     1       2.377   1.420  -0.013  0.00  0.00    +0.023 A 
ATOM     19  C   UNL     1       2.400   0.031  -0.021  0.00  0.00    +0.038 A 
ATOM     20  C   UNL     1       1.206  -0.680  -0.013  0.00  0.00    +0.023 A 
ATOM     21  C   UNL     1       0.002  -0.004   0.002  0.00  0.00    +0.002 A 
ENDBRANCH   1  19
BRANCH   2  22
ATOM     22  C   UNL     1       3.181  -2.721   1.180  0.00  0.00    -0.022 A 
ATOM     23  C   UNL     1       3.312  -2.088   2.402  0.00  0.00    +0.009 A 
ATOM     24  C   UNL     1       2.750  -2.645   3.534  0.00  0.00    +0.046 A 
ATOM     25  C   UNL     1       2.054  -3.842   3.444  0.00  0.00    +0.121 A 
ATOM     26  C   UNL     1       1.924  -4.476   2.217  0.00  0.00    +0.046 A 
ATOM     27  C   UNL     1       2.484  -3.912   1.087  0.00  0.00    +0.009 A 
BRANCH  25  28
ATOM     28  O   UNL     1       1.501  -4.393   4.557  0.00  0.00    -0.483 OA
BRANCH  28  29
ATOM     29  C   UNL     1       0.799  -5.627   4.389  0.00  0.00    +0.324 C 
BRANCH  29  30
ATOM     30  C   UNL     1       0.259  -6.082   5.721  0.00  0.00    +0.248 C 
ATOM     31  O   UNL     1       0.455  -5.416   6.715  0.00  0.00    -0.272 OA
ATOM     32  N   UNL     1      -0.443  -7.229   5.806  0.00  0.00    -0.327 N 
ATOM     33  H   UNL     1      -0.600  -7.762   5.011  0.00  0.00    +0.145 HD
ATOM     34  H   UNL     1      -0.791  -7.522   6.663  0.00  0.00    +0.145 HD
ENDBRANCH  29  30
ENDBRANCH  28  29
ENDBRANCH  25  28
ENDBRANCH   2  22
TORSDOF 5
