REMARK  Name = ZINC36684489
REMARK  9 active torsions:
REMARK  status: ('A' for Active; 'I' for Inactive)
REMARK    1  A    between atoms: C_1  and  C_2
REMARK    2  A    between atoms: C_5  and  C_36
REMARK    3  A    between atoms: N_8  and  S_10
REMARK    4  A    between atoms: S_10  and  C_13
REMARK    5  A    between atoms: C_17  and  C_19
REMARK    6  A    between atoms: N_21  and  C_22
REMARK    7  A    between atoms: C_22  and  C_23
REMARK    8  A    between atoms: C_23  and  C_25
REMARK    9  A    between atoms: C_23  and  N_30
REMARK                            x       y       z     vdW  Elec       q    Type
REMARK                         _______ _______ _______ _____ _____    ______ ____
ROOT
ATOM      1  C   UNL     1       0.467   5.428   3.771  0.00  0.00    +0.244 C 
ATOM      2  O   UNL     1      -0.214   5.012   4.687  0.00  0.00    -0.270 OA
ATOM      3  N   UNL     1       0.132   6.575   3.147  0.00  0.00    -0.312 N 
ATOM      4  H   UNL     1       0.676   6.907   2.416  0.00  0.00    +0.149 HD
ENDROOT
BRANCH   1   9
ATOM      5  C   UNL     1       3.135   2.792   3.578  0.00  0.00    +0.106 A 
ATOM      6  C   UNL     1       3.910   3.268   2.535  0.00  0.00    +0.028 A 
ATOM      7  C   UNL     1       3.567   4.444   1.892  0.00  0.00    +0.003 A 
ATOM      8  C   UNL     1       2.450   5.151   2.289  0.00  0.00    +0.013 A 
ATOM      9  C   UNL     1       1.665   4.676   3.340  0.00  0.00    +0.039 A 
ATOM     10  C   UNL     1       2.013   3.486   3.981  0.00  0.00    +0.041 A 
BRANCH   5  11
ATOM     11  S   UNL     1       3.580   1.292   4.390  0.00  0.00    +0.061 S 
ATOM     12  O   UNL     1       3.000   1.344   5.686  0.00  0.00    -0.153 OA
ATOM     13  O   UNL     1       4.976   1.119   4.187  0.00  0.00    -0.153 OA
BRANCH  11  19
ATOM     14  C   UNL     1       0.399   1.087   2.276  0.00  0.00    +0.009 C 
ATOM     15  C   UNL     1       0.572  -0.358   2.749  0.00  0.00    +0.002 C 
ATOM     16  C   UNL     1       1.205  -1.189   1.630  0.00  0.00    +0.009 C 
ATOM     17  C   UNL     1       2.556  -0.583   1.244  0.00  0.00    +0.002 C 
ATOM     18  C   UNL     1       3.491  -0.615   2.458  0.00  0.00    +0.112 C 
ATOM     19  N   UNL     1       2.828   0.057   3.583  0.00  0.00    -0.176 NA
ATOM     20  C   UNL     1       1.484  -0.387   3.980  0.00  0.00    +0.112 C 
ATOM     21  C   UNL     1       3.172  -1.395   0.103  0.00  0.00    +0.009 C 
ENDBRANCH  11  19
ENDBRANCH   5  11
ENDBRANCH   1   9
BRANCH   3  22
ATOM     22  C   UNL     1      -1.056   7.320   3.574  0.00  0.00    +0.097 C 
BRANCH  22  23
ATOM     23  C   UNL     1      -1.136   8.637   2.799  0.00  0.00    +0.016 C 
BRANCH  23  24
ATOM     24  N   UNL     1       0.101   9.402   3.005  0.00  0.00    +0.387 N 
ATOM     25  C   UNL     1       0.326   9.588   4.443  0.00  0.00    -0.078 C 
ATOM     26  C   UNL     1       1.655  10.315   4.665  0.00  0.00    -0.019 C 
ATOM     27  C   UNL     1       1.605  11.680   3.974  0.00  0.00    -0.004 C 
ATOM     28  C   UNL     1       1.296  11.478   2.488  0.00  0.00    -0.019 C 
ATOM     29  C   UNL     1      -0.019  10.709   2.346  0.00  0.00    -0.078 C 
ATOM     30  H   UNL     1       0.878   8.897   2.607  0.00  0.00    -0.081 HD
ENDBRANCH  23  24
BRANCH  23  31
ATOM     31  C   UNL     1      -2.312   9.440   3.294  0.00  0.00    +0.093 A 
ATOM     32  C   UNL     1      -3.456   9.656   2.621  0.00  0.00    +0.043 A 
ATOM     33  C   UNL     1      -4.276  10.454   3.453  0.00  0.00    +0.041 A 
ATOM     34  C   UNL     1      -3.584  10.676   4.584  0.00  0.00    +0.195 A 
ATOM     35  O   UNL     1      -2.397  10.055   4.485  0.00  0.00    -0.469 OA
ENDBRANCH  23  31
ENDBRANCH  22  23
ENDBRANCH   3  22
TORSDOF 7
