REMARK  Name = ZINC00893380
REMARK  6 active torsions:
REMARK  status: ('A' for Active; 'I' for Inactive)
REMARK    1  A    between atoms: C_1  and  C_2
REMARK    2  A    between atoms: C_2  and  C_3
REMARK    3  A    between atoms: C_10  and  C_15
REMARK    4  A    between atoms: C_15  and  C_17
REMARK    5  A    between atoms: C_15  and  N_63
REMARK    6  A    between atoms: N_21  and  C_22
REMARK                            x       y       z     vdW  Elec       q    Type
REMARK                         _______ _______ _______ _____ _____    ______ ____
ROOT
ATOM      1  C   UNL     1      -0.018   1.503   0.010  0.00  0.00    +0.039 C 
ENDROOT
BRANCH   1   9
ATOM      2  C   UNL     1      -4.217   4.232  -3.625  0.00  0.00    -0.047 A 
ATOM      3  C   UNL     1      -3.679   3.805  -4.831  0.00  0.00    +0.005 A 
ATOM      4  C   UNL     1      -2.544   3.024  -4.858  0.00  0.00    +0.026 A 
ATOM      5  C   UNL     1      -1.931   2.656  -3.665  0.00  0.00    +0.049 A 
ATOM      6  C   UNL     1      -2.479   3.090  -2.444  0.00  0.00    -0.001 A 
ATOM      7  C   UNL     1      -3.631   3.883  -2.441  0.00  0.00    +0.013 A 
ATOM      8  C   UNL     1      -1.830   2.692  -1.193  0.00  0.00    +0.017 A 
ATOM      9  C   UNL     1      -0.714   1.925  -1.258  0.00  0.00    +0.011 A 
ATOM     10  C   UNL     1      -0.204   1.517  -2.509  0.00  0.00    +0.251 A 
ATOM     11  O   UNL     1       0.798   0.824  -2.545  0.00  0.00    -0.268 OA
ATOM     12  N   UNL     1      -0.796   1.873  -3.663  0.00  0.00    -0.322 N 
ATOM     13  H   UNL     1      -0.407   1.566  -4.531  0.00  0.00    +0.169 HD
BRANCH   2  15
ATOM     14  C   UNL     1      -5.060   6.563  -3.674  0.00  0.00    +0.009 C 
ATOM     15  C   UNL     1      -5.458   5.087  -3.621  0.00  0.00    +0.032 C 
ENDBRANCH   2  15
ENDBRANCH   1   9
BRANCH   1  21
ATOM     16  C   UNL     1       2.126   1.421   1.131  0.00  0.00    -0.077 C 
ATOM     17  C   UNL     1       3.620   1.701   0.959  0.00  0.00    -0.019 C 
ATOM     18  C   UNL     1       3.833   3.204   0.757  0.00  0.00    -0.004 C 
ATOM     19  C   UNL     1       3.028   3.666  -0.461  0.00  0.00    -0.019 C 
ATOM     20  C   UNL     1       1.550   3.329  -0.247  0.00  0.00    -0.077 C 
ATOM     21  N   UNL     1       1.411   1.866  -0.084  0.00  0.00    +0.389 N 
ATOM     22  H   UNL     1       1.820   1.399  -0.901  0.00  0.00    -0.080 HD
ENDBRANCH   1  21
BRANCH   1  23
ATOM     23  C   UNL     1      -0.133   0.009   0.172  0.00  0.00    +0.143 A 
ATOM     24  N   UNL     1       0.528  -0.904  -0.496  0.00  0.00    -0.115 NA
ATOM     25  N   UNL     1       0.154  -2.060  -0.068  0.00  0.00    -0.023 NA
ATOM     26  N   UNL     1      -0.736  -1.909   0.850  0.00  0.00    -0.044 NA
ATOM     27  N   UNL     1      -0.940  -0.647   1.027  0.00  0.00    -0.227 N 
BRANCH  27  28
ATOM     28  C   UNL     1      -1.874  -0.042   1.980  0.00  0.00    +0.111 C 
ATOM     29  C   UNL     1      -1.498  -0.464   3.401  0.00  0.00    +0.027 C 
ATOM     30  C   UNL     1      -2.473   0.167   4.396  0.00  0.00    +0.002 C 
ATOM     31  C   UNL     1      -3.896  -0.303   4.085  0.00  0.00    +0.000 C 
ATOM     32  C   UNL     1      -4.272   0.120   2.663  0.00  0.00    +0.002 C 
ATOM     33  C   UNL     1      -3.296  -0.512   1.668  0.00  0.00    +0.027 C 
ENDBRANCH  27  28
ENDBRANCH   1  23
TORSDOF 5
