REMARK  Name = ZINC08973613
REMARK  7 active torsions:
REMARK  status: ('A' for Active; 'I' for Inactive)
REMARK    1  A    between atoms: C_1  and  C_2
REMARK    2  A    between atoms: C_2  and  C_3
REMARK    3  A    between atoms: C_3  and  C_4
REMARK    4  A    between atoms: C_9  and  N_10
REMARK    5  A    between atoms: N_10  and  S_11
REMARK    6  A    between atoms: S_11  and  C_14
REMARK    7  A    between atoms: N_21  and  C_25
REMARK                            x       y       z     vdW  Elec       q    Type
REMARK                         _______ _______ _______ _____ _____    ______ ____
ROOT
ATOM      1  S   UNL     1      -1.458   1.925  -0.136  0.00  0.00    +0.074 S 
ATOM      2  O   UNL     1      -1.289   2.791  -1.249  0.00  0.00    -0.150 OA
ATOM      3  O   UNL     1      -2.490   0.950  -0.079  0.00  0.00    -0.150 OA
ENDROOT
BRANCH   1   4
ATOM      4  C   UNL     1      -1.662   2.957   1.278  0.00  0.00    +0.130 A 
ATOM      5  C   UNL     1      -1.693   4.330   1.129  0.00  0.00    +0.078 A 
ATOM      6  C   UNL     1      -1.853   5.143   2.239  0.00  0.00    +0.159 A 
ATOM      7  C   UNL     1      -1.982   4.569   3.504  0.00  0.00    +0.091 A 
ATOM      8  C   UNL     1      -1.951   3.192   3.648  0.00  0.00    +0.051 A 
ATOM      9  C   UNL     1      -1.796   2.388   2.533  0.00  0.00    +0.070 A 
ATOM     10 CL   UNL     1      -1.764   0.661   2.709  0.00  0.00    -0.081 Cl
ATOM     11  N   UNL     1      -2.127   5.623   4.407  0.00  0.00    -0.277 N 
ATOM     12  C   UNL     1      -2.083   6.770   3.701  0.00  0.00    +0.421 A 
ATOM     13  O   UNL     1      -2.179   7.888   4.170  0.00  0.00    -0.223 OA
ATOM     14  O   UNL     1      -1.919   6.488   2.399  0.00  0.00    -0.407 OA
ATOM     15  C   UNL     1      -2.295   5.504   5.857  0.00  0.00    +0.156 C 
ENDBRANCH   1   4
BRANCH   1  16
ATOM     16  N   UNL     1      -0.028   1.112   0.054  0.00  0.00    -0.216 N 
ATOM     17  H   UNL     1      -0.030   0.152   0.192  0.00  0.00    +0.174 HD
BRANCH  16  23
ATOM     18  C   UNL     1       2.305   1.217  -0.558  0.00  0.00    -0.021 A 
ATOM     19  C   UNL     1       3.503   1.905  -0.604  0.00  0.00    +0.055 A 
ATOM     20  C   UNL     1       3.590   3.186  -0.085  0.00  0.00    +0.167 A 
ATOM     21  C   UNL     1       2.467   3.783   0.485  0.00  0.00    +0.168 A 
ATOM     22  C   UNL     1       1.265   3.096   0.525  0.00  0.00    +0.074 A 
ATOM     23  C   UNL     1       1.184   1.809   0.008  0.00  0.00    +0.055 A 
ATOM     24  O   UNL     1       2.809   5.031   0.918  0.00  0.00    -0.453 OA
ATOM     25  C   UNL     1       4.248   5.037   0.979  0.00  0.00    +0.466 C 
ATOM     26  O   UNL     1       4.635   4.062  -0.007  0.00  0.00    -0.453 OA
BRANCH  18  27
ATOM     27  C   UNL     1       2.215  -0.177  -1.124  0.00  0.00    +0.037 C 
BRANCH  27  29
ATOM     28  C   UNL     1       1.611  -1.526  -3.139  0.00  0.00    +0.004 C 
ATOM     29  C   UNL     1       1.702  -0.110  -2.564  0.00  0.00    +0.001 C 
ENDBRANCH  27  29
ENDBRANCH  18  27
ENDBRANCH  16  23
ENDBRANCH   1  16
TORSDOF 5
