REMARK  Name = ZINC39637999
REMARK  10 active torsions:
REMARK  status: ('A' for Active; 'I' for Inactive)
REMARK    1  A    between atoms: C_1  and  C_2
REMARK    2  A    between atoms: C_2  and  C_3
REMARK    3  A    between atoms: C_3  and  C_5
REMARK    4  A    between atoms: C_3  and  N_8
REMARK    5  A    between atoms: C_5  and  O_6
REMARK    6  A    between atoms: O_6  and  C_7
REMARK    7  A    between atoms: C_9  and  C_11
REMARK    8  A    between atoms: C_22  and  C_24
REMARK    9  A    between atoms: C_25  and  C_36
REMARK   10  A    between atoms: C_28  and  C_29
REMARK                            x       y       z     vdW  Elec       q    Type
REMARK                         _______ _______ _______ _____ _____    ______ ____
ROOT
ATOM      1  C   UNL     1       4.025   1.518   1.635  0.00  0.00    +0.100 C 
ATOM      2  C   UNL     1       4.879   0.428   2.319  0.00  0.00    +0.121 C 
ATOM      3  N   UNL     1       5.931   1.177   3.046  0.00  0.00    -0.296 N 
ATOM      4  C   UNL     1       5.229   2.362   3.593  0.00  0.00    +0.115 C 
ATOM      5  C   UNL     1       4.257   2.786   2.474  0.00  0.00    -0.004 C 
ATOM      6  C   UNL     1       2.941   3.270   3.074  0.00  0.00    -0.010 C 
ATOM      7  C   UNL     1       3.186   4.564   3.856  0.00  0.00    -0.082 C 
ATOM      8  N   UNL     1       3.741   5.583   2.957  0.00  0.00    +0.379 N 
ATOM      9  C   UNL     1       5.051   5.149   2.457  0.00  0.00    -0.082 C 
ATOM     10  C   UNL     1       4.885   3.880   1.616  0.00  0.00    -0.010 C 
ATOM     11  C   UNL     1       7.233   0.854   3.178  0.00  0.00    +0.252 C 
ATOM     12  O   UNL     1       7.978   1.577   3.812  0.00  0.00    -0.270 OA
ATOM     13  H   UNL     1       3.114   5.720   2.179  0.00  0.00    -0.086 HD
ATOM     14  H   UNL     1       3.845   6.452   3.459  0.00  0.00    -0.086 HD
ENDROOT
BRANCH  11  15
ATOM     15  C   UNL     1       7.754  -0.376   2.557  0.00  0.00    +0.106 A 
ATOM     16  C   UNL     1       8.278  -0.494   1.303  0.00  0.00    +0.147 A 
ATOM     17  O   UNL     1       8.636  -1.767   1.117  0.00  0.00    -0.359 OA
ATOM     18  N   UNL     1       8.340  -2.515   2.280  0.00  0.00    -0.077 NA
ATOM     19  C   UNL     1       7.814  -1.711   3.170  0.00  0.00    +0.127 A 
ATOM     20  C   UNL     1       8.429   0.621   0.300  0.00  0.00    +0.090 C 
BRANCH  19  21
ATOM     21  C   UNL     1       7.361  -2.078   4.533  0.00  0.00    +0.023 A 
ATOM     22  C   UNL     1       6.808  -1.111   5.371  0.00  0.00    +0.011 A 
ATOM     23  C   UNL     1       6.389  -1.458   6.639  0.00  0.00    +0.001 A 
ATOM     24  C   UNL     1       6.516  -2.763   7.080  0.00  0.00    +0.001 A 
ATOM     25  C   UNL     1       7.065  -3.728   6.255  0.00  0.00    +0.020 A 
ATOM     26  C   UNL     1       7.482  -3.394   4.981  0.00  0.00    +0.050 A 
ATOM     27 CL   UNL     1       8.163  -4.607   3.942  0.00  0.00    -0.083 Cl
ENDBRANCH  19  21
ENDBRANCH  11  15
BRANCH   1  29
ATOM     28  N   UNL     1       1.730   1.618   0.717  0.00  0.00    -0.310 N 
ATOM     29  C   UNL     1       2.568   1.134   1.655  0.00  0.00    +0.218 C 
ATOM     30  O   UNL     1       2.150   0.390   2.516  0.00  0.00    -0.275 OA
ATOM     31  H   UNL     1       2.046   2.277   0.079  0.00  0.00    +0.149 HD
BRANCH  28  32
ATOM     32  C   UNL     1       0.343   1.150   0.662  0.00  0.00    +0.098 C 
BRANCH  32  34
ATOM     33  C   UNL     1      -0.286   2.372   2.748  0.00  0.00    +0.006 C 
ATOM     34  C   UNL     1      -0.579   2.217   1.255  0.00  0.00    +0.021 C 
ENDBRANCH  32  34
BRANCH  32  35
ATOM     35  C   UNL     1      -0.049   0.888  -0.794  0.00  0.00    +0.181 C 
BRANCH  35  36
ATOM     36  O   UNL     1      -0.036   2.119  -1.519  0.00  0.00    -0.381 OA
ATOM     37  C   UNL     1      -0.390   1.986  -2.897  0.00  0.00    +0.194 C 
ENDBRANCH  35  36
ENDBRANCH  32  35
ENDBRANCH  28  32
ENDBRANCH   1  29
TORSDOF 7
