REMARK  Name = ZINC43509174
REMARK  6 active torsions:
REMARK  status: ('A' for Active; 'I' for Inactive)
REMARK    1  A    between atoms: C_4  and  C_7
REMARK    2  A    between atoms: C_7  and  C_9
REMARK    3  A    between atoms: C_15  and  C_18
REMARK    4  A    between atoms: N_20  and  C_21
REMARK    5  A    between atoms: C_27  and  N_29
REMARK    6  A    between atoms: C_30  and  C_32
REMARK                            x       y       z     vdW  Elec       q    Type
REMARK                         _______ _______ _______ _____ _____    ______ ____
ROOT
ATOM      1  C   UNL     1       6.512  -3.436  -4.800  0.00  0.00    +0.218 C 
ATOM      2  O   UNL     1       7.519  -3.181  -5.426  0.00  0.00    -0.275 OA
ATOM      3  N   UNL     1       5.563  -4.224  -5.342  0.00  0.00    -0.310 N 
ATOM      4  H   UNL     1       4.758  -4.428  -4.841  0.00  0.00    +0.149 HD
ENDROOT
BRANCH   1  11
ATOM      5  C   UNL     1       3.843  -1.470  -1.331  0.00  0.00    +0.238 C 
ATOM      6  O   UNL     1       2.943  -2.193  -1.702  0.00  0.00    -0.274 OA
ATOM      7  N   UNL     1       4.965  -1.356  -2.069  0.00  0.00    -0.299 N 
ATOM      8  C   UNL     1       6.113  -0.585  -1.572  0.00  0.00    +0.108 C 
ATOM      9  C   UNL     1       7.361  -1.472  -1.623  0.00  0.00    +0.020 C 
ATOM     10  C   UNL     1       7.537  -2.018  -3.041  0.00  0.00    +0.016 C 
ATOM     11  C   UNL     1       6.323  -2.871  -3.416  0.00  0.00    +0.092 C 
ATOM     12  C   UNL     1       5.065  -2.006  -3.383  0.00  0.00    +0.120 C 
BRANCH   5  13
ATOM     13  C   UNL     1       3.706  -0.698  -0.043  0.00  0.00    +0.196 C 
ATOM     14 CL   UNL     1       3.950  -1.812   1.354  0.00  0.00    -0.107 Cl
BRANCH  13  18
ATOM     15  C   UNL     1      -0.195   1.028   0.173  0.00  0.00    +0.000 A 
ATOM     16  C   UNL     1       0.918   1.843   0.092  0.00  0.00    +0.000 A 
ATOM     17  C   UNL     1       2.180   1.285   0.022  0.00  0.00    +0.005 A 
ATOM     18  C   UNL     1       2.330  -0.089   0.034  0.00  0.00    -0.021 A 
ATOM     19  C   UNL     1       1.217  -0.905   0.116  0.00  0.00    +0.005 A 
ATOM     20  C   UNL     1      -0.046  -0.347   0.184  0.00  0.00    +0.000 A 
ENDBRANCH  13  18
ENDBRANCH   5  13
ENDBRANCH   1  11
BRANCH   3  21
ATOM     21  C   UNL     1       5.747  -4.772  -6.688  0.00  0.00    +0.093 C 
ATOM     22  C   UNL     1       6.564  -6.064  -6.605  0.00  0.00    +0.024 C 
ATOM     23  C   UNL     1       6.756  -6.636  -8.011  0.00  0.00    +0.002 C 
ATOM     24  C   UNL     1       5.390  -6.936  -8.630  0.00  0.00    +0.002 C 
ATOM     25  C   UNL     1       4.573  -5.645  -8.713  0.00  0.00    +0.024 C 
ATOM     26  C   UNL     1       4.381  -5.072  -7.308  0.00  0.00    +0.093 C 
BRANCH  26  27
ATOM     27  N   UNL     1       3.671  -6.047  -6.476  0.00  0.00    -0.307 N 
ATOM     28  C   UNL     1       2.324  -6.098  -6.499  0.00  0.00    +0.244 C 
ATOM     29  O   UNL     1       1.699  -5.336  -7.210  0.00  0.00    -0.270 OA
ATOM     30  H   UNL     1       4.170  -6.655  -5.909  0.00  0.00    +0.149 HD
BRANCH  28  31
ATOM     31  C   UNL     1       1.608  -7.081  -5.660  0.00  0.00    +0.037 A 
ATOM     32  C   UNL     1       2.323  -7.955  -4.838  0.00  0.00    +0.016 A 
ATOM     33  C   UNL     1       1.650  -8.870  -4.058  0.00  0.00    +0.039 A 
ATOM     34  C   UNL     1       0.265  -8.925  -4.088  0.00  0.00    +0.123 A 
ATOM     35  C   UNL     1      -0.450  -8.060  -4.903  0.00  0.00    +0.039 A 
ATOM     36  C   UNL     1       0.213  -7.137  -5.683  0.00  0.00    +0.016 A 
ATOM     37  F   UNL     1      -0.390  -9.824  -3.322  0.00  0.00    -0.205 F 
ENDBRANCH  28  31
ENDBRANCH  26  27
ENDBRANCH   3  21
TORSDOF 6
