REMARK  Name = ZINC12367409
REMARK  7 active torsions:
REMARK  status: ('A' for Active; 'I' for Inactive)
REMARK    1  A    between atoms: C_1  and  C_2
REMARK    2  A    between atoms: C_3  and  C_15
REMARK    3  A    between atoms: C_4  and  C_7
REMARK    4  A    between atoms: C_15  and  O_17
REMARK    5  A    between atoms: O_17  and  N_18
REMARK    6  A    between atoms: C_20  and  C_28
REMARK    7  A    between atoms: N_23  and  C_27
REMARK                            x       y       z     vdW  Elec       q    Type
REMARK                         _______ _______ _______ _____ _____    ______ ____
ROOT
ATOM      1  O   UNL     1      -3.341   5.850  -1.193  0.00  0.00    -0.311 OA
ENDROOT
BRANCH   1   2
ATOM      2  N   UNL     1      -4.504   5.498  -1.280  0.00  0.00    -0.070 NA
ATOM      3  C   UNL     1      -4.972   5.087  -2.413  0.00  0.00    +0.143 C 
ATOM      4  C   UNL     1      -6.412   4.632  -2.571  0.00  0.00    +0.161 C 
ATOM      5  N   UNL     1      -7.069   5.518  -3.539  0.00  0.00    -0.226 NA
ATOM      6  N   UNL     1      -6.463   5.649  -4.729  0.00  0.00    -0.257 N 
ATOM      7  C   UNL     1      -5.172   5.567  -5.036  0.00  0.00    +0.129 C 
ATOM      8  S   UNL     1      -4.663   6.012  -6.609  0.00  0.00    -0.026 S 
ATOM      9  S   UNL     1      -3.967   5.015  -3.871  0.00  0.00    -0.045 S 
ATOM     10  C   UNL     1      -7.356   5.922  -5.858  0.00  0.00    +0.151 C 
ATOM     11  H   UNL     1      -8.041   5.270  -3.654  0.00  0.00    +0.146 HD
BRANCH   4  12
ATOM     12  C   UNL     1      -6.443   3.212  -3.075  0.00  0.00    -0.023 A 
ATOM     13  C   UNL     1      -6.430   2.962  -4.435  0.00  0.00    +0.005 A 
ATOM     14  C   UNL     1      -6.453   1.659  -4.897  0.00  0.00    +0.000 A 
ATOM     15  C   UNL     1      -6.499   0.608  -4.001  0.00  0.00    +0.000 A 
ATOM     16  C   UNL     1      -6.518   0.859  -2.642  0.00  0.00    +0.000 A 
ATOM     17  C   UNL     1      -6.489   2.161  -2.179  0.00  0.00    +0.005 A 
ENDBRANCH   4  12
ENDBRANCH   1   2
BRANCH   1  18
ATOM     18  C   UNL     1      -2.918   6.266   0.016  0.00  0.00    +0.372 C 
ATOM     19  O   UNL     1      -3.686   6.279   0.958  0.00  0.00    -0.242 OA
BRANCH  18  22
ATOM     20  C   UNL     1      -1.796   9.254  -0.060  0.00  0.00    +0.090 C 
ATOM     21  C   UNL     1      -1.020   7.982   0.168  0.00  0.00    +0.149 A 
ATOM     22  C   UNL     1      -1.526   6.706   0.196  0.00  0.00    +0.131 A 
ATOM     23  C   UNL     1      -0.324   5.883   0.453  0.00  0.00    +0.130 A 
ATOM     24  N   UNL     1       0.662   6.739   0.541  0.00  0.00    -0.077 NA
ATOM     25  O   UNL     1       0.293   7.876   0.382  0.00  0.00    -0.358 OA
BRANCH  23  26
ATOM     26  C   UNL     1      -0.254   4.409   0.587  0.00  0.00    +0.041 A 
ATOM     27  C   UNL     1       0.569   3.667  -0.260  0.00  0.00    +0.052 A 
ATOM     28  C   UNL     1       0.630   2.293  -0.129  0.00  0.00    +0.021 A 
ATOM     29  C   UNL     1      -0.121   1.653   0.840  0.00  0.00    +0.003 A 
ATOM     30  C   UNL     1      -0.943   2.383   1.680  0.00  0.00    +0.021 A 
ATOM     31  C   UNL     1      -1.010   3.757   1.562  0.00  0.00    +0.052 A 
ATOM     32 CL   UNL     1      -2.036   4.672   2.622  0.00  0.00    -0.083 Cl
ATOM     33 CL   UNL     1       1.514   4.468  -1.476  0.00  0.00    -0.083 Cl
ENDBRANCH  23  26
ENDBRANCH  18  22
ENDBRANCH   1  18
TORSDOF 5
