REMARK  Name = ZINC39865147
REMARK  5 active torsions:
REMARK  status: ('A' for Active; 'I' for Inactive)
REMARK    1  A    between atoms: C_1  and  C_2
REMARK    2  A    between atoms: C_5  and  N_7
REMARK    3  A    between atoms: N_9  and  C_22
REMARK    4  A    between atoms: C_13  and  C_14
REMARK    5  A    between atoms: C_18  and  O_20
REMARK                            x       y       z     vdW  Elec       q    Type
REMARK                         _______ _______ _______ _____ _____    ______ ____
ROOT
ATOM      1  N   UNL     1      -1.243  -2.836   2.489  0.00  0.00    -0.199 NA
ATOM      2  C   UNL     1      -1.111  -4.112   2.193  0.00  0.00    +0.170 C 
ATOM      3  N   UNL     1      -1.203  -4.718   0.961  0.00  0.00    -0.249 N 
ATOM      4  C   UNL     1      -1.042  -6.025   0.838  0.00  0.00    +0.259 C 
ATOM      5  O   UNL     1      -1.119  -6.577  -0.244  0.00  0.00    -0.269 OA
ATOM      6  C   UNL     1      -0.763  -6.784   2.074  0.00  0.00    +0.078 C 
ATOM      7  C   UNL     1      -0.558  -8.114   2.240  0.00  0.00    +0.028 C 
ATOM      8  S   UNL     1      -0.762  -5.476   3.292  0.00  0.00    -0.049 S 
ATOM      9  C   UNL     1      -1.482  -3.908  -0.227  0.00  0.00    +0.140 C 
ENDROOT
BRANCH   1  14
ATOM     10  C   UNL     1      -4.309  -0.364  -0.387  0.00  0.00    +0.066 C 
ATOM     11  C   UNL     1      -2.932  -0.722   0.111  0.00  0.00    +0.048 A 
ATOM     12  C   UNL     1      -1.840  -0.121  -0.424  0.00  0.00    +0.071 A 
ATOM     13  S   UNL     1      -0.536  -0.903   0.516  0.00  0.00    -0.056 S 
ATOM     14  C   UNL     1      -1.585  -1.946   1.521  0.00  0.00    +0.195 A 
ATOM     15  N   UNL     1      -2.789  -1.612   1.069  0.00  0.00    -0.226 NA
ENDBRANCH   1  14
BRANCH   7  16
ATOM     16  C   UNL     1      -0.473  -8.681   3.594  0.00  0.00    -0.020 A 
ATOM     17  C   UNL     1      -0.905  -7.936   4.697  0.00  0.00    +0.008 A 
ATOM     18  C   UNL     1      -0.822  -8.473   5.964  0.00  0.00    +0.004 A 
ATOM     19  C   UNL     1      -0.314  -9.746   6.150  0.00  0.00    +0.045 A 
ATOM     20  C   UNL     1       0.117 -10.494   5.063  0.00  0.00    +0.117 A 
ATOM     21  C   UNL     1       0.035  -9.970   3.784  0.00  0.00    +0.053 A 
BRANCH  20  22
ATOM     22  O   UNL     1       0.615 -11.744   5.254  0.00  0.00    -0.507 OA
ATOM     23  H   UNL     1      -0.052 -12.443   5.219  0.00  0.00    +0.292 HD
ENDBRANCH  20  22
ENDBRANCH   7  16
TORSDOF 3
