REMARK  Name = ZINC33116326
REMARK  7 active torsions:
REMARK  status: ('A' for Active; 'I' for Inactive)
REMARK    1  A    between atoms: C_1  and  C_2
REMARK    2  A    between atoms: C_5  and  C_7
REMARK    3  A    between atoms: C_7  and  N_8
REMARK    4  A    between atoms: C_9  and  C_11
REMARK    5  A    between atoms: C_11  and  C_12
REMARK    6  A    between atoms: C_21  and  S_22
REMARK    7  A    between atoms: S_22  and  C_23
REMARK                            x       y       z     vdW  Elec       q    Type
REMARK                         _______ _______ _______ _____ _____    ______ ____
ROOT
ATOM      1  C   UNL     1       3.562   7.617  -2.885  0.00  0.00    +0.001 A 
ATOM      2  C   UNL     1       3.045   8.985  -2.932  0.00  0.00    +0.004 A 
ATOM      3  C   UNL     1       1.768   9.542  -2.821  0.00  0.00    +0.010 A 
ATOM      4  C   UNL     1       1.611  10.898  -2.901  0.00  0.00    +0.001 A 
ATOM      5  C   UNL     1       2.709  11.725  -3.086  0.00  0.00    +0.002 A 
ATOM      6  C   UNL     1       3.978  11.196  -3.192  0.00  0.00    +0.026 A 
ATOM      7  C   UNL     1       4.162   9.821  -3.113  0.00  0.00    +0.048 A 
ATOM      8  N   UNL     1       5.276   9.008  -3.181  0.00  0.00    -0.349 N 
ATOM      9  H   UNL     1       6.272   9.451  -3.327  0.00  0.00    +0.166 HD
ATOM     10  C   UNL     1       4.903   7.696  -3.044  0.00  0.00    +0.083 A 
ENDROOT
BRANCH   1  11
ATOM     11  C   UNL     1       2.753   6.358  -2.702  0.00  0.00    +0.134 C 
BRANCH  11  13
ATOM     12  N   UNL     1       1.960   4.952  -0.828  0.00  0.00    -0.308 N 
ATOM     13  C   UNL     1       2.644   6.041  -1.233  0.00  0.00    +0.218 C 
ATOM     14  O   UNL     1       3.170   6.766  -0.415  0.00  0.00    -0.275 OA
ATOM     15  H   UNL     1       1.483   4.295  -1.569  0.00  0.00    +0.149 HD
BRANCH  12  16
ATOM     16  C   UNL     1       1.854   4.644   0.601  0.00  0.00    +0.178 C 
BRANCH  16  21
ATOM     17  C   UNL     1      -2.077   1.553   1.261  0.00  0.00    +0.086 C 
ATOM     18  C   UNL     1      -0.664   2.042   1.071  0.00  0.00    +0.102 A 
ATOM     19  C   UNL     1       0.434   1.268   1.008  0.00  0.00    +0.045 A 
ATOM     20  C   UNL     1       1.536   2.134   0.820  0.00  0.00    +0.046 A 
ATOM     21  C   UNL     1       1.045   3.386   0.784  0.00  0.00    +0.122 A 
ATOM     22  O   UNL     1      -0.287   3.324   0.940  0.00  0.00    -0.463 OA
ENDBRANCH  16  21
ENDBRANCH  12  16
ENDBRANCH  11  13
ENDBRANCH   1  11
BRANCH  10  23
ATOM     23  S   UNL     1       6.004   6.320  -3.069  0.00  0.00    -0.071 S 
BRANCH  23  24
ATOM     24  C   UNL     1       5.791   5.633  -4.677  0.00  0.00    +0.017 A 
ATOM     25  C   UNL     1       4.983   6.276  -5.607  0.00  0.00    +0.015 A 
ATOM     26  C   UNL     1       4.821   5.738  -6.869  0.00  0.00    +0.004 A 
ATOM     27  C   UNL     1       5.453   4.554  -7.204  0.00  0.00    +0.038 A 
ATOM     28  C   UNL     1       6.254   3.907  -6.278  0.00  0.00    +0.124 A 
ATOM     29  C   UNL     1       6.424   4.444  -5.015  0.00  0.00    +0.053 A 
ATOM     30  F   UNL     1       6.870   2.750  -6.609  0.00  0.00    -0.205 F 
ENDBRANCH  23  24
ENDBRANCH  10  23
TORSDOF 6
