REMARK  Name = ZINC06077504
REMARK  13 active torsions:
REMARK  status: ('A' for Active; 'I' for Inactive)
REMARK    1  A    between atoms: C_1  and  C_2
REMARK    2  A    between atoms: C_2  and  C_3
REMARK    3  A    between atoms: C_3  and  C_4
REMARK    4  A    between atoms: C_3  and  C_5
REMARK    5  A    between atoms: C_3  and  N_6
REMARK    6  A    between atoms: C_7  and  C_11
REMARK    7  A    between atoms: C_11  and  C_13
REMARK    8  A    between atoms: C_11  and  N_77
REMARK    9  A    between atoms: C_17  and  C_26
REMARK   10  A    between atoms: C_18  and  C_25
REMARK   11  A    between atoms: N_29  and  C_32
REMARK   12  A    between atoms: C_34  and  C_39
REMARK   13  A    between atoms: C_37  and  C_38
REMARK                            x       y       z     vdW  Elec       q    Type
REMARK                         _______ _______ _______ _____ _____    ______ ____
ROOT
ATOM      1  C   UNL     1       5.575   6.955   0.030  0.00  0.00    +0.039 C 
ENDROOT
BRANCH   1   2
ATOM      2  C   UNL     1       6.816   6.111   0.158  0.00  0.00    +0.011 A 
ATOM      3  C   UNL     1       7.875   6.338  -0.658  0.00  0.00    +0.017 A 
ATOM      4  C   UNL     1       9.068   5.503  -0.504  0.00  0.00    -0.001 A 
ATOM      5  C   UNL     1      10.193   5.694  -1.314  0.00  0.00    +0.013 A 
ATOM      6  C   UNL     1      11.289   4.895  -1.148  0.00  0.00    -0.047 A 
ATOM      7  C   UNL     1      11.296   3.896  -0.184  0.00  0.00    -0.046 A 
ATOM      8  C   UNL     1      10.199   3.690   0.624  0.00  0.00    +0.030 A 
ATOM      9  C   UNL     1       9.071   4.491   0.474  0.00  0.00    +0.049 A 
ATOM     10  N   UNL     1       7.960   4.308   1.268  0.00  0.00    -0.322 N 
ATOM     11  H   UNL     1       7.964   3.588   1.963  0.00  0.00    +0.169 HD
ATOM     12  C   UNL     1       6.870   5.083   1.124  0.00  0.00    +0.251 A 
ATOM     13  O   UNL     1       5.906   4.893   1.844  0.00  0.00    -0.268 OA
ATOM     14  C   UNL     1      12.516   3.027  -0.020  0.00  0.00    +0.044 C 
ATOM     15  C   UNL     1      12.501   5.100  -2.020  0.00  0.00    +0.044 C 
ENDBRANCH   1   2
BRANCH   1  21
ATOM     16  C   UNL     1       3.185   6.878  -0.353  0.00  0.00    -0.058 C 
ATOM     17  C   UNL     1       1.987   5.936  -0.498  0.00  0.00    +0.086 C 
ATOM     18  N   UNL     1       2.199   5.053  -1.653  0.00  0.00    -0.333 N 
ATOM     19  C   UNL     1       3.426   4.260  -1.488  0.00  0.00    +0.086 C 
ATOM     20  C   UNL     1       4.623   5.202  -1.343  0.00  0.00    -0.058 C 
ATOM     21  N   UNL     1       4.407   6.069  -0.166  0.00  0.00    +0.391 N 
ATOM     22  H   UNL     1       4.293   5.480   0.667  0.00  0.00    -0.080 HD
BRANCH  18  23
ATOM     23  C   UNL     1       1.093   4.226  -1.860  0.00  0.00    +0.033 A 
ATOM     24  C   UNL     1       0.686   3.345  -0.866  0.00  0.00    +0.026 A 
ATOM     25  C   UNL     1      -0.408   2.529  -1.074  0.00  0.00    -0.049 A 
ATOM     26  C   UNL     1      -1.101   2.591  -2.269  0.00  0.00    +0.004 A 
ATOM     27  C   UNL     1      -0.695   3.461  -3.264  0.00  0.00    +0.005 A 
ATOM     28  C   UNL     1       0.398   4.281  -3.062  0.00  0.00    -0.029 A 
ATOM     29  C   UNL     1       0.836   5.235  -4.143  0.00  0.00    +0.045 C 
ATOM     30  C   UNL     1      -0.851   1.574   0.004  0.00  0.00    +0.044 C 
ENDBRANCH  18  23
ENDBRANCH   1  21
BRANCH   1  32
ATOM     31  N   UNL     1       5.512   9.084   1.434  0.00  0.00    -0.225 N 
ATOM     32  C   UNL     1       5.376   7.752   1.294  0.00  0.00    +0.143 A 
ATOM     33  N   UNL     1       5.043   7.282   2.471  0.00  0.00    -0.115 NA
ATOM     34  N   UNL     1       4.973   8.274   3.291  0.00  0.00    -0.023 NA
ATOM     35  N   UNL     1       5.253   9.365   2.666  0.00  0.00    -0.043 NA
BRANCH  31  36
ATOM     36  C   UNL     1       5.882  10.036   0.384  0.00  0.00    +0.061 C 
ATOM     37  C   UNL     1       7.231   9.635  -0.217  0.00  0.00    +0.036 C 
ATOM     38  C   UNL     1       4.814  10.028  -0.711  0.00  0.00    +0.036 C 
BRANCH  36  40
ATOM     39  C   UNL     1       6.374  12.435  -0.114  0.00  0.00    +0.006 C 
ATOM     40  C   UNL     1       5.988  11.440   0.983  0.00  0.00    +0.026 C 
ENDBRANCH  36  40
ENDBRANCH  31  36
ENDBRANCH   1  32
TORSDOF 6
