REMARK  Name = ZINC20684685
REMARK  9 active torsions:
REMARK  status: ('A' for Active; 'I' for Inactive)
REMARK    1  A    between atoms: C_1  and  C_2
REMARK    2  A    between atoms: C_2  and  N_3
REMARK    3  A    between atoms: C_14  and  C_16
REMARK    4  A    between atoms: C_27  and  S_32
REMARK    5  A    between atoms: S_32  and  N_35
REMARK    6  A    between atoms: N_35  and  C_36
REMARK    7  A    between atoms: N_35  and  C_39
REMARK    8  A    between atoms: C_36  and  C_37
REMARK    9  A    between atoms: C_39  and  C_40
REMARK                            x       y       z     vdW  Elec       q    Type
REMARK                         _______ _______ _______ _____ _____    ______ ____
ROOT
ATOM      1  C   UNL     1      -0.018   1.514   0.010  0.00  0.00    +0.105 C 
ATOM      2  C   UNL     1       0.002  -0.004   0.002  0.00  0.00    +0.029 C 
ATOM      3  C   UNL     1      -1.343  -0.724   0.163  0.00  0.00    +0.033 C 
ATOM      4  C   UNL     1      -0.898  -2.028   0.859  0.00  0.00    -0.030 C 
ATOM      5  C   UNL     1       0.247  -1.841   1.505  0.00  0.00    -0.023 C 
ATOM      6  C   UNL     1       0.648  -0.418   1.358  0.00  0.00    +0.049 C 
ATOM      7  C   UNL     1       2.068  -0.007   1.327  0.00  0.00    -0.018 A 
ATOM      8  C   UNL     1       3.065  -0.743   1.930  0.00  0.00    +0.034 A 
ATOM      9  C   UNL     1       4.377  -0.309   1.885  0.00  0.00    +0.106 A 
ATOM     10  C   UNL     1       4.694   0.869   1.234  0.00  0.00    +0.030 A 
ATOM     11  C   UNL     1       3.703   1.611   0.623  0.00  0.00    +0.025 A 
ATOM     12  C   UNL     1       2.382   1.180   0.656  0.00  0.00    +0.031 A 
ATOM     13  N   UNL     1       1.401   1.931  -0.001  0.00  0.00    -0.336 N 
ATOM     14  H   UNL     1       1.700   2.847  -0.532  0.00  0.00    +0.147 HD
ENDROOT
BRANCH   1  26
ATOM     15  N   UNL     1      -2.869   3.491  -4.446  0.00  0.00    -0.340 N 
ATOM     16  C   UNL     1      -4.100   3.767  -3.880  0.00  0.00    +0.050 A 
ATOM     17  C   UNL     1      -5.280   4.282  -4.409  0.00  0.00    +0.026 A 
ATOM     18  C   UNL     1      -6.380   4.458  -3.598  0.00  0.00    +0.002 A 
ATOM     19  C   UNL     1      -6.325   4.128  -2.252  0.00  0.00    +0.001 A 
ATOM     20  C   UNL     1      -5.165   3.617  -1.710  0.00  0.00    +0.010 A 
ATOM     21  C   UNL     1      -4.046   3.433  -2.518  0.00  0.00    +0.008 A 
ATOM     22  C   UNL     1      -2.685   2.924  -2.267  0.00  0.00    +0.008 A 
ATOM     23  C   UNL     1      -2.005   2.984  -3.493  0.00  0.00    +0.050 A 
ATOM     24  C   UNL     1      -0.681   2.561  -3.558  0.00  0.00    +0.027 A 
ATOM     25  C   UNL     1      -0.050   2.090  -2.427  0.00  0.00    +0.007 A 
ATOM     26  C   UNL     1      -0.723   2.032  -1.217  0.00  0.00    -0.026 A 
ATOM     27  C   UNL     1      -2.037   2.440  -1.133  0.00  0.00    +0.016 A 
BRANCH  15  29
ATOM     28  C   UNL     1      -2.852   2.443  -6.656  0.00  0.00    +0.027 C 
ATOM     29  C   UNL     1      -2.528   3.706  -5.855  0.00  0.00    +0.119 C 
ENDBRANCH  15  29
ENDBRANCH   1  26
BRANCH   9  30
ATOM     30  S   UNL     1       5.646  -1.257   2.658  0.00  0.00    +0.061 S 
ATOM     31  O   UNL     1       5.168  -2.593   2.729  0.00  0.00    -0.153 OA
ATOM     32  O   UNL     1       6.862  -0.916   2.006  0.00  0.00    -0.153 OA
BRANCH  30  33
ATOM     33  N   UNL     1       5.779  -0.718   4.218  0.00  0.00    -0.169 NA
BRANCH  33  34
ATOM     34  C   UNL     1       4.975  -1.333   5.277  0.00  0.00    +0.136 C 
BRANCH  34  35
ATOM     35  C   UNL     1       5.782  -2.408   5.960  0.00  0.00    -0.018 C 
ATOM     36  C   UNL     1       5.950  -2.374   7.258  0.00  0.00    +0.005 C 
ENDBRANCH  34  35
ENDBRANCH  33  34
BRANCH  33  37
ATOM     37  C   UNL     1       6.700   0.375   4.540  0.00  0.00    +0.136 C 
BRANCH  37  38
ATOM     38  C   UNL     1       5.951   1.683   4.532  0.00  0.00    -0.018 C 
ATOM     39  C   UNL     1       5.982   2.462   5.584  0.00  0.00    +0.005 C 
ENDBRANCH  37  38
ENDBRANCH  33  37
ENDBRANCH  30  33
ENDBRANCH   9  30
TORSDOF 8
