REMARK  Name = ZINC19497575
REMARK  5 active torsions:
REMARK  status: ('A' for Active; 'I' for Inactive)
REMARK    1  A    between atoms: C_1  and  C_2
REMARK    2  A    between atoms: C_7  and  C_10
REMARK    3  A    between atoms: N_20  and  C_23
REMARK    4  A    between atoms: C_23  and  C_24
REMARK    5  A    between atoms: C_29  and  O_30
REMARK                            x       y       z     vdW  Elec       q    Type
REMARK                         _______ _______ _______ _____ _____    ______ ____
ROOT
ATOM      1  C   UNL     1      -1.883  -1.935   7.004  0.00  0.00    +0.039 C 
ATOM      2  C   UNL     1      -0.512  -1.507   7.531  0.00  0.00    +0.133 C 
ATOM      3  C   UNL     1       0.395  -1.136   6.355  0.00  0.00    +0.139 C 
ATOM      4  N   UNL     1       1.734  -0.800   6.861  0.00  0.00    -0.296 N 
ATOM      5  C   UNL     1       2.308  -1.931   7.604  0.00  0.00    +0.139 C 
ATOM      6  C   UNL     1       1.382  -2.294   8.768  0.00  0.00    +0.133 C 
ATOM      7  O   UNL     1       0.078  -2.587   8.259  0.00  0.00    -0.371 OA
ATOM      8  C   UNL     1       1.299  -1.116   9.740  0.00  0.00    +0.039 C 
ATOM      9  C   UNL     1       2.561  -0.411   5.842  0.00  0.00    +0.199 A 
ATOM     10  N   UNL     1       3.872  -0.159   6.104  0.00  0.00    -0.295 N 
ATOM     11  H   UNL     1       4.259  -0.270   7.127  0.00  0.00    +0.172 HD
ATOM     12  C   UNL     1       4.688   0.227   5.101  0.00  0.00    +0.256 A 
ATOM     13  O   UNL     1       5.867   0.457   5.315  0.00  0.00    -0.267 OA
ATOM     14  C   UNL     1       4.156   0.360   3.803  0.00  0.00    +0.041 A 
ATOM     15  C   UNL     1       2.840   0.091   3.597  0.00  0.00    +0.067 A 
ATOM     16  N   UNL     1       2.074  -0.287   4.625  0.00  0.00    -0.219 NA
ATOM     17  C   UNL     1       2.207   0.205   2.235  0.00  0.00    +0.140 C 
ATOM     18  N   UNL     1       3.047   1.011   1.344  0.00  0.00    -0.292 NA
ATOM     19  C   UNL     1       4.425   0.493   1.335  0.00  0.00    +0.090 C 
ATOM     20  C   UNL     1       5.066   0.804   2.688  0.00  0.00    +0.058 C 
ENDROOT
BRANCH  18  21
ATOM     21  C   UNL     1       2.490   1.047  -0.015  0.00  0.00    +0.123 C 
BRANCH  21  22
ATOM     22  C   UNL     1       1.175   1.782   0.000  0.00  0.00    +0.009 A 
ATOM     23  C   UNL     1      -0.013   1.076   0.008  0.00  0.00    +0.028 A 
ATOM     24  C   UNL     1      -1.220   1.751   0.017  0.00  0.00    +0.041 A 
ATOM     25  C   UNL     1      -1.242   3.134   0.030  0.00  0.00    +0.023 A 
ATOM     26  C   UNL     1      -0.057   3.844   0.022  0.00  0.00    +0.047 A 
ATOM     27  C   UNL     1       1.155   3.169   0.008  0.00  0.00    +0.121 A 
ATOM     28 CL   UNL     1      -2.711   0.861   0.019  0.00  0.00    -0.084 Cl
BRANCH  27  29
ATOM     29  O   UNL     1       2.322   3.866   0.001  0.00  0.00    -0.506 OA
ATOM     30  H   UNL     1       2.306   4.966   0.006  0.00  0.00    +0.292 HD
ENDBRANCH  27  29
ENDBRANCH  21  22
ENDBRANCH  18  21
TORSDOF 3
