REMARK  Name = ZINC64025419
REMARK  7 active torsions:
REMARK  status: ('A' for Active; 'I' for Inactive)
REMARK    1  A    between atoms: C_1  and  O_2
REMARK    2  A    between atoms: O_2  and  C_3
REMARK    3  A    between atoms: C_6  and  C_9
REMARK    4  A    between atoms: C_9  and  C_11
REMARK    5  A    between atoms: C_9  and  C_27
REMARK    6  A    between atoms: C_11  and  N_12
REMARK    7  A    between atoms: C_13  and  C_15
REMARK                            x       y       z     vdW  Elec       q    Type
REMARK                         _______ _______ _______ _____ _____    ______ ____
ROOT
ATOM      1  C   UNL     1       2.485  -2.530  -4.378  0.00  0.00    +0.064 C 
ENDROOT
BRANCH   1   2
ATOM      2  C   UNL     1       1.491  -3.408  -5.093  0.00  0.00    -0.033 C 
ATOM      3  C   UNL     1       1.098  -3.307  -6.383  0.00  0.00    -0.000 A 
ATOM      4  C   UNL     1       1.464  -2.385  -7.465  0.00  0.00    +0.010 A 
ATOM      5  C   UNL     1       0.888  -2.537  -8.680  0.00  0.00    +0.001 A 
ATOM      6  C   UNL     1      -0.047  -3.550  -8.930  0.00  0.00    +0.002 A 
ATOM      7  C   UNL     1      -0.434  -4.435  -7.987  0.00  0.00    +0.026 A 
ATOM      8  C   UNL     1       0.108  -4.369  -6.674  0.00  0.00    +0.043 A 
ATOM      9  N   UNL     1      -0.103  -5.097  -5.604  0.00  0.00    -0.380 N 
ATOM     10  C   UNL     1       0.735  -4.583  -4.515  0.00  0.00    +0.145 C 
ATOM     11  H   UNL     1      -0.709  -5.853  -5.545  0.00  0.00    +0.160 HD
ENDBRANCH   1   2
BRANCH   1  15
ATOM     12  C   UNL     1       0.582  -0.639  -1.052  0.00  0.00    +0.120 A 
ATOM     13  C   UNL     1       1.138   0.130  -2.063  0.00  0.00    +0.046 A 
ATOM     14  C   UNL     1       1.753  -0.483  -3.138  0.00  0.00    +0.008 A 
ATOM     15  C   UNL     1       1.814  -1.863  -3.205  0.00  0.00    -0.038 A 
ATOM     16  C   UNL     1       1.261  -2.632  -2.198  0.00  0.00    +0.008 A 
ATOM     17  C   UNL     1       0.650  -2.023  -1.118  0.00  0.00    +0.046 A 
BRANCH  12  19
ATOM     18  C   UNL     1      -0.056   1.391   0.009  0.00  0.00    +0.277 C 
ATOM     19  O   UNL     1      -0.023  -0.038   0.006  0.00  0.00    -0.495 OA
ENDBRANCH  12  19
ENDBRANCH   1  15
BRANCH   1  20
ATOM     20  C   UNL     1       3.653  -3.384  -3.880  0.00  0.00    +0.117 C 
BRANCH  20  21
ATOM     21  N   UNL     1       4.378  -3.936  -5.027  0.00  0.00    -0.310 N 
ATOM     22  C   UNL     1       5.453  -4.725  -4.828  0.00  0.00    +0.249 C 
ATOM     23  O   UNL     1       5.876  -4.904  -3.702  0.00  0.00    -0.270 OA
ATOM     24  H   UNL     1       4.085  -3.734  -5.929  0.00  0.00    +0.149 HD
BRANCH  22  25
ATOM     25  C   UNL     1       6.113  -5.371  -5.974  0.00  0.00    +0.102 A 
ATOM     26  C   UNL     1       7.146  -6.278  -5.783  0.00  0.00    +0.031 A 
ATOM     27  C   UNL     1       7.748  -6.874  -6.912  0.00  0.00    +0.037 A 
ATOM     28  C   UNL     1       7.313  -6.564  -8.190  0.00  0.00    +0.030 A 
ATOM     29  N   UNL     1       6.314  -5.679  -8.377  0.00  0.00    -0.325 N 
ATOM     30  C   UNL     1       5.695  -5.078  -7.347  0.00  0.00    +0.261 A 
ATOM     31  O   UNL     1       4.790  -4.289  -7.554  0.00  0.00    -0.267 OA
ATOM     32  C   UNL     1       7.930  -7.206  -9.406  0.00  0.00    +0.054 C 
ATOM     33  C   UNL     1       9.341  -7.707  -9.114  0.00  0.00    +0.014 C 
ATOM     34  C   UNL     1       9.304  -8.648  -7.902  0.00  0.00    +0.080 C 
ATOM     35  C   UNL     1       8.852  -7.828  -6.712  0.00  0.00    +0.165 C 
ATOM     36  O   UNL     1       9.383  -7.953  -5.628  0.00  0.00    -0.292 OA
ATOM     37  H   UNL     1       6.031  -5.472  -9.281  0.00  0.00    +0.169 HD
ENDBRANCH  22  25
ENDBRANCH  20  21
ENDBRANCH   1  20
TORSDOF 6
