REMARK  Name = ZINC41015794
REMARK  8 active torsions:
REMARK  status: ('A' for Active; 'I' for Inactive)
REMARK    1  A    between atoms: C_1  and  C_2
REMARK    2  A    between atoms: C_2  and  C_4
REMARK    3  A    between atoms: C_2  and  N_26
REMARK    4  A    between atoms: N_6  and  C_7
REMARK    5  A    between atoms: C_8  and  C_22
REMARK    6  A    between atoms: C_9  and  C_12
REMARK    7  A    between atoms: C_22  and  O_24
REMARK    8  A    between atoms: O_24  and  C_25
REMARK                            x       y       z     vdW  Elec       q    Type
REMARK                         _______ _______ _______ _____ _____    ______ ____
ROOT
ATOM      1  C   UNL     1       0.948  -0.650   3.576  0.00  0.00    +0.086 A 
ATOM      2  C   UNL     1       0.625  -0.433   4.906  0.00  0.00    +0.095 A 
ATOM      3  C   UNL     1       1.503  -1.033   5.894  0.00  0.00    +0.005 A 
ATOM      4  C   UNL     1       2.547  -1.743   5.391  0.00  0.00    +0.056 A 
ATOM      5  S   UNL     1       2.329  -1.599   3.631  0.00  0.00    -0.080 S 
ENDROOT
BRANCH   3   6
ATOM      6  C   UNL     1       1.277  -0.882   7.351  0.00  0.00    -0.016 A 
ATOM      7  C   UNL     1       1.055   0.380   7.900  0.00  0.00    +0.009 A 
ATOM      8  C   UNL     1       0.848   0.506   9.256  0.00  0.00    +0.004 A 
ATOM      9  C   UNL     1       0.857  -0.612  10.083  0.00  0.00    -0.044 A 
ATOM     10  C   UNL     1       1.072  -1.862   9.544  0.00  0.00    -0.044 A 
ATOM     11  C   UNL     1       1.279  -1.999   8.180  0.00  0.00    +0.012 A 
ATOM     12  C   UNL     1       1.078  -3.115  10.382  0.00  0.00    +0.035 C 
ATOM     13  C   UNL     1       1.263  -2.774  11.859  0.00  0.00    +0.005 C 
ATOM     14  C   UNL     1       0.236  -1.700  12.239  0.00  0.00    +0.005 C 
ATOM     15  C   UNL     1       0.631  -0.393  11.556  0.00  0.00    +0.035 C 
ENDBRANCH   3   6
BRANCH   1  18
ATOM     16  C   UNL     1       0.731  -0.503   1.223  0.00  0.00    +0.238 C 
ATOM     17  O   UNL     1       1.725  -1.186   1.099  0.00  0.00    -0.273 OA
ATOM     18  N   UNL     1       0.278  -0.191   2.453  0.00  0.00    -0.278 N 
ATOM     19  H   UNL     1      -0.517   0.356   2.553  0.00  0.00    +0.155 HD
BRANCH  16  21
ATOM     20  C   UNL     1      -0.019   1.526   0.010  0.00  0.00    +0.038 C 
ATOM     21  C   UNL     1       0.002  -0.004   0.002  0.00  0.00    +0.168 C 
BRANCH  21  22
ATOM     22  N   UNL     1       0.688  -0.476  -1.203  0.00  0.00    -0.222 N 
ATOM     23  C   UNL     1       1.966  -0.193  -1.512  0.00  0.00    +0.254 C 
ATOM     24  O   UNL     1       2.723   0.485  -0.847  0.00  0.00    -0.270 OA
ATOM     25  C   UNL     1       2.296  -0.845  -2.797  0.00  0.00    +0.049 A 
ATOM     26  C   UNL     1       3.431  -0.905  -3.589  0.00  0.00    +0.014 A 
ATOM     27  C   UNL     1       3.407  -1.626  -4.773  0.00  0.00    +0.001 A 
ATOM     28  C   UNL     1       2.258  -2.285  -5.168  0.00  0.00    +0.001 A 
ATOM     29  C   UNL     1       1.115  -2.235  -4.386  0.00  0.00    +0.014 A 
ATOM     30  C   UNL     1       1.124  -1.518  -3.200  0.00  0.00    +0.049 A 
ATOM     31  C   UNL     1       0.124  -1.256  -2.144  0.00  0.00    +0.254 C 
ATOM     32  O   UNL     1      -1.017  -1.673  -2.129  0.00  0.00    -0.270 OA
ENDBRANCH  21  22
ENDBRANCH  16  21
ENDBRANCH   1  18
BRANCH   2  33
ATOM     33  C   UNL     1      -0.541   0.361   5.295  0.00  0.00    +0.342 C 
ATOM     34  O   UNL     1      -1.619  -0.180   5.454  0.00  0.00    -0.245 OA
BRANCH  33  35
ATOM     35  O   UNL     1      -0.421   1.692   5.476  0.00  0.00    -0.464 OA
ATOM     36  C   UNL     1      -1.601   2.404   5.855  0.00  0.00    +0.280 C 
ENDBRANCH  33  35
ENDBRANCH   2  33
TORSDOF 6
