REMARK  Name = ZINC01628472
REMARK  10 active torsions:
REMARK  status: ('A' for Active; 'I' for Inactive)
REMARK    1  A    between atoms: C_1  and  C_2
REMARK    2  A    between atoms: C_2  and  O_4
REMARK    3  A    between atoms: O_4  and  C_5
REMARK    4  A    between atoms: C_8  and  C_11
REMARK    5  A    between atoms: N_13  and  C_14
REMARK    6  A    between atoms: C_20  and  O_36
REMARK    7  A    between atoms: C_21  and  O_35
REMARK    8  A    between atoms: C_22  and  O_34
REMARK    9  A    between atoms: C_29  and  S_32
REMARK   10  A    between atoms: S_32  and  C_33
REMARK                            x       y       z     vdW  Elec       q    Type
REMARK                         _______ _______ _______ _____ _____    ______ ____
ROOT
ATOM      1  C   UNL     1      -1.257   1.763   0.066  0.00  0.00    +0.104 C 
ATOM      2  C   UNL     1      -2.353   0.847  -0.441  0.00  0.00    +0.032 C 
ATOM      3  C   UNL     1      -3.734   1.417  -0.129  0.00  0.00    +0.038 C 
ATOM      4  C   UNL     1      -3.758   2.890  -0.448  0.00  0.00    -0.032 A 
ATOM      5  C   UNL     1      -4.385   3.341  -1.591  0.00  0.00    +0.053 A 
ATOM      6  C   UNL     1      -4.415   4.700  -1.877  0.00  0.00    +0.162 A 
ATOM      7  C   UNL     1      -3.817   5.613  -1.014  0.00  0.00    +0.201 A 
ATOM      8  C   UNL     1      -3.181   5.165   0.136  0.00  0.00    +0.170 A 
ATOM      9  C   UNL     1      -3.150   3.795   0.414  0.00  0.00    +0.031 A 
ATOM     10  C   UNL     1      -2.444   3.305   1.636  0.00  0.00    -0.009 A 
ATOM     11  C   UNL     1      -1.542   2.255   1.471  0.00  0.00    -0.016 A 
ATOM     12  C   UNL     1      -0.890   1.626   2.466  0.00  0.00    +0.058 A 
ATOM     13  C   UNL     1      -0.868   1.802   3.819  0.00  0.00    +0.193 A 
ATOM     14  O   UNL     1      -0.210   0.987   4.451  0.00  0.00    -0.287 OA
ATOM     15  C   UNL     1      -1.497   2.789   4.575  0.00  0.00    +0.054 A 
ATOM     16  C   UNL     1      -2.338   3.744   4.084  0.00  0.00    +0.019 A 
ATOM     17  C   UNL     1      -2.743   3.938   2.817  0.00  0.00    +0.010 A 
ENDROOT
BRANCH   1  20
ATOM     18  C   UNL     1       1.177   1.709  -0.029  0.00  0.00    +0.245 C 
ATOM     19  O   UNL     1       1.172   2.922  -0.105  0.00  0.00    -0.270 OA
ATOM     20  N   UNL     1       0.013   1.035   0.064  0.00  0.00    -0.304 N 
ATOM     21  H   UNL     1       0.018   0.067   0.125  0.00  0.00    +0.150 HD
BRANCH  18  25
ATOM     22  C   UNL     1       4.861  -0.405  -0.054  0.00  0.00    +0.132 A 
ATOM     23  C   UNL     1       4.857   0.982  -0.141  0.00  0.00    +0.047 A 
ATOM     24  C   UNL     1       3.664   1.671  -0.133  0.00  0.00    +0.016 A 
ATOM     25  C   UNL     1       2.457   0.974  -0.037  0.00  0.00    +0.037 A 
ATOM     26  C   UNL     1       2.466  -0.420   0.056  0.00  0.00    +0.016 A 
ATOM     27  C   UNL     1       3.662  -1.102   0.041  0.00  0.00    +0.047 A 
BRANCH  22  28
ATOM     28  O   UNL     1       6.038  -1.081  -0.062  0.00  0.00    -0.426 OA
BRANCH  28  30
ATOM     29  C   UNL     1       8.204  -1.556   1.025  0.00  0.00    +0.136 C 
ATOM     30  C   UNL     1       6.827  -0.943   1.016  0.00  0.00    +0.309 C 
ATOM     31  O   UNL     1       6.433  -0.328   1.978  0.00  0.00    -0.251 OA
ENDBRANCH  28  30
ENDBRANCH  22  28
ENDBRANCH  18  25
ENDBRANCH   1  20
BRANCH  15  32
ATOM     32  S   UNL     1      -1.181   2.805   6.309  0.00  0.00    -0.125 S 
ATOM     33  C   UNL     1      -2.195   4.221   6.801  0.00  0.00    +0.090 C 
ENDBRANCH  15  32
BRANCH   8  34
ATOM     34  O   UNL     1      -2.594   6.050   0.984  0.00  0.00    -0.503 OA
ATOM     35  H   UNL     1      -3.182   6.381   1.677  0.00  0.00    +0.292 HD
ENDBRANCH   8  34
BRANCH   7  36
ATOM     36  O   UNL     1      -3.854   6.944  -1.298  0.00  0.00    -0.501 OA
ATOM     37  H   UNL     1      -4.623   7.402  -0.932  0.00  0.00    +0.292 HD
ENDBRANCH   7  36
BRANCH   6  38
ATOM     38  O   UNL     1      -5.033   5.141  -3.005  0.00  0.00    -0.503 OA
ATOM     39  H   UNL     1      -5.971   5.345  -2.885  0.00  0.00    +0.292 HD
ENDBRANCH   6  38
TORSDOF 8
