REMARK  Name = ZINC04162164
REMARK  8 active torsions:
REMARK  status: ('A' for Active; 'I' for Inactive)
REMARK    1  A    between atoms: C_1  and  C_2
REMARK    2  A    between atoms: C_2  and  N_50
REMARK    3  A    between atoms: C_8  and  C_10
REMARK    4  A    between atoms: C_10  and  S_11
REMARK    5  A    between atoms: S_11  and  C_12
REMARK    6  A    between atoms: N_16  and  C_17
REMARK    7  A    between atoms: N_20  and  C_25
REMARK    8  A    between atoms: N_23  and  C_24
REMARK                            x       y       z     vdW  Elec       q    Type
REMARK                         _______ _______ _______ _____ _____    ______ ____
ROOT
ATOM      1  C   UNL     1      -0.022   1.758   0.012  0.00  0.00    +0.172 A 
ATOM      2  N   UNL     1       1.044   2.534   0.006  0.00  0.00    -0.204 NA
ATOM      3  C   UNL     1       0.673   3.816   0.016  0.00  0.00    +0.169 A 
ATOM      4  C   UNL     1      -0.717   3.851   0.029  0.00  0.00    +0.152 A 
ATOM      5  N   UNL     1      -1.142   2.529   0.021  0.00  0.00    -0.316 N 
ATOM      6  C   UNL     1      -2.529   2.057   0.024  0.00  0.00    +0.151 C 
ATOM      7  C   UNL     1      -1.372   5.095   0.042  0.00  0.00    +0.282 A 
ATOM      8  O   UNL     1      -2.589   5.150   0.054  0.00  0.00    -0.265 OA
ATOM      9  N   UNL     1      -0.639   6.227   0.041  0.00  0.00    -0.262 N 
ATOM     10  C   UNL     1       0.705   6.182   0.029  0.00  0.00    +0.333 A 
ATOM     11  O   UNL     1       1.333   7.223   0.029  0.00  0.00    -0.246 OA
ATOM     12  N   UNL     1       1.372   5.013   0.016  0.00  0.00    -0.280 N 
ATOM     13  C   UNL     1       2.837   5.005   0.002  0.00  0.00    +0.155 C 
ATOM     14  C   UNL     1      -1.317   7.526   0.054  0.00  0.00    +0.157 C 
ENDROOT
BRANCH   1  15
ATOM     15  S   UNL     1       0.002  -0.004   0.002  0.00  0.00    -0.078 S 
BRANCH  15  16
ATOM     16  C   UNL     1       1.789  -0.294  -0.016  0.00  0.00    +0.173 C 
BRANCH  16  22
ATOM     17  C   UNL     1       4.607  -3.983   1.071  0.00  0.00    -0.060 C 
ATOM     18  C   UNL     1       3.609  -3.675  -0.051  0.00  0.00    +0.089 C 
ATOM     19  N   UNL     1       3.325  -2.232  -0.040  0.00  0.00    -0.304 N 
ATOM     20  C   UNL     1       4.462  -1.299  -0.052  0.00  0.00    +0.089 C 
ATOM     21  C   UNL     1       5.426  -1.701   1.076  0.00  0.00    -0.060 C 
ATOM     22  C   UNL     1       2.057  -1.777  -0.026  0.00  0.00    +0.226 C 
ATOM     23  O   UNL     1       1.131  -2.561  -0.022  0.00  0.00    -0.275 OA
ATOM     24  N   UNL     1       5.796  -3.122   0.898  0.00  0.00    +0.382 N 
ATOM     25  H   UNL     1       6.167  -3.253  -0.051  0.00  0.00    -0.082 HD
BRANCH  24  27
ATOM     26  C   UNL     1       8.128  -2.750   1.533  0.00  0.00    -0.017 C 
ATOM     27  C   UNL     1       6.838  -3.498   1.876  0.00  0.00    -0.082 C 
ENDBRANCH  24  27
ENDBRANCH  16  22
ENDBRANCH  15  16
ENDBRANCH   1  15
TORSDOF 4
