REMARK  Name = ZINC45191548
REMARK  14 active torsions:
REMARK  status: ('A' for Active; 'I' for Inactive)
REMARK    1  A    between atoms: C_1  and  C_2
REMARK    2  A    between atoms: C_3  and  C_19
REMARK    3  A    between atoms: C_4  and  O_10
REMARK    4  A    between atoms: C_6  and  C_8
REMARK    5  A    between atoms: O_10  and  C_11
REMARK    6  A    between atoms: N_13  and  C_14
REMARK    7  A    between atoms: N_13  and  C_15
REMARK    8  A    between atoms: C_15  and  C_16
REMARK    9  A    between atoms: C_16  and  N_17
REMARK   10  A    between atoms: N_17  and  C_18
REMARK   11  A    between atoms: C_22  and  O_25
REMARK   12  A    between atoms: O_25  and  C_26
REMARK   13  A    between atoms: C_29  and  O_32
REMARK   14  A    between atoms: O_32  and  C_33
REMARK                            x       y       z     vdW  Elec       q    Type
REMARK                         _______ _______ _______ _____ _____    ______ ____
ROOT
ATOM      1  C   UNL     1      -0.086   1.579   0.018  0.00  0.00    +0.066 C 
ATOM      2  C   UNL     1       0.010   0.075   0.029  0.00  0.00    +0.050 A 
ATOM      3  C   UNL     1       0.067  -0.621  -1.175  0.00  0.00    +0.047 A 
ATOM      4  C   UNL     1       0.156  -2.020  -1.145  0.00  0.00    +0.163 A 
ATOM      5  C   UNL     1       0.183  -2.651   0.095  0.00  0.00    +0.105 A 
ATOM      6  C   UNL     1       0.122  -1.884   1.243  0.00  0.00    +0.060 A 
ATOM      7  N   UNL     1       0.044  -0.568   1.179  0.00  0.00    -0.255 NA
ATOM      8  C   UNL     1       0.150  -2.561   2.589  0.00  0.00    +0.067 C 
ATOM      9 CL   UNL     1       0.292  -4.380   0.199  0.00  0.00    -0.078 Cl
ENDROOT
BRANCH   3  10
ATOM     10  C   UNL     1       0.034   0.105  -2.468  0.00  0.00    -0.012 A 
ATOM     11  C   UNL     1      -1.044  -0.062  -3.336  0.00  0.00    +0.012 A 
ATOM     12  C   UNL     1      -1.072   0.614  -4.537  0.00  0.00    +0.047 A 
ATOM     13  C   UNL     1      -0.027   1.461  -4.883  0.00  0.00    +0.128 A 
ATOM     14  C   UNL     1       1.048   1.629  -4.021  0.00  0.00    +0.047 A 
ATOM     15  C   UNL     1       1.079   0.960  -2.816  0.00  0.00    +0.012 A 
BRANCH  13  16
ATOM     16  O   UNL     1      -0.057   2.125  -6.068  0.00  0.00    -0.456 OA
BRANCH  16  17
ATOM     17  C   UNL     1       0.859   1.786  -7.013  0.00  0.00    +0.129 A 
ATOM     18  C   UNL     1       0.954   2.523  -8.184  0.00  0.00    +0.050 A 
ATOM     19  C   UNL     1       1.885   2.179  -9.145  0.00  0.00    +0.049 A 
ATOM     20  C   UNL     1       2.725   1.095  -8.938  0.00  0.00    +0.130 A 
ATOM     21  C   UNL     1       2.631   0.357  -7.767  0.00  0.00    +0.049 A 
ATOM     22  C   UNL     1       1.704   0.705  -6.805  0.00  0.00    +0.050 A 
BRANCH  20  23
ATOM     23  O   UNL     1       3.641   0.755  -9.884  0.00  0.00    -0.406 OA
BRANCH  23  24
ATOM     24  C   UNL     1       4.474  -0.373  -9.605  0.00  0.00    +0.575 C 
ATOM     25  F   UNL     1       3.677  -1.509  -9.429  0.00  0.00    -0.133 F 
ATOM     26  F   UNL     1       5.351  -0.581 -10.675  0.00  0.00    -0.133 F 
ATOM     27  F   UNL     1       5.209  -0.133  -8.439  0.00  0.00    -0.133 F 
ENDBRANCH  23  24
ENDBRANCH  20  23
ENDBRANCH  16  17
ENDBRANCH  13  16
ENDBRANCH   3  10
BRANCH   4  28
ATOM     28  O   UNL     1       0.214  -2.740  -2.295  0.00  0.00    -0.409 OA
BRANCH  28  29
ATOM     29  C   UNL     1       1.428  -3.000  -2.818  0.00  0.00    +0.408 C 
ATOM     30  O   UNL     1       2.429  -2.593  -2.262  0.00  0.00    -0.226 OA
ATOM     31  N   UNL     1       1.532  -3.711  -3.958  0.00  0.00    -0.272 N 
ATOM     32  C   UNL     1       0.326  -4.202  -4.628  0.00  0.00    +0.135 C 
BRANCH  31  33
ATOM     33  C   UNL     1       2.853  -3.993  -4.527  0.00  0.00    +0.092 C 
BRANCH  33  34
ATOM     34  C   UNL     1       3.382  -5.311  -3.958  0.00  0.00    -0.064 C 
BRANCH  34  35
ATOM     35  N   UNL     1       4.706  -5.594  -4.529  0.00  0.00    +0.378 N 
ATOM     36  C   UNL     1       5.214  -6.859  -3.982  0.00  0.00    -0.100 C 
ATOM     37  H   UNL     1       4.631  -5.667  -5.532  0.00  0.00    -0.086 HD
ATOM     38  H   UNL     1       5.341  -4.846  -4.292  0.00  0.00    -0.086 HD
ENDBRANCH  34  35
ENDBRANCH  33  34
ENDBRANCH  31  33
ENDBRANCH  28  29
ENDBRANCH   4  28
TORSDOF 10
