REMARK  Name = ZINC01355257
REMARK  4 active torsions:
REMARK  status: ('A' for Active; 'I' for Inactive)
REMARK    1  A    between atoms: C_3  and  C_8
REMARK    2  A    between atoms: C_8  and  N_9
REMARK    3  A    between atoms: C_14  and  C_16
REMARK    4  A    between atoms: C_22  and  C_24
REMARK                            x       y       z     vdW  Elec       q    Type
REMARK                         _______ _______ _______ _____ _____    ______ ____
ROOT
ATOM      1  N   UNL     1       1.135   0.647   0.539  0.00  0.00    -0.222 N 
ATOM      2  C   UNL     1       1.405   1.699   1.361  0.00  0.00    +0.186 A 
ATOM      3  C   UNL     1       2.047   1.159   2.483  0.00  0.00    +0.195 A 
ATOM      4  C   UNL     1       2.456   2.081   3.546  0.00  0.00    +0.281 A 
ATOM      5  N   UNL     1       2.187   3.396   3.373  0.00  0.00    -0.309 N 
ATOM      6  C   UNL     1       1.560   3.825   2.250  0.00  0.00    +0.115 A 
ATOM      7  N   UNL     1       1.190   3.021   1.296  0.00  0.00    -0.213 NA
ATOM      8  O   UNL     1       3.019   1.679   4.548  0.00  0.00    -0.265 OA
ATOM      9  N   UNL     1       2.143  -0.166   2.310  0.00  0.00    -0.122 NA
ATOM     10  N   UNL     1       1.614  -0.502   1.185  0.00  0.00    -0.063 NA
ATOM     11  H   UNL     1       2.444   4.035   4.056  0.00  0.00    +0.170 HD
ENDROOT
BRANCH   6  12
ATOM     12  C   UNL     1       1.279   5.298   2.099  0.00  0.00    +0.058 C 
ATOM     13  C   UNL     1      -0.035   5.642   2.805  0.00  0.00    +0.030 C 
ATOM     14  C   UNL     1      -0.299   7.146   2.680  0.00  0.00    +0.108 C 
ATOM     15  N   UNL     1      -0.263   7.515   1.258  0.00  0.00    -0.301 N 
ATOM     16  C   UNL     1       0.918   7.151   0.463  0.00  0.00    +0.108 C 
ATOM     17  C   UNL     1       1.168   5.647   0.613  0.00  0.00    +0.030 C 
ATOM     18  C   UNL     1      -1.294   8.176   0.694  0.00  0.00    +0.219 C 
ATOM     19  O   UNL     1      -2.296   8.400   1.339  0.00  0.00    -0.275 OA
BRANCH  18  20
ATOM     20  C   UNL     1      -1.201   8.635  -0.738  0.00  0.00    +0.075 C 
ATOM     21  C   UNL     1      -0.429   9.955  -0.801  0.00  0.00    +0.013 C 
ATOM     22  C   UNL     1      -0.335  10.421  -2.256  0.00  0.00    +0.001 C 
ATOM     23  C   UNL     1      -1.744  10.625  -2.818  0.00  0.00    +0.000 C 
ATOM     24  C   UNL     1      -2.515   9.306  -2.754  0.00  0.00    +0.001 C 
ATOM     25  C   UNL     1      -2.609   8.839  -1.300  0.00  0.00    +0.013 C 
ENDBRANCH  18  20
ENDBRANCH   6  12
BRANCH   1  26
ATOM     26  C   UNL     1       0.468   0.705  -0.764  0.00  0.00    +0.182 C 
BRANCH  26  29
ATOM     27  C   UNL     1      -3.171   1.544  -0.207  0.00  0.00    +0.003 A 
ATOM     28  C   UNL     1      -1.806   1.678  -0.382  0.00  0.00    +0.005 A 
ATOM     29  C   UNL     1      -1.020   0.557  -0.575  0.00  0.00    -0.023 A 
ATOM     30  C   UNL     1      -1.597  -0.698  -0.594  0.00  0.00    +0.043 A 
ATOM     31  C   UNL     1      -2.964  -0.833  -0.419  0.00  0.00    +0.124 A 
ATOM     32  C   UNL     1      -3.751   0.290  -0.226  0.00  0.00    +0.038 A 
ATOM     33  F   UNL     1      -3.530  -2.060  -0.438  0.00  0.00    -0.205 F 
ENDBRANCH  26  29
ENDBRANCH   1  26
TORSDOF 4
