REMARK  Name = ZINC57430348
REMARK  7 active torsions:
REMARK  status: ('A' for Active; 'I' for Inactive)
REMARK    1  A    between atoms: C_1  and  C_2
REMARK    2  A    between atoms: C_2  and  C_3
REMARK    3  A    between atoms: C_3  and  C_4
REMARK    4  A    between atoms: C_4  and  N_5
REMARK    5  A    between atoms: N_8  and  C_9
REMARK    6  A    between atoms: C_9  and  C_15
REMARK    7  A    between atoms: N_17  and  C_18
REMARK                            x       y       z     vdW  Elec       q    Type
REMARK                         _______ _______ _______ _____ _____    ______ ____
ROOT
ATOM      1  C   UNL     1      -4.543  -5.808  -0.102  0.00  0.00    +0.112 C 
ATOM      2  C   UNL     1      -4.081  -6.612   1.115  0.00  0.00    +0.035 C 
ATOM      3  C   UNL     1      -4.774  -6.080   2.371  0.00  0.00    +0.003 C 
ATOM      4  C   UNL     1      -6.290  -6.218   2.215  0.00  0.00    +0.000 C 
ATOM      5  C   UNL     1      -6.752  -5.414   0.998  0.00  0.00    +0.003 C 
ATOM      6  C   UNL     1      -6.059  -5.946  -0.258  0.00  0.00    +0.035 C 
ENDROOT
BRANCH   1  10
ATOM      7  N   UNL     1      -2.585  -2.715   0.220  0.00  0.00    -0.299 N 
ATOM      8  C   UNL     1      -2.905  -4.022   0.149  0.00  0.00    +0.300 C 
ATOM      9  O   UNL     1      -2.027  -4.863   0.141  0.00  0.00    -0.253 OA
ATOM     10  N   UNL     1      -4.198  -4.397   0.086  0.00  0.00    -0.285 N 
ATOM     11  H   UNL     1      -3.286  -2.044   0.226  0.00  0.00    +0.150 HD
ATOM     12  H   UNL     1      -4.900  -3.732   0.165  0.00  0.00    +0.151 HD
BRANCH   7  13
ATOM     13  C   UNL     1      -1.180  -2.307   0.288  0.00  0.00    +0.106 C 
BRANCH  13  14
ATOM     14  C   UNL     1      -1.095  -0.781   0.361  0.00  0.00    +0.018 C 
BRANCH  14  16
ATOM     15  C   UNL     1       0.459   1.171   0.506  0.00  0.00    +0.004 C 
ATOM     16  C   UNL     1       0.373  -0.355   0.433  0.00  0.00    -0.002 C 
ENDBRANCH  14  16
ENDBRANCH  13  14
ENDBRANCH   7  13
ENDBRANCH   1  10
BRANCH   1  17
ATOM     17  C   UNL     1      -3.860  -6.332  -1.339  0.00  0.00    +0.237 C 
ATOM     18  O   UNL     1      -3.453  -7.474  -1.369  0.00  0.00    -0.273 OA
ATOM     19  N   UNL     1      -3.702  -5.532  -2.411  0.00  0.00    -0.307 N 
ATOM     20  H   UNL     1      -4.083  -4.640  -2.411  0.00  0.00    +0.149 HD
BRANCH  19  21
ATOM     21  C   UNL     1      -2.955  -6.009  -3.578  0.00  0.00    +0.105 C 
ATOM     22  C   UNL     1      -2.378  -4.811  -4.330  0.00  0.00    +0.027 C 
ATOM     23  C   UNL     1      -1.800  -5.313  -5.659  0.00  0.00    +0.008 C 
ATOM     24  C   UNL     1      -2.961  -5.751  -6.550  0.00  0.00    +0.054 C 
ATOM     25  C   UNL     1      -3.876  -6.692  -5.809  0.00  0.00    +0.024 A 
ATOM     26  C   UNL     1      -3.876  -6.803  -4.466  0.00  0.00    -0.008 A 
ATOM     27  C   UNL     1      -4.769  -7.695  -3.841  0.00  0.00    +0.012 A 
ATOM     28  C   UNL     1      -5.622  -8.442  -4.594  0.00  0.00    +0.070 A 
ATOM     29  C   UNL     1      -5.591  -8.308  -5.993  0.00  0.00    +0.249 A 
ATOM     30  O   UNL     1      -6.344  -8.970  -6.689  0.00  0.00    -0.268 OA
ATOM     31  N   UNL     1      -4.730  -7.450  -6.560  0.00  0.00    -0.326 N 
ATOM     32  H   UNL     1      -4.714  -7.365  -7.526  0.00  0.00    +0.169 HD
ENDBRANCH  19  21
ENDBRANCH   1  17
TORSDOF 6
