REMARK  Name = ZINC02720899
REMARK  6 active torsions:
REMARK  status: ('A' for Active; 'I' for Inactive)
REMARK    1  A    between atoms: N_13  and  C_28
REMARK    2  A    between atoms: C_14  and  S_16
REMARK    3  A    between atoms: S_16  and  C_17
REMARK    4  A    between atoms: C_17  and  C_18
REMARK    5  A    between atoms: N_20  and  C_21
REMARK    6  A    between atoms: C_21  and  C_22
REMARK                            x       y       z     vdW  Elec       q    Type
REMARK                         _______ _______ _______ _____ _____    ______ ____
ROOT
ATOM      1  C   UNL     1      -0.011   1.365  -0.020  0.00  0.00    +0.001 A 
ATOM      2  C   UNL     1       1.063   2.026   0.560  0.00  0.00    +0.002 A 
ATOM      3  C   UNL     1       2.210   1.342   0.894  0.00  0.00    +0.026 A 
ATOM      4  C   UNL     1       2.298  -0.027   0.649  0.00  0.00    +0.049 A 
ATOM      5  C   UNL     1       1.206  -0.691   0.063  0.00  0.00    +0.026 A 
ATOM      6  C   UNL     1       0.054   0.023  -0.268  0.00  0.00    +0.012 A 
ATOM      7  C   UNL     1       1.595  -2.102  -0.066  0.00  0.00    +0.104 A 
ATOM      8  C   UNL     1       2.888  -2.205   0.447  0.00  0.00    +0.132 A 
ATOM      9  N   UNL     1       3.296  -0.951   0.873  0.00  0.00    -0.349 N 
ATOM     10  H   UNL     1       4.159  -0.752   1.269  0.00  0.00    +0.166 HD
ATOM     11  C   UNL     1       3.513  -3.469   0.446  0.00  0.00    +0.283 A 
ATOM     12  O   UNL     1       4.643  -3.604   0.886  0.00  0.00    -0.265 OA
ATOM     13  N   UNL     1       2.836  -4.526  -0.050  0.00  0.00    -0.254 N 
ATOM     14  C   UNL     1       1.570  -4.366  -0.540  0.00  0.00    +0.177 A 
ATOM     15  N   UNL     1       0.977  -3.194  -0.546  0.00  0.00    -0.221 NA
ENDROOT
BRANCH  13  16
ATOM     16  C   UNL     1       3.433  -5.793  -0.063  0.00  0.00    +0.053 A 
ATOM     17  C   UNL     1       3.276  -6.647   1.021  0.00  0.00    +0.026 A 
ATOM     18  C   UNL     1       3.866  -7.896   1.006  0.00  0.00    +0.003 A 
ATOM     19  C   UNL     1       4.613  -8.296  -0.086  0.00  0.00    +0.020 A 
ATOM     20  C   UNL     1       4.772  -7.448  -1.168  0.00  0.00    +0.043 A 
ATOM     21  C   UNL     1       4.178  -6.200  -1.161  0.00  0.00    +0.046 A 
ATOM     22 CL   UNL     1       5.710  -7.955  -2.537  0.00  0.00    -0.083 Cl
ENDBRANCH  13  16
BRANCH  14  23
ATOM     23  S   UNL     1       0.714  -5.766  -1.182  0.00  0.00    -0.078 S 
BRANCH  23  24
ATOM     24  C   UNL     1      -0.889  -5.097  -1.707  0.00  0.00    +0.173 C 
BRANCH  24  25
ATOM     25  C   UNL     1      -1.731  -6.206  -2.283  0.00  0.00    +0.223 C 
ATOM     26  O   UNL     1      -1.294  -7.336  -2.333  0.00  0.00    -0.275 OA
ATOM     27  N   UNL     1      -2.971  -5.942  -2.741  0.00  0.00    -0.312 N 
ATOM     28  H   UNL     1      -3.321  -5.038  -2.700  0.00  0.00    +0.149 HD
BRANCH  27  29
ATOM     29  C   UNL     1      -3.790  -7.019  -3.301  0.00  0.00    +0.135 C 
BRANCH  29  30
ATOM     30  C   UNL     1      -5.142  -6.455  -3.744  0.00  0.00    +0.135 C 
ATOM     31  C   UNL     1      -6.038  -7.587  -4.307  0.00  0.00    +0.035 C 
ATOM     32  C   UNL     1      -7.451  -6.987  -4.074  0.00  0.00    +0.031 C 
ATOM     33  C   UNL     1      -7.260  -6.198  -2.761  0.00  0.00    +0.160 C 
ATOM     34  O   UNL     1      -5.859  -5.933  -2.614  0.00  0.00    -0.375 OA
ENDBRANCH  29  30
ENDBRANCH  27  29
ENDBRANCH  24  25
ENDBRANCH  23  24
ENDBRANCH  14  23
TORSDOF 6
