REMARK  Name = ZINC34998181
REMARK  20 active torsions:
REMARK  status: ('A' for Active; 'I' for Inactive)
REMARK    1  A    between atoms: C_1  and  C_2
REMARK    2  A    between atoms: C_2  and  C_3
REMARK    3  A    between atoms: C_3  and  C_4
REMARK    4  A    between atoms: C_4  and  C_5
REMARK    5  A    between atoms: C_5  and  C_7
REMARK    6  A    between atoms: C_5  and  C_9
REMARK    7  A    between atoms: C_7  and  C_8
REMARK    8  A    between atoms: N_11  and  C_12
REMARK    9  A    between atoms: C_12  and  C_14
REMARK   10  A    between atoms: C_12  and  C_17
REMARK   11  A    between atoms: C_14  and  C_15
REMARK   12  A    between atoms: C_14  and  C_16
REMARK   13  A    between atoms: C_23  and  C_26
REMARK   14  A    between atoms: C_27  and  C_29
REMARK   15  A    between atoms: C_31  and  O_39
REMARK   16  A    between atoms: C_32  and  O_37
REMARK   17  A    between atoms: C_33  and  O_35
REMARK   18  A    between atoms: O_35  and  C_36
REMARK   19  A    between atoms: O_37  and  C_38
REMARK   20  A    between atoms: O_39  and  C_40
REMARK                            x       y       z     vdW  Elec       q    Type
REMARK                         _______ _______ _______ _____ _____    ______ ____
ROOT
ATOM      1  C   UNL     1      -5.338  -5.222   1.025  0.00  0.00    +0.236 C 
ATOM      2  O   UNL     1      -5.823  -4.112   1.092  0.00  0.00    -0.274 OA
ATOM      3  N   UNL     1      -6.091  -6.262   0.615  0.00  0.00    -0.297 N 
ATOM      4  C   UNL     1      -5.548  -7.628   0.626  0.00  0.00    +0.127 C 
ATOM      5  C   UNL     1      -5.687  -8.221  -0.782  0.00  0.00    +0.127 C 
ATOM      6  N   UNL     1      -7.065  -8.010  -1.247  0.00  0.00    -0.292 N 
ATOM      7  C   UNL     1      -7.608  -6.644  -1.257  0.00  0.00    +0.091 C 
ATOM      8  C   UNL     1      -7.471  -6.052   0.156  0.00  0.00    +0.130 C 
ATOM      9  C   UNL     1      -6.828  -5.789  -2.257  0.00  0.00    +0.029 C 
ATOM     10  C   UNL     1      -7.818  -9.050  -1.657  0.00  0.00    +0.247 C 
ATOM     11  O   UNL     1      -7.390 -10.184  -1.563  0.00  0.00    -0.270 OA
ENDROOT
BRANCH  10  12
ATOM     12  C   UNL     1      -9.162  -8.812  -2.219  0.00  0.00    +0.044 A 
ATOM     13  C   UNL     1      -9.356  -7.802  -3.164  0.00  0.00    +0.062 A 
ATOM     14  C   UNL     1     -10.616  -7.582  -3.690  0.00  0.00    +0.166 A 
ATOM     15  C   UNL     1     -11.690  -8.366  -3.278  0.00  0.00    +0.204 A 
ATOM     16  C   UNL     1     -11.499  -9.373  -2.336  0.00  0.00    +0.166 A 
ATOM     17  C   UNL     1     -10.241  -9.601  -1.812  0.00  0.00    +0.062 A 
BRANCH  16  18
ATOM     18  O   UNL     1     -12.551 -10.136  -1.935  0.00  0.00    -0.491 OA
ATOM     19  C   UNL     1     -12.284 -11.152  -0.966  0.00  0.00    +0.277 C 
ENDBRANCH  16  18
BRANCH  15  20
ATOM     20  O   UNL     1     -12.927  -8.147  -3.796  0.00  0.00    -0.488 OA
ATOM     21  C   UNL     1     -13.273  -8.870  -4.979  0.00  0.00    +0.277 C 
ENDBRANCH  15  20
BRANCH  14  22
ATOM     22  O   UNL     1     -10.805  -6.598  -4.610  0.00  0.00    -0.491 OA
ATOM     23  C   UNL     1      -9.659  -5.833  -4.987  0.00  0.00    +0.277 C 
ENDBRANCH  14  22
ENDBRANCH  10  12
BRANCH   1  24
ATOM     24  C   UNL     1      -3.895  -5.438   1.400  0.00  0.00    +0.162 C 
BRANCH  24  27
ATOM     25  C   UNL     1      -1.792  -4.364   0.799  0.00  0.00    +0.217 C 
ATOM     26  O   UNL     1      -1.250  -5.445   0.882  0.00  0.00    -0.275 OA
ATOM     27  N   UNL     1      -3.114  -4.253   1.039  0.00  0.00    -0.304 N 
ATOM     28  H   UNL     1      -3.548  -3.388   0.973  0.00  0.00    +0.149 HD
BRANCH  25  29
ATOM     29  C   UNL     1      -0.989  -3.144   0.427  0.00  0.00    +0.075 C 
BRANCH  29  30
ATOM     30  C   UNL     1      -1.074  -2.114   1.556  0.00  0.00    +0.009 C 
ATOM     31  C   UNL     1      -0.329  -0.843   1.144  0.00  0.00    +0.004 C 
ENDBRANCH  29  30
BRANCH  29  32
ATOM     32  C   UNL     1       0.472  -3.542   0.210  0.00  0.00    +0.013 C 
BRANCH  32  33
ATOM     33  C   UNL     1       0.571  -4.482  -0.993  0.00  0.00    +0.000 C 
BRANCH  33  35
ATOM     34  C   UNL     1       2.139  -5.753  -2.466  0.00  0.00    +0.004 C 
ATOM     35  C   UNL     1       2.040  -4.813  -1.263  0.00  0.00    -0.003 C 
ENDBRANCH  33  35
ENDBRANCH  32  33
ENDBRANCH  29  32
ENDBRANCH  25  29
ENDBRANCH  24  27
BRANCH  24  36
ATOM     36  C   UNL     1      -3.790  -5.678   2.908  0.00  0.00    +0.012 C 
ATOM     37  C   UNL     1      -4.586  -6.931   3.281  0.00  0.00    +0.009 C 
ATOM     38  C   UNL     1      -2.322  -5.874   3.292  0.00  0.00    +0.009 C 
ENDBRANCH  24  36
ENDBRANCH   1  24
TORSDOF 12
