REMARK  Name = ZINC34849526
REMARK  7 active torsions:
REMARK  status: ('A' for Active; 'I' for Inactive)
REMARK    1  A    between atoms: C_1  and  C_2
REMARK    2  A    between atoms: C_4  and  N_39
REMARK    3  A    between atoms: C_7  and  N_8
REMARK    4  A    between atoms: C_16  and  C_37
REMARK    5  A    between atoms: C_20  and  C_26
REMARK    6  A    between atoms: C_26  and  C_28
REMARK    7  A    between atoms: C_32  and  N_34
REMARK                            x       y       z     vdW  Elec       q    Type
REMARK                         _______ _______ _______ _____ _____    ______ ____
ROOT
ATOM      1  N   UNL     1       0.026  -0.013   2.419  0.00  0.00    -0.210 N 
ATOM      2  C   UNL     1      -1.110   0.340   3.090  0.00  0.00    +0.232 C 
ATOM      3  O   UNL     1      -2.227  -0.102   2.921  0.00  0.00    -0.274 OA
ATOM      4  C   UNL     1      -0.691   1.391   4.085  0.00  0.00    +0.114 C 
ATOM      5  C   UNL     1      -1.227   1.346   5.504  0.00  0.00    +0.111 C 
ATOM      6  C   UNL     1      -2.387   2.245   5.748  0.00  0.00    +0.015 C 
ATOM      7  C   UNL     1      -2.446   2.996   6.867  0.00  0.00    +0.051 C 
ATOM      8  C   UNL     1      -1.367   2.957   7.871  0.00  0.00    +0.033 C 
ATOM      9  C   UNL     1      -0.202   2.348   7.584  0.00  0.00    +0.073 C 
ATOM     10  N   UNL     1      -0.080   1.782   6.338  0.00  0.00    -0.317 N 
ATOM     11  C   UNL     1       1.174   1.485   5.596  0.00  0.00    +0.157 C 
ATOM     12  C   UNL     1       0.729   0.757   4.388  0.00  0.00    +0.118 C 
ATOM     13  C   UNL     1       1.171   0.378   3.069  0.00  0.00    +0.232 C 
ATOM     14  O   UNL     1       2.301   0.400   2.631  0.00  0.00    -0.274 OA
ENDROOT
BRANCH   1  21
ATOM     15  C   UNL     1      -0.018   1.503   0.010  0.00  0.00    +0.046 C 
ATOM     16  C   UNL     1       0.002  -0.004   0.002  0.00  0.00    -0.026 A 
ATOM     17  C   UNL     1       0.006  -0.689  -1.198  0.00  0.00    +0.038 A 
ATOM     18  C   UNL     1       0.024  -2.071  -1.206  0.00  0.00    +0.127 A 
ATOM     19  C   UNL     1       0.040  -2.773  -0.014  0.00  0.00    +0.034 A 
ATOM     20  C   UNL     1       0.035  -2.094   1.188  0.00  0.00    +0.026 A 
ATOM     21  C   UNL     1       0.023  -0.705   1.200  0.00  0.00    +0.047 A 
BRANCH  18  22
ATOM     22  N   UNL     1       0.028  -2.802  -2.493  0.00  0.00    +0.056 N 
ATOM     23  O   UNL     1       0.014  -2.190  -3.536  0.00  0.00    -0.126 OA
ATOM     24  O   UNL     1       0.044  -4.011  -2.502  0.00  0.00    -0.126 OA
ENDBRANCH  18  22
ENDBRANCH   1  21
BRANCH  11  25
ATOM     25  C   UNL     1       1.861   2.763   5.187  0.00  0.00    +0.184 C 
ATOM     26  O   UNL     1       1.268   3.818   5.252  0.00  0.00    -0.290 OA
BRANCH  25  27
ATOM     27  C   UNL     1       3.253   2.729   4.710  0.00  0.00    +0.021 A 
ATOM     28  C   UNL     1       3.939   1.513   4.628  0.00  0.00    +0.011 A 
ATOM     29  C   UNL     1       5.242   1.490   4.180  0.00  0.00    +0.003 A 
ATOM     30  C   UNL     1       5.872   2.666   3.811  0.00  0.00    +0.033 A 
ATOM     31  C   UNL     1       5.200   3.873   3.889  0.00  0.00    +0.127 A 
ATOM     32  C   UNL     1       3.894   3.912   4.330  0.00  0.00    +0.044 A 
BRANCH  31  33
ATOM     33  N   UNL     1       5.883   5.125   3.493  0.00  0.00    +0.056 N 
ATOM     34  O   UNL     1       7.027   5.092   3.101  0.00  0.00    -0.126 OA
ATOM     35  O   UNL     1       5.298   6.180   3.560  0.00  0.00    -0.126 OA
ENDBRANCH  31  33
ENDBRANCH  25  27
ENDBRANCH  11  25
BRANCH   7  36
ATOM     36  C   UNL     1      -3.578   3.846   7.084  0.00  0.00    +0.099 C 
ATOM     37  N   UNL     1      -4.476   4.521   7.256  0.00  0.00    -0.191 NA
ENDBRANCH   7  36
TORSDOF 6
