REMARK  Name = ZINC58022486
REMARK  4 active torsions:
REMARK  status: ('A' for Active; 'I' for Inactive)
REMARK    1  A    between atoms: C_1  and  C_2
REMARK    2  A    between atoms: C_2  and  C_3
REMARK    3  A    between atoms: C_11  and  S_12
REMARK    4  A    between atoms: S_12  and  C_13
REMARK                            x       y       z     vdW  Elec       q    Type
REMARK                         _______ _______ _______ _____ _____    ______ ____
ROOT
ATOM      1  C   UNL     1       0.731  -0.503   1.223  0.00  0.00    -0.008 A 
ATOM      2  C   UNL     1       0.225  -0.799   2.429  0.00  0.00    +0.024 A 
ATOM      3  C   UNL     1       1.115  -1.269   3.476  0.00  0.00    +0.040 A 
ATOM      4  C   UNL     1       2.472  -1.371   3.100  0.00  0.00    +0.113 A 
ATOM      5  S   UNL     1       2.470  -0.849   1.405  0.00  0.00    -0.074 S 
ATOM      6  N   UNL     1       3.391  -1.785   3.950  0.00  0.00    -0.228 NA
ATOM      7  C   UNL     1       3.060  -2.117   5.183  0.00  0.00    +0.223 A 
ATOM      8  N   UNL     1       1.810  -2.047   5.603  0.00  0.00    -0.229 NA
ATOM      9  C   UNL     1       0.824  -1.643   4.818  0.00  0.00    +0.108 A 
ENDROOT
BRANCH   1  11
ATOM     10  C   UNL     1      -0.019   1.526   0.010  0.00  0.00    +0.009 C 
ATOM     11  C   UNL     1       0.002  -0.004   0.002  0.00  0.00    +0.039 C 
ENDBRANCH   1  11
BRANCH   9  12
ATOM     12  S   UNL     1      -0.828  -1.566   5.427  0.00  0.00    -0.109 S 
ATOM     13  C   UNL     1      -0.687  -2.127   7.147  0.00  0.00    +0.091 C 
ENDBRANCH   9  12
TORSDOF 2
