REMARK  Name = ZINC61514002
REMARK  5 active torsions:
REMARK  status: ('A' for Active; 'I' for Inactive)
REMARK    1  A    between atoms: C_1  and  C_2
REMARK    2  A    between atoms: C_7  and  O_10
REMARK    3  A    between atoms: O_10  and  C_11
REMARK    4  A    between atoms: C_13  and  O_18
REMARK    5  A    between atoms: O_18  and  C_19
REMARK                            x       y       z     vdW  Elec       q    Type
REMARK                         _______ _______ _______ _____ _____    ______ ____
ROOT
ATOM      1  C   UNL     1       2.086  -3.682   0.146  0.00  0.00    +0.325 A 
ATOM      2  N   UNL     1       2.732  -4.164  -0.908  0.00  0.00    -0.141 NA
ATOM      3  C   UNL     1       3.374  -5.323  -0.819  0.00  0.00    +0.325 A 
ATOM      4  N   UNL     1       3.367  -5.998   0.326  0.00  0.00    -0.164 NA
ATOM      5  C   UNL     1       2.723  -5.515   1.376  0.00  0.00    +0.231 A 
ATOM      6  N   UNL     1       2.087  -4.358   1.290  0.00  0.00    -0.164 NA
ATOM      7 CL   UNL     1       2.716  -6.399   2.870  0.00  0.00    -0.041 Cl
ENDROOT
BRANCH   3   8
ATOM      8  O   UNL     1       4.033  -5.817  -1.892  0.00  0.00    -0.466 OA
ATOM      9  C   UNL     1       4.701  -7.069  -1.724  0.00  0.00    +0.280 C 
ENDBRANCH   3   8
BRANCH   1  10
ATOM     10  O   UNL     1       1.432  -2.502   0.057  0.00  0.00    -0.459 OA
BRANCH  10  16
ATOM     11  C   UNL     1      -0.019   1.526   0.010  0.00  0.00    +0.007 C 
ATOM     12  C   UNL     1       0.002  -0.004   0.002  0.00  0.00    -0.011 C 
ATOM     13  C   UNL     1      -1.433  -0.534   0.013  0.00  0.00    +0.003 C 
ATOM     14  C   UNL     1      -1.413  -2.063   0.004  0.00  0.00    +0.004 C 
ATOM     15  C   UNL     1      -0.673  -2.570   1.244  0.00  0.00    +0.045 C 
ATOM     16  C   UNL     1       0.763  -2.041   1.233  0.00  0.00    +0.177 C 
ATOM     17  C   UNL     1       0.742  -0.511   1.242  0.00  0.00    +0.048 C 
ENDBRANCH  10  16
ENDBRANCH   1  10
TORSDOF 3
