REMARK  Name = ZINC36549397
REMARK  12 active torsions:
REMARK  status: ('A' for Active; 'I' for Inactive)
REMARK    1  A    between atoms: C_1  and  C_2
REMARK    2  A    between atoms: C_2  and  C_3
REMARK    3  A    between atoms: C_3  and  C_4
REMARK    4  A    between atoms: C_5  and  C_6
REMARK    5  A    between atoms: C_6  and  C_8
REMARK    6  A    between atoms: C_6  and  N_22
REMARK    7  A    between atoms: N_10  and  C_11
REMARK    8  A    between atoms: C_11  and  S_12
REMARK    9  A    between atoms: S_12  and  C_15
REMARK   10  A    between atoms: C_18  and  C_21
REMARK   11  A    between atoms: N_22  and  C_23
REMARK   12  A    between atoms: C_30  and  C_32
REMARK                            x       y       z     vdW  Elec       q    Type
REMARK                         _______ _______ _______ _____ _____    ______ ____
ROOT
ATOM      1  C   UNL     1      -1.997  -4.077   0.917  0.00  0.00    +0.190 C 
ENDROOT
BRANCH   1   2
ATOM      2  C   UNL     1      -3.474  -4.276   1.142  0.00  0.00    +0.239 C 
ATOM      3  O   UNL     1      -4.101  -5.023   0.422  0.00  0.00    -0.273 OA
ATOM      4  N   UNL     1      -4.097  -3.623   2.143  0.00  0.00    -0.294 N 
ATOM      5  H   UNL     1      -3.595  -3.025   2.719  0.00  0.00    +0.150 HD
BRANCH   4   6
ATOM      6  C   UNL     1      -5.532  -3.816   2.361  0.00  0.00    +0.278 C 
BRANCH   6   7
ATOM      7  S   UNL     1      -5.786  -5.097   3.620  0.00  0.00    +0.013 S 
ATOM      8  O   UNL     1      -7.172  -5.251   3.889  0.00  0.00    -0.168 OA
ATOM      9  O   UNL     1      -4.972  -6.228   3.339  0.00  0.00    -0.168 OA
BRANCH   7  10
ATOM     10  C   UNL     1      -5.114  -4.417   5.100  0.00  0.00    +0.090 A 
ATOM     11  C   UNL     1      -3.782  -4.618   5.411  0.00  0.00    +0.027 A 
ATOM     12  C   UNL     1      -3.255  -4.084   6.572  0.00  0.00    +0.005 A 
ATOM     13  C   UNL     1      -4.059  -3.349   7.422  0.00  0.00    -0.050 A 
ATOM     14  C   UNL     1      -5.391  -3.146   7.111  0.00  0.00    +0.005 A 
ATOM     15  C   UNL     1      -5.917  -3.676   5.948  0.00  0.00    +0.027 A 
ATOM     16  C   UNL     1      -3.485  -2.767   8.688  0.00  0.00    +0.044 C 
ENDBRANCH   7  10
ENDBRANCH   6   7
ENDBRANCH   4   6
ENDBRANCH   1   2
BRANCH   1  17
ATOM     17  N   UNL     1      -1.567  -4.872  -0.236  0.00  0.00    -0.251 N 
ATOM     18  C   UNL     1      -2.195  -4.734  -1.421  0.00  0.00    +0.253 C 
ATOM     19  O   UNL     1      -3.046  -3.878  -1.562  0.00  0.00    -0.270 OA
BRANCH  17  20
ATOM     20  C   UNL     1      -0.505  -5.774  -0.108  0.00  0.00    +0.056 A 
ATOM     21  C   UNL     1       0.747  -5.451  -0.614  0.00  0.00    +0.025 A 
ATOM     22  C   UNL     1       1.793  -6.344  -0.485  0.00  0.00    +0.002 A 
ATOM     23  C   UNL     1       1.595  -7.558   0.146  0.00  0.00    +0.002 A 
ATOM     24  C   UNL     1       0.350  -7.884   0.651  0.00  0.00    +0.022 A 
ATOM     25  C   UNL     1      -0.700  -6.992   0.532  0.00  0.00    +0.062 A 
ATOM     26 CL   UNL     1      -2.261  -7.398   1.173  0.00  0.00    -0.082 Cl
ENDBRANCH  17  20
BRANCH  18  27
ATOM     27  C   UNL     1      -1.848  -5.625  -2.549  0.00  0.00    +0.055 A 
ATOM     28  C   UNL     1      -1.459  -6.949  -2.316  0.00  0.00    +0.016 A 
ATOM     29  C   UNL     1      -1.145  -7.741  -3.406  0.00  0.00    +0.020 A 
ATOM     30  C   UNL     1      -1.225  -7.205  -4.679  0.00  0.00    +0.111 A 
ATOM     31  N   UNL     1      -1.595  -5.952  -4.868  0.00  0.00    -0.263 NA
ATOM     32  C   UNL     1      -1.909  -5.161  -3.863  0.00  0.00    +0.123 A 
ENDBRANCH  18  27
ENDBRANCH   1  17
BRANCH   1  34
ATOM     33  C   UNL     1      -1.059  -2.262  -0.419  0.00  0.00    -0.029 C 
ATOM     34  C   UNL     1      -1.720  -2.620   0.654  0.00  0.00    +0.001 C 
BRANCH  33  35
ATOM     35  C   UNL     1      -0.905  -0.801  -0.757  0.00  0.00    +0.027 C 
BRANCH  35  37
ATOM     36  C   UNL     1       0.735   1.015  -1.260  0.00  0.00    +0.004 C 
ATOM     37  C   UNL     1       0.579  -0.468  -0.917  0.00  0.00    +0.001 C 
ENDBRANCH  35  37
ENDBRANCH  33  35
ENDBRANCH   1  34
TORSDOF 10
