REMARK  Name = ZINC63234711
REMARK  11 active torsions:
REMARK  status: ('A' for Active; 'I' for Inactive)
REMARK    1  A    between atoms: C_1  and  C_2
REMARK    2  A    between atoms: C_2  and  C_4
REMARK    3  A    between atoms: C_8  and  S_10
REMARK    4  A    between atoms: S_10  and  N_13
REMARK    5  A    between atoms: N_13  and  C_14
REMARK    6  A    between atoms: C_14  and  C_15
REMARK    7  A    between atoms: C_15  and  C_16
REMARK    8  A    between atoms: N_18  and  C_19
REMARK    9  A    between atoms: C_19  and  C_20
REMARK   10  A    between atoms: C_20  and  C_22
REMARK   11  A    between atoms: C_20  and  C_29
REMARK                            x       y       z     vdW  Elec       q    Type
REMARK                         _______ _______ _______ _____ _____    ______ ____
ROOT
ATOM      1  C   UNL     1      -0.186  -5.340  -4.590  0.00  0.00    +0.214 C 
ATOM      2  O   UNL     1       0.630  -4.510  -4.247  0.00  0.00    -0.276 OA
ATOM      3  N   UNL     1      -0.043  -5.979  -5.768  0.00  0.00    -0.314 N 
ATOM      4  H   UNL     1      -0.695  -6.642  -6.042  0.00  0.00    +0.149 HD
ENDROOT
BRANCH   1   5
ATOM      5  C   UNL     1      -1.360  -5.655  -3.699  0.00  0.00    +0.112 C 
BRANCH   5   6
ATOM      6  C   UNL     1      -1.286  -4.797  -2.435  0.00  0.00    +0.115 C 
BRANCH   6   7
ATOM      7  N   UNL     1      -2.427  -5.104  -1.569  0.00  0.00    -0.189 NA
ATOM      8  H   UNL     1      -3.186  -5.593  -1.922  0.00  0.00    +0.148 HD
BRANCH   7   9
ATOM      9  S   UNL     1      -2.421  -4.616   0.014  0.00  0.00    +0.058 S 
ATOM     10  O   UNL     1      -1.168  -5.011   0.555  0.00  0.00    -0.153 OA
ATOM     11  O   UNL     1      -3.658  -5.034   0.573  0.00  0.00    -0.153 OA
BRANCH   9  16
ATOM     12  C   UNL     1      -1.262  -0.757   0.010  0.00  0.00    +0.019 A 
ATOM     13  C   UNL     1      -2.485  -0.078   0.019  0.00  0.00    +0.011 A 
ATOM     14  C   UNL     1      -3.665  -0.791   0.026  0.00  0.00    +0.003 A 
ATOM     15  C   UNL     1      -3.642  -2.175   0.024  0.00  0.00    +0.028 A 
ATOM     16  C   UNL     1      -2.437  -2.854   0.015  0.00  0.00    +0.106 A 
ATOM     17  C   UNL     1      -1.248  -2.155   0.002  0.00  0.00    +0.040 A 
BRANCH  12  19
ATOM     18  C   UNL     1      -0.018   1.503   0.010  0.00  0.00    +0.091 C 
ATOM     19  C   UNL     1       0.002  -0.004   0.002  0.00  0.00    +0.160 C 
ATOM     20  O   UNL     1       1.060  -0.596  -0.011  0.00  0.00    -0.292 OA
ENDBRANCH  12  19
ENDBRANCH   9  16
ENDBRANCH   7   9
ENDBRANCH   6   7
ENDBRANCH   5   6
ENDBRANCH   1   5
BRANCH   3  21
ATOM     21  C   UNL     1       1.099  -5.672  -6.634  0.00  0.00    +0.116 C 
BRANCH  21  22
ATOM     22  C   UNL     1       1.024  -6.530  -7.898  0.00  0.00    +0.066 C 
BRANCH  22  23
ATOM     23  C   UNL     1       2.127  -6.128  -8.843  0.00  0.00    -0.033 C 
ATOM     24  C   UNL     1       1.987  -5.648 -10.100  0.00  0.00    -0.000 A 
ATOM     25  C   UNL     1       0.810  -5.367 -10.931  0.00  0.00    +0.010 A 
ATOM     26  C   UNL     1       0.991  -4.880 -12.180  0.00  0.00    +0.001 A 
ATOM     27  C   UNL     1       2.270  -4.637 -12.699  0.00  0.00    +0.002 A 
ATOM     28  C   UNL     1       3.398  -4.870 -11.995  0.00  0.00    +0.026 A 
ATOM     29  C   UNL     1       3.327  -5.382 -10.671  0.00  0.00    +0.043 A 
ATOM     30  N   UNL     1       4.259  -5.687  -9.801  0.00  0.00    -0.380 N 
ATOM     31  C   UNL     1       3.615  -6.175  -8.576  0.00  0.00    +0.145 C 
ATOM     32  H   UNL     1       5.215  -5.600  -9.942  0.00  0.00    +0.160 HD
ENDBRANCH  22  23
BRANCH  22  33
ATOM     33  C   UNL     1       1.183  -7.983  -7.530  0.00  0.00    -0.020 A 
ATOM     34  C   UNL     1       2.333  -8.414  -6.896  0.00  0.00    +0.006 A 
ATOM     35  C   UNL     1       2.478  -9.746  -6.558  0.00  0.00    +0.000 A 
ATOM     36  C   UNL     1       1.473 -10.649  -6.854  0.00  0.00    +0.001 A 
ATOM     37  C   UNL     1       0.323 -10.219  -7.488  0.00  0.00    +0.020 A 
ATOM     38  C   UNL     1       0.174  -8.884  -7.822  0.00  0.00    +0.045 A 
ATOM     39 CL   UNL     1      -1.273  -8.342  -8.612  0.00  0.00    -0.083 Cl
ENDBRANCH  22  33
ENDBRANCH  21  22
ENDBRANCH   3  21
TORSDOF 10
