REMARK  Name = ZINC36579105
REMARK  15 active torsions:
REMARK  status: ('A' for Active; 'I' for Inactive)
REMARK    1  A    between atoms: C_1  and  C_2
REMARK    2  A    between atoms: C_2  and  C_3
REMARK    3  A    between atoms: C_2  and  C_4
REMARK    4  A    between atoms: C_2  and  N_5
REMARK    5  A    between atoms: C_6  and  C_8
REMARK    6  A    between atoms: C_8  and  C_10
REMARK    7  A    between atoms: C_8  and  N_17
REMARK    8  A    between atoms: C_14  and  O_16
REMARK    9  A    between atoms: N_17  and  C_34
REMARK   10  A    between atoms: C_18  and  C_20
REMARK   11  A    between atoms: C_20  and  C_28
REMARK   12  A    between atoms: C_21  and  C_22
REMARK   13  A    between atoms: C_34  and  C_35
REMARK   14  A    between atoms: C_34  and  C_36
REMARK   15  A    between atoms: C_34  and  C_37
REMARK                            x       y       z     vdW  Elec       q    Type
REMARK                         _______ _______ _______ _____ _____    ______ ____
ROOT
ATOM      1  N   UNL     1       3.866  -1.473  -1.666  0.00  0.00    -0.277 N 
ATOM      2  C   UNL     1       4.032  -2.199  -2.789  0.00  0.00    +0.248 C 
ATOM      3  O   UNL     1       3.296  -3.140  -3.019  0.00  0.00    -0.270 OA
ENDROOT
BRANCH   1   4
ATOM      4  C   UNL     1       4.684  -0.278  -1.439  0.00  0.00    +0.030 C 
ATOM      5  C   UNL     1       4.427   0.255  -0.028  0.00  0.00    +0.031 C 
ATOM      6  C   UNL     1       6.163  -0.637  -1.587  0.00  0.00    +0.031 C 
ATOM      7  C   UNL     1       4.314   0.795  -2.465  0.00  0.00    +0.031 C 
ENDBRANCH   1   4
BRANCH   2   8
ATOM      8  C   UNL     1       5.104  -1.855  -3.737  0.00  0.00    +0.045 C 
ATOM      9  C   UNL     1       4.897  -0.893  -4.676  0.00  0.00    +0.021 C 
BRANCH   9  10
ATOM     10  C   UNL     1       3.554  -0.328  -4.867  0.00  0.00    -0.024 A 
ATOM     11  C   UNL     1       3.400   1.019  -5.212  0.00  0.00    +0.008 A 
ATOM     12  C   UNL     1       2.136   1.541  -5.389  0.00  0.00    +0.001 A 
ATOM     13  C   UNL     1       1.022   0.736  -5.226  0.00  0.00    +0.000 A 
ATOM     14  C   UNL     1       1.165  -0.598  -4.884  0.00  0.00    +0.001 A 
ATOM     15  C   UNL     1       2.422  -1.137  -4.709  0.00  0.00    +0.008 A 
ENDBRANCH   9  10
BRANCH   8  16
ATOM     16  C   UNL     1       6.407  -2.555  -3.669  0.00  0.00    -0.013 A 
ATOM     17  C   UNL     1       6.451  -3.932  -3.450  0.00  0.00    +0.008 A 
ATOM     18  C   UNL     1       7.669  -4.578  -3.387  0.00  0.00    +0.001 A 
ATOM     19  C   UNL     1       8.843  -3.864  -3.540  0.00  0.00    +0.000 A 
ATOM     20  C   UNL     1       8.806  -2.498  -3.758  0.00  0.00    +0.001 A 
ATOM     21  C   UNL     1       7.595  -1.841  -3.829  0.00  0.00    +0.008 A 
ENDBRANCH   8  16
ENDBRANCH   2   8
BRANCH   1  22
ATOM     22  C   UNL     1       2.868  -1.877  -0.673  0.00  0.00    +0.193 C 
BRANCH  22  23
ATOM     23  C   UNL     1       3.289  -3.178  -0.039  0.00  0.00    -0.015 A 
ATOM     24  C   UNL     1       4.139  -4.033  -0.715  0.00  0.00    +0.006 A 
ATOM     25  C   UNL     1       4.527  -5.227  -0.136  0.00  0.00    +0.004 A 
ATOM     26  C   UNL     1       4.066  -5.568   1.121  0.00  0.00    +0.045 A 
ATOM     27  C   UNL     1       3.213  -4.712   1.802  0.00  0.00    +0.117 A 
ATOM     28  C   UNL     1       2.830  -3.511   1.221  0.00  0.00    +0.051 A 
BRANCH  27  29
ATOM     29  O   UNL     1       2.758  -5.045   3.038  0.00  0.00    -0.507 OA
ATOM     30  H   UNL     1       3.323  -4.739   3.761  0.00  0.00    +0.292 HD
ENDBRANCH  27  29
ENDBRANCH  22  23
BRANCH  22  32
ATOM     31  N   UNL     1       0.504  -2.606  -0.670  0.00  0.00    -0.309 N 
ATOM     32  C   UNL     1       1.532  -2.056  -1.347  0.00  0.00    +0.239 C 
ATOM     33  O   UNL     1       1.382  -1.706  -2.498  0.00  0.00    -0.273 OA
ATOM     34  H   UNL     1       0.601  -2.817   0.272  0.00  0.00    +0.149 HD
BRANCH  31  36
ATOM     35  C   UNL     1      -0.510  -3.860  -2.508  0.00  0.00    +0.031 C 
ATOM     36  C   UNL     1      -0.759  -2.884  -1.357  0.00  0.00    +0.026 C 
ATOM     37  C   UNL     1      -1.337  -1.580  -1.911  0.00  0.00    +0.031 C 
ATOM     38  C   UNL     1      -1.751  -3.502  -0.370  0.00  0.00    +0.031 C 
ENDBRANCH  31  36
ENDBRANCH  22  32
ENDBRANCH   1  22
TORSDOF 9
