REMARK  Name = ZINC01129644
REMARK  11 active torsions:
REMARK  status: ('A' for Active; 'I' for Inactive)
REMARK    1  A    between atoms: C_1  and  C_2
REMARK    2  A    between atoms: C_3  and  C_32
REMARK    3  A    between atoms: C_4  and  C_22
REMARK    4  A    between atoms: C_10  and  C_15
REMARK    5  A    between atoms: C_24  and  O_30
REMARK    6  A    between atoms: C_27  and  O_28
REMARK    7  A    between atoms: O_28  and  C_29
REMARK    8  A    between atoms: O_30  and  C_31
REMARK    9  A    between atoms: C_32  and  O_34
REMARK   10  A    between atoms: O_34  and  C_35
REMARK   11  A    between atoms: C_35  and  C_36
REMARK                            x       y       z     vdW  Elec       q    Type
REMARK                         _______ _______ _______ _____ _____    ______ ____
ROOT
ATOM      1  C   UNL     1      -0.018   1.503   0.010  0.00  0.00    +0.061 C 
ATOM      2  C   UNL     1       0.002  -0.004   0.002  0.00  0.00    +0.016 C 
ATOM      3  C   UNL     1      -1.155  -0.687   0.004  0.00  0.00    +0.065 C 
ATOM      4  C   UNL     1      -1.174  -2.188   0.004  0.00  0.00    +0.096 C 
ATOM      5  C   UNL     1       0.160  -2.745  -0.427  0.00  0.00    +0.024 C 
ATOM      6  C   UNL     1       1.268  -1.974  -0.407  0.00  0.00    +0.016 C 
ATOM      7  N   UNL     1       1.198  -0.667  -0.013  0.00  0.00    -0.321 N 
ATOM      8  C   UNL     1       2.608  -2.531  -0.819  0.00  0.00    +0.059 C 
ATOM      9  C   UNL     1       2.410  -3.613  -1.883  0.00  0.00    +0.032 C 
ATOM     10  C   UNL     1       1.508  -4.706  -1.303  0.00  0.00    +0.088 C 
ATOM     11  C   UNL     1       0.215  -4.085  -0.850  0.00  0.00    +0.162 C 
ATOM     12  O   UNL     1      -0.800  -4.753  -0.848  0.00  0.00    -0.292 OA
ATOM     13  H   UNL     1       2.006  -0.206   0.263  0.00  0.00    +0.152 HD
ENDROOT
BRANCH   9  14
ATOM     14  C   UNL     1       3.745  -4.201  -2.262  0.00  0.00    -0.043 A 
ATOM     15  C   UNL     1       4.523  -4.823  -1.303  0.00  0.00    +0.007 A 
ATOM     16  C   UNL     1       5.747  -5.363  -1.649  0.00  0.00    +0.038 A 
ATOM     17  C   UNL     1       6.195  -5.280  -2.956  0.00  0.00    +0.123 A 
ATOM     18  C   UNL     1       5.415  -4.657  -3.916  0.00  0.00    +0.038 A 
ATOM     19  C   UNL     1       4.189  -4.122  -3.569  0.00  0.00    +0.007 A 
ATOM     20  F   UNL     1       7.392  -5.807  -3.296  0.00  0.00    -0.205 F 
ENDBRANCH   9  14
BRANCH   4  21
ATOM     21  C   UNL     1      -1.489  -2.679   1.393  0.00  0.00    +0.010 A 
ATOM     22  C   UNL     1      -0.660  -2.346   2.447  0.00  0.00    +0.053 A 
ATOM     23  C   UNL     1      -0.950  -2.798   3.726  0.00  0.00    +0.121 A 
ATOM     24  C   UNL     1      -2.072  -3.584   3.947  0.00  0.00    +0.049 A 
ATOM     25  C   UNL     1      -2.900  -3.916   2.893  0.00  0.00    +0.049 A 
ATOM     26  C   UNL     1      -2.613  -3.460   1.614  0.00  0.00    +0.124 A 
BRANCH  26  27
ATOM     27  O   UNL     1      -3.431  -3.783   0.578  0.00  0.00    -0.495 OA
ATOM     28  C   UNL     1      -4.571  -4.591   0.878  0.00  0.00    +0.277 C 
ENDBRANCH  26  27
BRANCH  23  29
ATOM     29  O   UNL     1      -0.135  -2.471   4.764  0.00  0.00    -0.495 OA
ATOM     30  C   UNL     1      -0.494  -2.970   6.054  0.00  0.00    +0.277 C 
ENDBRANCH  23  29
ENDBRANCH   4  21
BRANCH   3  31
ATOM     31  C   UNL     1      -2.380   0.021   0.006  0.00  0.00    +0.338 C 
ATOM     32  O   UNL     1      -2.378   1.238   0.007  0.00  0.00    -0.245 OA
BRANCH  31  33
ATOM     33  O   UNL     1      -3.549  -0.652   0.008  0.00  0.00    -0.459 OA
BRANCH  33  34
ATOM     34  C   UNL     1      -4.747   0.128   0.011  0.00  0.00    +0.264 C 
BRANCH  34  35
ATOM     35  C   UNL     1      -5.961  -0.802   0.013  0.00  0.00    +0.156 C 
ATOM     36  C   UNL     1      -7.270   0.022   0.107  0.00  0.00    +0.037 C 
ATOM     37  C   UNL     1      -8.284  -0.961  -0.539  0.00  0.00    +0.031 C 
ATOM     38  C   UNL     1      -7.424  -1.660  -1.614  0.00  0.00    +0.160 C 
ATOM     39  O   UNL     1      -6.050  -1.509  -1.235  0.00  0.00    -0.373 OA
ENDBRANCH  34  35
ENDBRANCH  33  34
ENDBRANCH  31  33
ENDBRANCH   3  31
TORSDOF 8
