REMARK  Name = ZINC15868240
REMARK  3 active torsions:
REMARK  status: ('A' for Active; 'I' for Inactive)
REMARK    1  A    between atoms: C_1  and  C_2
REMARK    2  A    between atoms: C_21  and  C_23
REMARK    3  A    between atoms: C_26  and  C_29
REMARK                            x       y       z     vdW  Elec       q    Type
REMARK                         _______ _______ _______ _____ _____    ______ ____
ROOT
ATOM      1  C   UNL     1      -0.013   1.086   0.008  0.00  0.00    +0.068 C 
ATOM      2  C   UNL     1      -0.718   1.572   1.248  0.00  0.00    +0.066 A 
ATOM      3  C   UNL     1      -0.119   1.844   2.470  0.00  0.00    +0.023 A 
ATOM      4  C   UNL     1      -1.093   2.264   3.335  0.00  0.00    +0.136 A 
ATOM      5  N   UNL     1      -2.268   2.244   2.666  0.00  0.00    -0.185 N 
ATOM      6  N   UNL     1      -2.003   1.815   1.355  0.00  0.00    -0.167 NA
ATOM      7  C   UNL     1      -3.511   2.590   3.181  0.00  0.00    +0.232 A 
ATOM      8  N   UNL     1      -4.684   2.562   2.484  0.00  0.00    -0.322 N 
ATOM      9  H   UNL     1      -4.799   2.292   1.528  0.00  0.00    +0.169 HD
ATOM     10  C   UNL     1      -5.684   2.974   3.346  0.00  0.00    +0.068 A 
ATOM     11  C   UNL     1      -7.054   3.147   3.218  0.00  0.00    +0.028 A 
ATOM     12  C   UNL     1      -7.795   3.585   4.296  0.00  0.00    +0.002 A 
ATOM     13  C   UNL     1      -7.178   3.854   5.509  0.00  0.00    +0.002 A 
ATOM     14  C   UNL     1      -5.820   3.689   5.655  0.00  0.00    +0.030 A 
ATOM     15  C   UNL     1      -5.055   3.246   4.572  0.00  0.00    +0.091 A 
ATOM     16  N   UNL     1      -3.732   2.986   4.408  0.00  0.00    -0.211 NA
ATOM     17  N   UNL     1      -0.807   2.628   4.649  0.00  0.00    -0.270 N 
ATOM     18  C   UNL     1       0.489   2.758   5.003  0.00  0.00    +0.219 C 
ATOM     19  O   UNL     1       0.767   2.886   6.177  0.00  0.00    -0.275 OA
ATOM     20  C   UNL     1       1.598   2.747   3.990  0.00  0.00    +0.109 C 
ATOM     21  C   UNL     1       1.327   1.727   2.880  0.00  0.00    +0.063 C 
ATOM     22  H   UNL     1      -1.518   2.784   5.290  0.00  0.00    +0.156 HD
ENDROOT
BRANCH  21  23
ATOM     23  C   UNL     1       2.216   2.015   1.697  0.00  0.00    -0.039 A 
ATOM     24  C   UNL     1       2.143   3.243   1.064  0.00  0.00    +0.005 A 
ATOM     25  C   UNL     1       2.956   3.515  -0.016  0.00  0.00    +0.019 A 
ATOM     26  C   UNL     1       3.847   2.544  -0.477  0.00  0.00    +0.052 A 
ATOM     27  C   UNL     1       3.912   1.305   0.163  0.00  0.00    +0.019 A 
ATOM     28  C   UNL     1       3.096   1.048   1.245  0.00  0.00    +0.005 A 
BRANCH  26  29
ATOM     29  C   UNL     1       4.691   2.818  -1.601  0.00  0.00    +0.099 C 
ATOM     30  N   UNL     1       5.361   3.035  -2.493  0.00  0.00    -0.191 NA
ENDBRANCH  26  29
ENDBRANCH  21  23
TORSDOF 2
