REMARK  Name = ZINC48609566
REMARK  5 active torsions:
REMARK  status: ('A' for Active; 'I' for Inactive)
REMARK    1  A    between atoms: C_1  and  N_2
REMARK    2  A    between atoms: N_2  and  C_3
REMARK    3  A    between atoms: N_2  and  C_12
REMARK    4  A    between atoms: C_3  and  C_4
REMARK    5  A    between atoms: C_6  and  N_9
REMARK                            x       y       z     vdW  Elec       q    Type
REMARK                         _______ _______ _______ _____ _____    ______ ____
ROOT
ATOM      1  C   UNL     1       0.017   1.448  -0.221  0.00  0.00    -0.095 C 
ATOM      2  N   UNL     1       0.002  -0.004   0.002  0.00  0.00    +0.385 N 
ATOM      3  H   UNL     1       0.443  -0.213   0.885  0.00  0.00    -0.081 HD
ENDROOT
BRANCH   2   4
ATOM      4  C   UNL     1      -1.387  -0.482   0.022  0.00  0.00    -0.037 C 
ATOM      5  C   UNL     1      -2.061  -0.227  -1.343  0.00  0.00    -0.006 C 
ATOM      6  C   UNL     1      -2.993  -1.448  -1.486  0.00  0.00    +0.034 C 
ATOM      7  C   UNL     1      -2.346  -2.539  -0.660  0.00  0.00    -0.046 A 
ATOM      8  C   UNL     1      -1.423  -1.984   0.209  0.00  0.00    -0.058 A 
ATOM      9  C   UNL     1      -0.706  -2.798   1.069  0.00  0.00    +0.002 A 
ATOM     10  C   UNL     1      -0.910  -4.164   1.064  0.00  0.00    +0.000 A 
ATOM     11  C   UNL     1      -1.832  -4.721   0.198  0.00  0.00    +0.000 A 
ATOM     12  C   UNL     1      -2.549  -3.909  -0.666  0.00  0.00    +0.004 A 
ENDBRANCH   2   4
BRANCH   2  13
ATOM     13  C   UNL     1       0.735  -0.674  -1.081  0.00  0.00    -0.042 C 
BRANCH  13  14
ATOM     14  C   UNL     1       2.194  -0.305  -1.003  0.00  0.00    -0.055 A 
ATOM     15  C   UNL     1       2.674   0.804  -1.674  0.00  0.00    +0.042 A 
ATOM     16  C   UNL     1       3.992   1.108  -1.583  0.00  0.00    +0.164 A 
ATOM     17  S   UNL     1       4.599  -0.195  -0.523  0.00  0.00    -0.073 S 
ATOM     18  C   UNL     1       3.054  -1.053  -0.269  0.00  0.00    +0.049 A 
BRANCH  16  19
ATOM     19  N   UNL     1       4.736   2.228  -2.201  0.00  0.00    +0.063 N 
ATOM     20  O   UNL     1       4.155   3.026  -2.900  0.00  0.00    -0.126 OA
ATOM     21  O   UNL     1       5.923   2.345  -2.008  0.00  0.00    -0.126 OA
ENDBRANCH  16  19
ENDBRANCH  13  14
ENDBRANCH   2  13
TORSDOF 4
