REMARK  Name = ZINC39932440
REMARK  6 active torsions:
REMARK  status: ('A' for Active; 'I' for Inactive)
REMARK    1  A    between atoms: C_4  and  S_7
REMARK    2  A    between atoms: S_7  and  N_10
REMARK    3  A    between atoms: N_10  and  N_11
REMARK    4  A    between atoms: N_20  and  N_21
REMARK    5  A    between atoms: N_21  and  S_22
REMARK    6  A    between atoms: S_22  and  C_25
REMARK                            x       y       z     vdW  Elec       q    Type
REMARK                         _______ _______ _______ _____ _____    ______ ____
ROOT
ATOM      1  N   UNL     1       3.549  -1.818   2.389  0.00  0.00    -0.170 NA
ATOM      2  C   UNL     1       3.897  -2.012   3.625  0.00  0.00    +0.068 C 
ATOM      3  C   UNL     1       5.159  -1.456   4.153  0.00  0.00    +0.007 A 
ATOM      4  C   UNL     1       5.098  -0.470   5.161  0.00  0.00    +0.007 A 
ATOM      5  C   UNL     1       6.272   0.068   5.675  0.00  0.00    +0.010 A 
ATOM      6  C   UNL     1       7.490  -0.368   5.190  0.00  0.00    +0.001 A 
ATOM      7  C   UNL     1       7.551  -1.335   4.199  0.00  0.00    +0.001 A 
ATOM      8  C   UNL     1       6.394  -1.883   3.677  0.00  0.00    +0.010 A 
ATOM      9  C   UNL     1       3.773  -0.034   5.648  0.00  0.00    +0.068 C 
ATOM     10  N   UNL     1       3.362   1.183   5.458  0.00  0.00    -0.170 NA
ATOM     11  C   UNL     1       2.911  -1.039   6.371  0.00  0.00    +0.058 C 
ATOM     12  C   UNL     1       2.138  -1.900   5.391  0.00  0.00    +0.012 C 
ATOM     13  C   UNL     1       3.019  -2.805   4.562  0.00  0.00    +0.058 C 
ENDROOT
BRANCH   1  14
ATOM     14  N   UNL     1       4.378  -1.079   1.536  0.00  0.00    -0.136 N 
ATOM     15  H   UNL     1       5.212  -0.711   1.868  0.00  0.00    +0.197 HD
BRANCH  14  16
ATOM     16  S   UNL     1       3.934  -0.832  -0.041  0.00  0.00    +0.086 S 
ATOM     17  O   UNL     1       3.674  -2.114  -0.595  0.00  0.00    -0.149 OA
ATOM     18  O   UNL     1       4.890   0.060  -0.597  0.00  0.00    -0.149 OA
BRANCH  16  22
ATOM     19  C   UNL     1      -0.017   1.378   0.010  0.00  0.00    +0.000 A 
ATOM     20  C   UNL     1       1.171   2.086   0.002  0.00  0.00    +0.002 A 
ATOM     21  C   UNL     1       2.377   1.411  -0.013  0.00  0.00    +0.029 A 
ATOM     22  C   UNL     1       2.396   0.029  -0.020  0.00  0.00    +0.110 A 
ATOM     23  C   UNL     1       1.208  -0.679  -0.012  0.00  0.00    +0.029 A 
ATOM     24  C   UNL     1       0.002  -0.004   0.002  0.00  0.00    +0.002 A 
ENDBRANCH  16  22
ENDBRANCH  14  16
ENDBRANCH   1  14
BRANCH  10  25
ATOM     25  N   UNL     1       4.178   2.101   4.784  0.00  0.00    -0.136 N 
ATOM     26  H   UNL     1       5.050   1.828   4.459  0.00  0.00    +0.197 HD
BRANCH  25  27
ATOM     27  S   UNL     1       3.653   3.653   4.542  0.00  0.00    +0.086 S 
ATOM     28  O   UNL     1       4.742   4.365   3.971  0.00  0.00    -0.149 OA
ATOM     29  O   UNL     1       2.386   3.559   3.904  0.00  0.00    -0.149 OA
BRANCH  27  30
ATOM     30  C   UNL     1       3.366   4.360   6.130  0.00  0.00    +0.110 A 
ATOM     31  C   UNL     1       2.123   4.244   6.723  0.00  0.00    +0.029 A 
ATOM     32  C   UNL     1       1.898   4.799   7.970  0.00  0.00    +0.002 A 
ATOM     33  C   UNL     1       2.916   5.468   8.622  0.00  0.00    +0.000 A 
ATOM     34  C   UNL     1       4.159   5.583   8.029  0.00  0.00    +0.002 A 
ATOM     35  C   UNL     1       4.386   5.025   6.785  0.00  0.00    +0.029 A 
ENDBRANCH  27  30
ENDBRANCH  25  27
ENDBRANCH  10  25
TORSDOF 6
