REMARK  Name = ZINC12250265
REMARK  10 active torsions:
REMARK  status: ('A' for Active; 'I' for Inactive)
REMARK    1  A    between atoms: C_1  and  C_2
REMARK    2  A    between atoms: C_3  and  C_34
REMARK    3  A    between atoms: C_4  and  C_27
REMARK    4  A    between atoms: C_6  and  C_25
REMARK    5  A    between atoms: C_7  and  S_9
REMARK    6  A    between atoms: S_9  and  C_10
REMARK    7  A    between atoms: C_10  and  C_11
REMARK    8  A    between atoms: N_13  and  C_14
REMARK    9  A    between atoms: C_15  and  C_23
REMARK   10  A    between atoms: C_34  and  C_36
REMARK                            x       y       z     vdW  Elec       q    Type
REMARK                         _______ _______ _______ _____ _____    ______ ____
ROOT
ATOM      1  C   UNL     1      -5.277   2.577   2.337  0.00  0.00    +0.061 C 
ATOM      2  C   UNL     1      -4.445   2.198   1.139  0.00  0.00    +0.013 C 
ATOM      3  C   UNL     1      -3.367   1.405   1.303  0.00  0.00    +0.024 C 
ATOM      4  C   UNL     1      -2.499   1.005   0.145  0.00  0.00    +0.096 C 
ATOM      5  C   UNL     1      -3.200   1.257  -1.160  0.00  0.00    +0.069 C 
ATOM      6  C   UNL     1      -4.294   2.062  -1.229  0.00  0.00    +0.080 C 
ATOM      7  N   UNL     1      -4.794   2.663  -0.096  0.00  0.00    -0.312 N 
ATOM      8  H   UNL     1      -5.476   3.521  -0.188  0.00  0.00    +0.152 HD
ENDROOT
BRANCH   4   9
ATOM      9  C   UNL     1      -1.222   1.804   0.183  0.00  0.00    -0.035 A 
ATOM     10  C   UNL     1      -0.005   1.157   0.291  0.00  0.00    +0.006 A 
ATOM     11  C   UNL     1       1.167   1.889   0.320  0.00  0.00    +0.020 A 
ATOM     12  C   UNL     1       1.122   3.270   0.247  0.00  0.00    +0.041 A 
ATOM     13  C   UNL     1      -0.096   3.917   0.145  0.00  0.00    +0.020 A 
ATOM     14  C   UNL     1      -1.268   3.184   0.116  0.00  0.00    +0.006 A 
ATOM     15 CL   UNL     1       2.594   4.190   0.283  0.00  0.00    -0.084 Cl
ENDBRANCH   4   9
BRANCH   3  16
ATOM     16  C   UNL     1      -3.048   0.941   2.589  0.00  0.00    +0.159 C 
ATOM     17  O   UNL     1      -2.693   1.726   3.447  0.00  0.00    -0.293 OA
ATOM     18  C   UNL     1      -3.146  -0.529   2.906  0.00  0.00    +0.091 C 
ENDBRANCH   3  16
BRANCH   5  19
ATOM     19  C   UNL     1      -2.707   0.637  -2.353  0.00  0.00    +0.098 C 
ATOM     20  N   UNL     1      -2.316   0.146  -3.300  0.00  0.00    -0.191 NA
ENDBRANCH   5  19
BRANCH   6  21
ATOM     21  S   UNL     1      -5.077   2.338  -2.783  0.00  0.00    -0.100 S 
BRANCH  21  22
ATOM     22  C   UNL     1      -6.415   3.444  -2.268  0.00  0.00    +0.171 C 
BRANCH  22  23
ATOM     23  C   UNL     1      -7.243   3.824  -3.468  0.00  0.00    +0.228 C 
ATOM     24  O   UNL     1      -6.956   3.391  -4.564  0.00  0.00    -0.275 OA
ATOM     25  N   UNL     1      -8.301   4.646  -3.324  0.00  0.00    -0.278 N 
ATOM     26  H   UNL     1      -8.561   5.039  -2.330  0.00  0.00    +0.155 HD
BRANCH  25  27
ATOM     27  C   UNL     1      -9.063   4.996  -4.430  0.00  0.00    +0.090 A 
ATOM     28  C   UNL     1     -10.181   5.816  -4.481  0.00  0.00    +0.084 A 
ATOM     29  C   UNL     1     -10.800   6.029  -5.778  0.00  0.00    -0.018 A 
ATOM     30  C   UNL     1     -10.212   5.381  -6.809  0.00  0.00    -0.004 A 
ATOM     31  S   UNL     1      -8.854   4.510  -6.080  0.00  0.00    -0.077 S 
ATOM     32  C   UNL     1     -10.630   5.405  -8.246  0.00  0.00    +0.043 C 
ATOM     33  C   UNL     1     -12.054   5.975  -8.326  0.00  0.00    +0.005 C 
ATOM     34  C   UNL     1     -12.121   7.253  -7.486  0.00  0.00    +0.005 C 
ATOM     35  C   UNL     1     -12.027   6.904  -5.999  0.00  0.00    +0.037 C 
BRANCH  28  36
ATOM     36  C   UNL     1     -10.703   6.434  -3.300  0.00  0.00    +0.102 C 
ATOM     37  N   UNL     1     -11.117   6.924  -2.362  0.00  0.00    -0.191 NA
ENDBRANCH  28  36
ENDBRANCH  25  27
ENDBRANCH  22  23
ENDBRANCH  21  22
ENDBRANCH   6  21
TORSDOF 8
