REMARK  Name = ZINC41096780
REMARK  6 active torsions:
REMARK  status: ('A' for Active; 'I' for Inactive)
REMARK    1  A    between atoms: C_1  and  C_2
REMARK    2  A    between atoms: C_2  and  C_3
REMARK    3  A    between atoms: N_9  and  S_10
REMARK    4  A    between atoms: S_10  and  C_13
REMARK    5  A    between atoms: C_16  and  C_20
REMARK    6  A    between atoms: C_18  and  C_19
REMARK                            x       y       z     vdW  Elec       q    Type
REMARK                         _______ _______ _______ _____ _____    ______ ____
ROOT
ATOM      1  S   UNL     1      -1.349   1.106  -2.299  0.00  0.00    +0.061 S 
ATOM      2  O   UNL     1      -0.926   2.255  -1.578  0.00  0.00    -0.153 OA
ATOM      3  O   UNL     1      -1.988   1.194  -3.566  0.00  0.00    -0.153 OA
ENDROOT
BRANCH   1   4
ATOM      4  C   UNL     1      -2.448   0.224  -1.241  0.00  0.00    +0.109 A 
ATOM      5  C   UNL     1      -2.696   0.686   0.038  0.00  0.00    +0.044 A 
ATOM      6  C   UNL     1      -3.559  -0.007   0.868  0.00  0.00    +0.023 A 
ATOM      7  C   UNL     1      -4.174  -1.161   0.417  0.00  0.00    -0.036 A 
ATOM      8  C   UNL     1      -3.926  -1.622  -0.861  0.00  0.00    +0.009 A 
ATOM      9  C   UNL     1      -3.067  -0.927  -1.693  0.00  0.00    -0.024 A 
ATOM     10  C   UNL     1      -2.801  -1.427  -3.089  0.00  0.00    +0.046 C 
ATOM     11  C   UNL     1      -5.114  -1.916   1.322  0.00  0.00    +0.045 C 
ATOM     12 BR   UNL     1      -3.898   0.625   2.618  0.00  0.00    -0.050 Br
ENDBRANCH   1   4
BRANCH   1  18
ATOM     13  C   UNL     1       0.906  -0.106  -1.390  0.00  0.00    +0.080 C 
ATOM     14  C   UNL     1       1.087  -1.620  -1.244  0.00  0.00    +0.021 C 
ATOM     15  C   UNL     1       1.546  -2.206  -2.581  0.00  0.00    +0.003 C 
ATOM     16  C   UNL     1       0.479  -1.947  -3.647  0.00  0.00    +0.017 C 
ATOM     17  C   UNL     1       0.291  -0.437  -3.820  0.00  0.00    +0.110 C 
ATOM     18  N   UNL     1      -0.007   0.159  -2.510  0.00  0.00    -0.174 NA
BRANCH  13  20
ATOM     19  C   UNL     1       1.304   0.263   1.049  0.00  0.00    +0.005 C 
ATOM     20  C   UNL     1       0.315   0.467  -0.100  0.00  0.00    +0.017 C 
ENDBRANCH  13  20
ENDBRANCH   1  18
TORSDOF 3
