REMARK  Name = ZINC02241186
REMARK  10 active torsions:
REMARK  status: ('A' for Active; 'I' for Inactive)
REMARK    1  A    between atoms: C_1  and  C_2
REMARK    2  A    between atoms: C_2  and  O_3
REMARK    3  A    between atoms: O_3  and  C_4
REMARK    4  A    between atoms: C_6  and  C_11
REMARK    5  A    between atoms: C_9  and  O_10
REMARK    6  A    between atoms: C_18  and  C_31
REMARK    7  A    between atoms: C_20  and  C_30
REMARK    8  A    between atoms: N_26  and  C_27
REMARK    9  A    between atoms: C_27  and  C_28
REMARK   10  A    between atoms: C_28  and  O_29
REMARK                            x       y       z     vdW  Elec       q    Type
REMARK                         _______ _______ _______ _____ _____    ______ ____
ROOT
ATOM      1  C   UNL     1       5.106   3.325  -0.024  0.00  0.00    +0.145 C 
ATOM      2  C   UNL     1       6.160   2.282   0.242  0.00  0.00    +0.072 A 
ATOM      3  C   UNL     1       6.554   1.063  -0.470  0.00  0.00    +0.199 A 
ATOM      4  O   UNL     1       5.995   0.713  -1.495  0.00  0.00    -0.287 OA
ATOM      5  C   UNL     1       7.661   0.282   0.115  0.00  0.00    +0.065 A 
ATOM      6  C   UNL     1       8.117  -0.893  -0.481  0.00  0.00    +0.018 A 
ATOM      7  C   UNL     1       9.146  -1.587   0.093  0.00  0.00    -0.049 A 
ATOM      8  C   UNL     1       9.735  -1.128   1.263  0.00  0.00    +0.010 A 
ATOM      9  C   UNL     1       9.297   0.031   1.866  0.00  0.00    -0.007 A 
ATOM     10  C   UNL     1       8.251   0.755   1.299  0.00  0.00    +0.142 A 
ATOM     11  O   UNL     1       7.812   1.889   1.875  0.00  0.00    -0.449 OA
ATOM     12  C   UNL     1       6.807   2.637   1.380  0.00  0.00    +0.199 A 
ATOM     13  C   UNL     1       6.208   3.899   1.883  0.00  0.00    +0.283 C 
ATOM     14  O   UNL     1       6.561   4.484   2.887  0.00  0.00    -0.267 OA
ATOM     15  N   UNL     1       5.218   4.301   1.067  0.00  0.00    -0.281 N 
ATOM     16  C   UNL     1       9.949   0.515   3.135  0.00  0.00    +0.047 C 
ATOM     17  C   UNL     1       9.642  -2.858  -0.547  0.00  0.00    +0.044 C 
ENDROOT
BRANCH   1  20
ATOM     18  C   UNL     1       1.845   1.831  -1.210  0.00  0.00    +0.162 A 
ATOM     19  C   UNL     1       3.103   2.412  -1.214  0.00  0.00    +0.055 A 
ATOM     20  C   UNL     1       3.738   2.693  -0.018  0.00  0.00    -0.019 A 
ATOM     21  C   UNL     1       3.121   2.396   1.183  0.00  0.00    +0.009 A 
ATOM     22  C   UNL     1       1.863   1.823   1.193  0.00  0.00    +0.049 A 
ATOM     23  C   UNL     1       1.224   1.533  -0.001  0.00  0.00    +0.158 A 
BRANCH  23  24
ATOM     24  O   UNL     1      -0.011   0.963   0.007  0.00  0.00    -0.503 OA
ATOM     25  H   UNL     1       0.002  -0.004   0.002  0.00  0.00    +0.292 HD
ENDBRANCH  23  24
BRANCH  18  26
ATOM     26  O   UNL     1       1.219   1.555  -2.385  0.00  0.00    -0.489 OA
BRANCH  26  28
ATOM     27  C   UNL     1       1.062   1.506  -4.796  0.00  0.00    +0.048 C 
ATOM     28  C   UNL     1       1.917   1.889  -3.587  0.00  0.00    +0.226 C 
ENDBRANCH  26  28
ENDBRANCH  18  26
ENDBRANCH   1  20
BRANCH  15  29
ATOM     29  C   UNL     1       4.395   5.501   1.237  0.00  0.00    +0.137 C 
BRANCH  29  30
ATOM     30  C   UNL     1       3.160   5.158   2.073  0.00  0.00    +0.175 C 
BRANCH  30  31
ATOM     31  O   UNL     1       3.565   4.788   3.392  0.00  0.00    -0.393 OA
ATOM     32  H   UNL     1       2.832   4.557   3.979  0.00  0.00    +0.209 HD
ENDBRANCH  30  31
ENDBRANCH  29  30
ENDBRANCH  15  29
TORSDOF 7
