REMARK  Name = ZINC12533699
REMARK  6 active torsions:
REMARK  status: ('A' for Active; 'I' for Inactive)
REMARK    1  A    between atoms: C_9  and  S_11
REMARK    2  A    between atoms: S_11  and  C_12
REMARK    3  A    between atoms: C_12  and  C_13
REMARK    4  A    between atoms: C_16  and  C_19
REMARK    5  A    between atoms: N_21  and  N_22
REMARK    6  A    between atoms: C_23  and  C_25
REMARK                            x       y       z     vdW  Elec       q    Type
REMARK                         _______ _______ _______ _____ _____    ______ ____
ROOT
ATOM      1  C   UNL     1      10.701   2.865  -0.734  0.00  0.00    -0.037 A 
ATOM      2  C   UNL     1      10.229   3.856   0.107  0.00  0.00    +0.005 A 
ATOM      3  C   UNL     1       8.914   3.842   0.525  0.00  0.00    +0.013 A 
ATOM      4  C   UNL     1       8.060   2.825   0.098  0.00  0.00    +0.038 A 
ATOM      5  C   UNL     1       8.544   1.824  -0.747  0.00  0.00    +0.013 A 
ATOM      6  C   UNL     1       9.860   1.853  -1.162  0.00  0.00    +0.005 A 
ENDROOT
BRANCH   4   7
ATOM      7  C   UNL     1       6.650   2.803   0.542  0.00  0.00    +0.260 C 
ATOM      8  O   UNL     1       6.233   3.673   1.281  0.00  0.00    -0.269 OA
ATOM      9  N   UNL     1       5.828   1.819   0.127  0.00  0.00    -0.230 N 
ATOM     10  H   UNL     1       6.161   1.125  -0.463  0.00  0.00    +0.173 HD
BRANCH   9  11
ATOM     11  N   UNL     1       4.492   1.798   0.548  0.00  0.00    -0.234 N 
ATOM     12  C   UNL     1       3.670   0.814   0.134  0.00  0.00    +0.232 C 
ATOM     13  O   UNL     1       4.086  -0.053  -0.604  0.00  0.00    -0.274 OA
ATOM     14  H   UNL     1       4.159   2.493   1.138  0.00  0.00    +0.173 HD
BRANCH  12  15
ATOM     15  C   UNL     1       2.232   0.792   0.586  0.00  0.00    +0.076 C 
ATOM     16  C   UNL     1       1.453   1.995  -0.001  0.00  0.00    +0.013 C 
ATOM     17  C   UNL     1      -0.019   1.534   0.011  0.00  0.00    +0.001 C 
ATOM     18  C   UNL     1       0.002  -0.004   0.002  0.00  0.00    +0.001 C 
ATOM     19  C   UNL     1       1.486  -0.425  -0.014  0.00  0.00    +0.013 C 
ENDBRANCH  12  15
ENDBRANCH   9  11
ENDBRANCH   4   7
BRANCH   1  20
ATOM     20  C   UNL     1      12.139   2.886  -1.187  0.00  0.00    +0.112 C 
BRANCH  20  21
ATOM     21  S   UNL     1      13.155   1.956  -0.013  0.00  0.00    -0.083 S 
BRANCH  21  30
ATOM     22  C   UNL     1      19.032   2.275  -2.228  0.00  0.00    +0.002 A 
ATOM     23  C   UNL     1      18.430   3.020  -3.231  0.00  0.00    +0.002 A 
ATOM     24  C   UNL     1      17.074   3.256  -3.208  0.00  0.00    +0.030 A 
ATOM     25  C   UNL     1      16.298   2.740  -2.166  0.00  0.00    +0.090 A 
ATOM     26  C   UNL     1      16.913   1.986  -1.154  0.00  0.00    +0.067 A 
ATOM     27  C   UNL     1      18.280   1.758  -1.194  0.00  0.00    +0.028 A 
ATOM     28  N   UNL     1      15.903   1.618  -0.280  0.00  0.00    -0.333 N 
ATOM     29  H   UNL     1      16.008   1.072   0.551  0.00  0.00    +0.168 HD
ATOM     30  C   UNL     1      14.737   2.140  -0.765  0.00  0.00    +0.168 A 
ATOM     31  N   UNL     1      14.972   2.794  -1.876  0.00  0.00    -0.222 NA
ENDBRANCH  21  30
ENDBRANCH  20  21
ENDBRANCH   1  20
TORSDOF 6
