REMARK  Name = ZINC14479900
REMARK  4 active torsions:
REMARK  status: ('A' for Active; 'I' for Inactive)
REMARK    1  A    between atoms: C_1  and  C_2
REMARK    2  A    between atoms: C_6  and  C_8
REMARK    3  A    between atoms: C_19  and  N_25
REMARK    4  A    between atoms: C_21  and  C_24
REMARK                            x       y       z     vdW  Elec       q    Type
REMARK                         _______ _______ _______ _____ _____    ______ ____
ROOT
ATOM      1  C   UNL     1      -2.311   1.354   0.615  0.00  0.00    +0.105 C 
ATOM      2  C   UNL     1      -2.509   0.045  -0.154  0.00  0.00    +0.029 C 
ATOM      3  C   UNL     1      -3.539  -0.815   0.632  0.00  0.00    +0.033 C 
ATOM      4  C   UNL     1      -2.703  -1.472   1.712  0.00  0.00    -0.030 C 
ATOM      5  C   UNL     1      -1.439  -1.483   1.370  0.00  0.00    -0.023 C 
ATOM      6  C   UNL     1      -1.250  -0.831   0.020  0.00  0.00    +0.049 C 
ATOM      7  C   UNL     1       0.002  -0.004   0.002  0.00  0.00    -0.017 A 
ATOM      8  C   UNL     1       1.222  -0.668  -0.019  0.00  0.00    +0.038 A 
ATOM      9  C   UNL     1       2.407   0.038  -0.029  0.00  0.00    +0.127 A 
ATOM     10  C   UNL     1       2.389   1.421  -0.017  0.00  0.00    +0.038 A 
ATOM     11  C   UNL     1       1.184   2.090   0.002  0.00  0.00    -0.027 A 
ATOM     12  C   UNL     1      -0.017   1.380   0.010  0.00  0.00    +0.034 A 
ATOM     13  N   UNL     1      -1.206   2.107   0.019  0.00  0.00    -0.336 N 
ATOM     14  C   UNL     1       1.163   3.596   0.014  0.00  0.00    +0.046 C 
ATOM     15  H   UNL     1      -1.084   2.995   0.482  0.00  0.00    +0.147 HD
ENDROOT
BRANCH   1  21
ATOM     16  C   UNL     1      -6.574   2.939   2.704  0.00  0.00    +0.044 C 
ATOM     17  C   UNL     1      -5.613   2.932   1.543  0.00  0.00    -0.050 A 
ATOM     18  C   UNL     1      -5.890   3.678   0.412  0.00  0.00    +0.003 A 
ATOM     19  C   UNL     1      -5.009   3.672  -0.653  0.00  0.00    +0.001 A 
ATOM     20  C   UNL     1      -3.850   2.920  -0.587  0.00  0.00    +0.005 A 
ATOM     21  C   UNL     1      -3.574   2.174   0.543  0.00  0.00    -0.027 A 
ATOM     22  C   UNL     1      -4.457   2.176   1.606  0.00  0.00    +0.008 A 
ENDBRANCH   1  21
BRANCH   9  23
ATOM     23  N   UNL     1       3.698  -0.685  -0.052  0.00  0.00    +0.056 N 
ATOM     24  O   UNL     1       3.714  -1.903  -0.063  0.00  0.00    -0.126 OA
ATOM     25  O   UNL     1       4.745  -0.062  -0.061  0.00  0.00    -0.126 OA
ENDBRANCH   9  23
TORSDOF 2
