REMARK  Name = ZINC35325147
REMARK  8 active torsions:
REMARK  status: ('A' for Active; 'I' for Inactive)
REMARK    1  A    between atoms: C_1  and  C_2
REMARK    2  A    between atoms: C_7  and  N_12
REMARK    3  A    between atoms: C_9  and  C_11
REMARK    4  A    between atoms: C_13  and  C_15
REMARK    5  A    between atoms: C_15  and  C_37
REMARK    6  A    between atoms: N_27  and  C_28
REMARK    7  A    between atoms: C_28  and  C_29
REMARK    8  A    between atoms: C_29  and  N_30
REMARK                            x       y       z     vdW  Elec       q    Type
REMARK                         _______ _______ _______ _____ _____    ______ ____
ROOT
ATOM      1  C   UNL     1      -2.186  -4.318   1.786  0.00  0.00    +0.128 C 
ATOM      2  C   UNL     1      -2.442  -5.062   0.476  0.00  0.00    +0.157 C 
ATOM      3  N   UNL     1      -2.684  -4.087  -0.592  0.00  0.00    -0.331 N 
ATOM      4  C   UNL     1      -2.441  -4.175  -1.929  0.00  0.00    +0.088 A 
ATOM      5  C   UNL     1      -1.929  -4.975  -2.979  0.00  0.00    +0.067 A 
ATOM      6  C   UNL     1      -2.064  -4.273  -4.118  0.00  0.00    +0.198 A 
ATOM      7  O   UNL     1      -2.628  -3.084  -3.847  0.00  0.00    -0.461 OA
ATOM      8  C   UNL     1      -2.870  -2.987  -2.522  0.00  0.00    +0.153 A 
ATOM      9  C   UNL     1      -3.378  -2.165  -1.506  0.00  0.00    +0.079 A 
ATOM     10  C   UNL     1      -3.254  -2.844  -0.330  0.00  0.00    +0.109 A 
ATOM     11  C   UNL     1      -3.602  -2.451   1.041  0.00  0.00    +0.264 C 
ATOM     12  O   UNL     1      -4.252  -1.449   1.276  0.00  0.00    -0.268 OA
ATOM     13  N   UNL     1      -3.161  -3.262   2.031  0.00  0.00    -0.282 N 
ATOM     14  C   UNL     1      -2.242  -5.321   2.941  0.00  0.00    +0.043 C 
ENDROOT
BRANCH   1  16
ATOM     15  N   UNL     1      -0.634  -2.478   1.216  0.00  0.00    -0.310 N 
ATOM     16  C   UNL     1      -0.808  -3.708   1.738  0.00  0.00    +0.238 C 
ATOM     17  O   UNL     1       0.143  -4.325   2.169  0.00  0.00    -0.273 OA
ATOM     18  H   UNL     1      -1.395  -1.985   0.872  0.00  0.00    +0.149 HD
BRANCH  15  24
ATOM     19  C   UNL     1      -0.323   1.594  -0.120  0.00  0.00    +0.008 C 
ATOM     20  C   UNL     1      -0.205   0.069  -0.094  0.00  0.00    -0.009 C 
ATOM     21  C   UNL     1       0.521  -0.408  -1.353  0.00  0.00    +0.003 C 
ATOM     22  C   UNL     1       0.639  -1.933  -1.327  0.00  0.00    +0.002 C 
ATOM     23  C   UNL     1       1.430  -2.362  -0.090  0.00  0.00    +0.022 C 
ATOM     24  C   UNL     1       0.705  -1.885   1.170  0.00  0.00    +0.076 C 
ATOM     25  C   UNL     1       0.586  -0.360   1.144  0.00  0.00    +0.009 C 
ATOM     26  C   UNL     1      -0.139   0.117   2.404  0.00  0.00    +0.009 C 
ENDBRANCH  15  24
ENDBRANCH   1  16
BRANCH  13  27
ATOM     27  C   UNL     1      -3.678  -3.073   3.389  0.00  0.00    +0.091 C 
BRANCH  27  28
ATOM     28  C   UNL     1      -2.787  -2.083   4.141  0.00  0.00    -0.060 C 
BRANCH  28  29
ATOM     29  N   UNL     1      -3.375  -1.796   5.456  0.00  0.00    +0.381 N 
ATOM     30  C   UNL     1      -2.643  -0.669   6.066  0.00  0.00    -0.079 C 
ATOM     31  C   UNL     1      -3.555   0.007   7.058  0.00  0.00    -0.019 C 
ATOM     32  C   UNL     1      -3.314  -0.508   8.489  0.00  0.00    -0.002 C 
ATOM     33  C   UNL     1      -3.093  -2.034   8.518  0.00  0.00    -0.002 C 
ATOM     34  C   UNL     1      -4.031  -2.768   7.593  0.00  0.00    -0.019 C 
ATOM     35  C   UNL     1      -3.342  -2.960   6.226  0.00  0.00    -0.079 C 
ATOM     36  H   UNL     1      -4.337  -1.521   5.326  0.00  0.00    -0.082 HD
ENDBRANCH  28  29
ENDBRANCH  27  28
ENDBRANCH  13  27
TORSDOF 5
