REMARK  Name = ZINC40170664
REMARK  11 active torsions:
REMARK  status: ('A' for Active; 'I' for Inactive)
REMARK    1  A    between atoms: C_1  and  C_2
REMARK    2  A    between atoms: C_2  and  C_3
REMARK    3  A    between atoms: C_3  and  C_5
REMARK    4  A    between atoms: C_3  and  S_16
REMARK    5  A    between atoms: N_7  and  C_8
REMARK    6  A    between atoms: C_9  and  C_14
REMARK    7  A    between atoms: N_12  and  C_13
REMARK    8  A    between atoms: S_16  and  C_17
REMARK    9  A    between atoms: C_23  and  C_32
REMARK   10  A    between atoms: C_25  and  C_31
REMARK   11  A    between atoms: C_28  and  C_30
REMARK                            x       y       z     vdW  Elec       q    Type
REMARK                         _______ _______ _______ _____ _____    ______ ____
ROOT
ATOM      1  S   UNL     1      -2.457   0.104   2.126  0.00  0.00    -0.073 S 
ENDROOT
BRANCH   1   2
ATOM      2  C   UNL     1      -2.658   1.843   1.922  0.00  0.00    +0.197 A 
ATOM      3  N   UNL     1      -2.423   2.497   0.799  0.00  0.00    -0.122 NA
ATOM      4  N   UNL     1      -2.767   3.724   0.925  0.00  0.00    -0.129 NA
ATOM      5  C   UNL     1      -3.282   3.912   2.124  0.00  0.00    +0.162 A 
ATOM      6  N   UNL     1      -3.042   2.759   2.852  0.00  0.00    -0.270 N 
ATOM      7  C   UNL     1      -3.192   2.788   4.227  0.00  0.00    +0.061 A 
ATOM      8  C   UNL     1      -2.515   1.946   5.095  0.00  0.00    -0.026 A 
ATOM      9  C   UNL     1      -2.879   1.878   6.427  0.00  0.00    +0.008 A 
ATOM     10  C   UNL     1      -3.849   2.723   6.940  0.00  0.00    -0.050 A 
ATOM     11  C   UNL     1      -4.402   3.695   6.135  0.00  0.00    +0.013 A 
ATOM     12  C   UNL     1      -4.016   3.786   4.797  0.00  0.00    +0.002 A 
ATOM     13  C   UNL     1      -4.385   4.948   3.984  0.00  0.00    -0.038 A 
ATOM     14  C   UNL     1      -3.974   5.002   2.697  0.00  0.00    +0.052 A 
ATOM     15  C   UNL     1      -5.205   6.075   4.556  0.00  0.00    +0.044 C 
ATOM     16  C   UNL     1      -4.297   2.584   8.370  0.00  0.00    +0.044 C 
ATOM     17  C   UNL     1      -1.317   1.145   4.654  0.00  0.00    +0.046 C 
ENDBRANCH   1   2
BRANCH   1  18
ATOM     18  C   UNL     1      -1.798  -0.452   0.531  0.00  0.00    +0.140 C 
BRANCH  18  19
ATOM     19  C   UNL     1      -2.846  -0.271  -0.537  0.00  0.00    +0.232 C 
ATOM     20  O   UNL     1      -4.014  -0.167  -0.228  0.00  0.00    -0.274 OA
ATOM     21  N   UNL     1      -2.485  -0.226  -1.835  0.00  0.00    -0.269 N 
ATOM     22  H   UNL     1      -1.546  -0.232  -2.077  0.00  0.00    +0.156 HD
BRANCH  21  23
ATOM     23  C   UNL     1      -3.457  -0.170  -2.822  0.00  0.00    +0.140 A 
ATOM     24  C   UNL     1      -3.337   0.443  -4.065  0.00  0.00    +0.111 A 
ATOM     25  C   UNL     1      -4.564   0.253  -4.740  0.00  0.00    +0.155 A 
ATOM     26  N   UNL     1      -5.358  -0.423  -3.959  0.00  0.00    -0.177 NA
ATOM     27  N   UNL     1      -4.693  -0.705  -2.761  0.00  0.00    -0.252 N 
ATOM     28  C   UNL     1      -5.247  -1.453  -1.629  0.00  0.00    +0.174 C 
BRANCH  24  29
ATOM     29  C   UNL     1      -2.187   1.135  -4.565  0.00  0.00    +0.104 C 
ATOM     30  N   UNL     1      -1.275   1.685  -4.962  0.00  0.00    -0.191 NA
ENDBRANCH  24  29
ENDBRANCH  21  23
ENDBRANCH  18  19
BRANCH  18  32
ATOM     31  C   UNL     1      -0.245  -2.094   1.598  0.00  0.00    +0.005 C 
ATOM     32  C   UNL     1      -1.415  -1.930   0.625  0.00  0.00    +0.020 C 
ENDBRANCH  18  32
ENDBRANCH   1  18
TORSDOF 6
