REMARK  Name = ZINC57608771
REMARK  15 active torsions:
REMARK  status: ('A' for Active; 'I' for Inactive)
REMARK    1  A    between atoms: C_1  and  C_2
REMARK    2  A    between atoms: C_6  and  C_15
REMARK    3  A    between atoms: C_13  and  C_14
REMARK    4  A    between atoms: C_15  and  C_17
REMARK    5  A    between atoms: C_15  and  N_26
REMARK    6  A    between atoms: N_21  and  C_22
REMARK    7  A    between atoms: C_22  and  C_23
REMARK    8  A    between atoms: C_23  and  O_24
REMARK    9  A    between atoms: O_24  and  C_25
REMARK   10  A    between atoms: N_26  and  C_27
REMARK   11  A    between atoms: N_26  and  C_36
REMARK   12  A    between atoms: C_27  and  C_28
REMARK   13  A    between atoms: C_31  and  O_34
REMARK   14  A    between atoms: O_34  and  C_35
REMARK   15  A    between atoms: C_36  and  C_37
REMARK                            x       y       z     vdW  Elec       q    Type
REMARK                         _______ _______ _______ _____ _____    ______ ____
ROOT
ATOM      1  C   UNL     1       0.003  -4.862  -3.887  0.00  0.00    +0.163 C 
ENDROOT
BRANCH   1   7
ATOM      2  C   UNL     1       3.823  -3.290   2.322  0.00  0.00    +0.044 C 
ATOM      3  C   UNL     1       2.535  -3.308   1.541  0.00  0.00    -0.047 A 
ATOM      4  C   UNL     1       2.522  -3.802   0.267  0.00  0.00    +0.013 A 
ATOM      5  C   UNL     1       1.326  -3.819  -0.458  0.00  0.00    -0.001 A 
ATOM      6  C   UNL     1       1.276  -4.341  -1.825  0.00  0.00    +0.021 A 
ATOM      7  C   UNL     1       0.088  -4.332  -2.479  0.00  0.00    +0.042 A 
ATOM      8  C   UNL     1      -1.068  -3.829  -1.845  0.00  0.00    +0.254 A 
ATOM      9  O   UNL     1      -2.126  -3.830  -2.451  0.00  0.00    -0.268 OA
ATOM     10  N   UNL     1      -1.032  -3.348  -0.591  0.00  0.00    -0.322 N 
ATOM     11  H   UNL     1      -1.846  -3.009  -0.185  0.00  0.00    +0.169 HD
ATOM     12  C   UNL     1       0.144  -3.328   0.128  0.00  0.00    +0.049 A 
ATOM     13  C   UNL     1       0.181  -2.830   1.426  0.00  0.00    +0.030 A 
ATOM     14  C   UNL     1       1.370  -2.829   2.124  0.00  0.00    -0.046 A 
ATOM     15  C   UNL     1       1.407  -2.295   3.533  0.00  0.00    +0.044 C 
ENDBRANCH   1   7
BRANCH   1  16
ATOM     16  C   UNL     1      -1.231  -5.716  -4.028  0.00  0.00    +0.173 A 
ATOM     17  N   UNL     1      -1.611  -6.682  -3.228  0.00  0.00    -0.111 NA
ATOM     18  N   UNL     1      -2.713  -7.167  -3.685  0.00  0.00    -0.023 NA
ATOM     19  N   UNL     1      -3.047  -6.536  -4.756  0.00  0.00    -0.044 NA
ATOM     20  N   UNL     1      -2.161  -5.630  -4.998  0.00  0.00    -0.225 N 
BRANCH  20  21
ATOM     21  C   UNL     1      -2.165  -4.686  -6.119  0.00  0.00    +0.175 C 
BRANCH  21  22
ATOM     22  C   UNL     1      -1.422  -5.303  -7.306  0.00  0.00    +0.183 C 
BRANCH  22  23
ATOM     23  O   UNL     1      -1.425  -4.383  -8.399  0.00  0.00    -0.381 OA
ATOM     24  C   UNL     1      -0.754  -4.863  -9.566  0.00  0.00    +0.194 C 
ENDBRANCH  22  23
ENDBRANCH  21  22
ENDBRANCH  20  21
ENDBRANCH   1  16
BRANCH   1  25
ATOM     25  N   UNL     1       1.194  -5.671  -4.179  0.00  0.00    -0.277 NA
BRANCH  25  26
ATOM     26  C   UNL     1       1.445  -5.735  -5.625  0.00  0.00    +0.121 C 
BRANCH  26  27
ATOM     27  C   UNL     1       2.863  -6.184  -5.869  0.00  0.00    -0.033 A 
ATOM     28  C   UNL     1       3.894  -5.263  -5.833  0.00  0.00    +0.008 A 
ATOM     29  C   UNL     1       5.195  -5.672  -6.057  0.00  0.00    +0.046 A 
ATOM     30  C   UNL     1       5.466  -7.007  -6.317  0.00  0.00    +0.120 A 
ATOM     31  C   UNL     1       4.430  -7.929  -6.351  0.00  0.00    +0.046 A 
ATOM     32  C   UNL     1       3.131  -7.516  -6.122  0.00  0.00    +0.008 A 
BRANCH  30  33
ATOM     33  O   UNL     1       6.744  -7.412  -6.537  0.00  0.00    -0.495 OA
ATOM     34  C   UNL     1       6.949  -8.801  -6.799  0.00  0.00    +0.277 C 
ENDBRANCH  30  33
ENDBRANCH  26  27
ENDBRANCH  25  26
BRANCH  25  35
ATOM     35  C   UNL     1       1.068  -7.019  -3.607  0.00  0.00    +0.160 C 
BRANCH  35  36
ATOM     36  C   UNL     1       1.313  -6.958  -2.121  0.00  0.00    +0.119 A 
ATOM     37  C   UNL     1       0.364  -6.917  -1.168  0.00  0.00    +0.046 A 
ATOM     38  C   UNL     1       1.035  -6.868   0.075  0.00  0.00    +0.041 A 
ATOM     39  C   UNL     1       2.353  -6.881  -0.192  0.00  0.00    +0.195 A 
ATOM     40  O   UNL     1       2.516  -6.942  -1.523  0.00  0.00    -0.467 OA
ENDBRANCH  35  36
ENDBRANCH  25  35
ENDBRANCH   1  25
TORSDOF 11
