REMARK  Name = ZINC24212469
REMARK  6 active torsions:
REMARK  status: ('A' for Active; 'I' for Inactive)
REMARK    1  A    between atoms: C_1  and  C_2
REMARK    2  A    between atoms: C_2  and  C_3
REMARK    3  A    between atoms: C_9  and  C_13
REMARK    4  A    between atoms: C_13  and  N_14
REMARK    5  A    between atoms: N_17  and  C_20
REMARK    6  A    between atoms: C_25  and  N_26
REMARK                            x       y       z     vdW  Elec       q    Type
REMARK                         _______ _______ _______ _____ _____    ______ ____
ROOT
ATOM      1  N   UNL     1       1.234  -4.555  -1.332  0.00  0.00    +0.385 N 
ATOM      2  C   UNL     1       0.284  -4.456  -2.449  0.00  0.00    -0.059 C 
ATOM      3  C   UNL     1       1.006  -4.783  -3.759  0.00  0.00    +0.086 C 
ATOM      4  N   UNL     1       1.578  -6.135  -3.675  0.00  0.00    -0.332 N 
ATOM      5  C   UNL     1       2.527  -6.233  -2.558  0.00  0.00    +0.086 C 
ATOM      6  C   UNL     1       1.806  -5.906  -1.248  0.00  0.00    -0.059 C 
ATOM      7  H   UNL     1       2.056  -3.849  -1.521  0.00  0.00    -0.081 HD
ENDROOT
BRANCH   4   8
ATOM      8  C   UNL     1       2.183  -6.497  -4.880  0.00  0.00    +0.060 A 
ATOM      9  C   UNL     1       3.227  -5.736  -5.392  0.00  0.00    +0.025 A 
ATOM     10  C   UNL     1       3.827  -6.100  -6.581  0.00  0.00    +0.002 A 
ATOM     11  C   UNL     1       3.383  -7.215  -7.268  0.00  0.00    +0.002 A 
ATOM     12  C   UNL     1       2.341  -7.972  -6.765  0.00  0.00    +0.034 A 
ATOM     13  C   UNL     1       1.740  -7.616  -5.574  0.00  0.00    +0.147 A 
BRANCH  13  14
ATOM     14  N   UNL     1       0.624  -8.426  -5.036  0.00  0.00    +0.058 N 
ATOM     15  O   UNL     1       0.300  -9.461  -5.591  0.00  0.00    -0.126 OA
ATOM     16  O   UNL     1       0.030  -8.059  -4.038  0.00  0.00    -0.126 OA
ENDBRANCH  13  14
ENDBRANCH   4   8
BRANCH   1  17
ATOM     17  C   UNL     1       0.597  -4.173  -0.064  0.00  0.00    -0.022 C 
BRANCH  17  24
ATOM     18  C   UNL     1       0.523   2.144  -0.275  0.00  0.00    +0.102 A 
ATOM     19  N   UNL     1      -0.512   1.363  -0.209  0.00  0.00    -0.159 NA
ATOM     20  N   UNL     1      -0.380  -0.022  -0.168  0.00  0.00    -0.171 N 
ATOM     21  C   UNL     1      -1.384  -0.945  -0.099  0.00  0.00    +0.275 A 
ATOM     22  O   UNL     1      -2.549  -0.581  -0.069  0.00  0.00    -0.266 OA
ATOM     23  C   UNL     1      -1.075  -2.305  -0.065  0.00  0.00    +0.093 A 
ATOM     24  C   UNL     1       0.242  -2.709  -0.101  0.00  0.00    +0.033 A 
ATOM     25  N   UNL     1       1.196  -1.783  -0.167  0.00  0.00    -0.228 NA
ATOM     26  C   UNL     1       0.898  -0.509  -0.199  0.00  0.00    +0.199 A 
ATOM     27  S   UNL     1       1.873   0.977  -0.285  0.00  0.00    -0.033 S 
BRANCH  18  29
ATOM     28  C   UNL     1      -0.853   4.208  -0.295  0.00  0.00    +0.011 C 
ATOM     29  C   UNL     1       0.572   3.650  -0.328  0.00  0.00    +0.061 C 
ENDBRANCH  18  29
ENDBRANCH  17  24
ENDBRANCH   1  17
TORSDOF 5
