REMARK  Name = ZINC06443621
REMARK  9 active torsions:
REMARK  status: ('A' for Active; 'I' for Inactive)
REMARK    1  A    between atoms: C_1  and  C_2
REMARK    2  A    between atoms: C_12  and  C_14
REMARK    3  A    between atoms: C_14  and  C_16
REMARK    4  A    between atoms: C_14  and  N_68
REMARK    5  A    between atoms: N_20  and  C_21
REMARK    6  A    between atoms: C_26  and  C_27
REMARK    7  A    between atoms: C_26  and  N_68
REMARK    8  A    between atoms: C_32  and  C_33
REMARK    9  A    between atoms: C_32  and  N_68
REMARK                            x       y       z     vdW  Elec       q    Type
REMARK                         _______ _______ _______ _____ _____    ______ ____
ROOT
ATOM      1  C   UNL     1      -4.298   5.232  -1.063  0.00  0.00    +0.039 C 
ENDROOT
BRANCH   1  13
ATOM      2  C   UNL     1       1.631   2.417  -0.717  0.00  0.00    +0.046 C 
ATOM      3  C   UNL     1       0.327   1.924  -1.289  0.00  0.00    -0.026 A 
ATOM      4  C   UNL     1       0.254   0.675  -1.867  0.00  0.00    +0.005 A 
ATOM      5  C   UNL     1      -0.941   0.209  -2.399  0.00  0.00    +0.001 A 
ATOM      6  C   UNL     1      -2.066   0.984  -2.364  0.00  0.00    +0.010 A 
ATOM      7  C   UNL     1      -2.017   2.252  -1.777  0.00  0.00    -0.001 A 
ATOM      8  C   UNL     1      -0.807   2.728  -1.237  0.00  0.00    +0.052 A 
ATOM      9  N   UNL     1      -0.762   3.981  -0.665  0.00  0.00    -0.322 N 
ATOM     10  H   UNL     1       0.073   4.308  -0.293  0.00  0.00    +0.169 HD
ATOM     11  C   UNL     1      -1.858   4.758  -0.614  0.00  0.00    +0.251 A 
ATOM     12  O   UNL     1      -1.782   5.861  -0.100  0.00  0.00    -0.268 OA
ATOM     13  C   UNL     1      -3.095   4.329  -1.141  0.00  0.00    +0.011 A 
ATOM     14  C   UNL     1      -3.205   3.106  -1.717  0.00  0.00    +0.017 A 
ENDBRANCH   1  13
BRANCH   1  15
ATOM     15  C   UNL     1      -4.574   5.579   0.378  0.00  0.00    +0.143 A 
ATOM     16  N   UNL     1      -3.771   6.214   1.197  0.00  0.00    -0.115 NA
ATOM     17  N   UNL     1      -4.364   6.317   2.336  0.00  0.00    -0.023 NA
ATOM     18  N   UNL     1      -5.525   5.765   2.264  0.00  0.00    -0.044 NA
ATOM     19  N   UNL     1      -5.694   5.303   1.071  0.00  0.00    -0.227 N 
BRANCH  19  20
ATOM     20  C   UNL     1      -6.879   4.606   0.567  0.00  0.00    +0.111 C 
ATOM     21  C   UNL     1      -8.128   5.494   0.740  0.00  0.00    +0.027 C 
ATOM     22  C   UNL     1      -9.254   4.499   1.117  0.00  0.00    +0.002 C 
ATOM     23  C   UNL     1      -8.523   3.488   2.035  0.00  0.00    +0.002 C 
ATOM     24  C   UNL     1      -7.130   3.330   1.390  0.00  0.00    +0.027 C 
ENDBRANCH  19  20
ENDBRANCH   1  15
BRANCH   1  25
ATOM     25  N   UNL     1      -4.012   6.474  -1.812  0.00  0.00    +0.396 N 
ATOM     26  H   UNL     1      -3.123   6.866  -1.481  0.00  0.00    -0.080 HD
BRANCH  25  27
ATOM     27  C   UNL     1      -5.088   7.461  -1.584  0.00  0.00    -0.002 C 
BRANCH  27  28
ATOM     28  C   UNL     1      -4.714   8.310  -0.396  0.00  0.00    +0.089 A 
ATOM     29  C   UNL     1      -3.861   9.351  -0.410  0.00  0.00    +0.042 A 
ATOM     30  C   UNL     1      -3.808   9.855   0.910  0.00  0.00    +0.041 A 
ATOM     31  C   UNL     1      -4.626   9.087   1.653  0.00  0.00    +0.195 A 
ATOM     32  O   UNL     1      -5.172   8.154   0.857  0.00  0.00    -0.470 OA
ENDBRANCH  27  28
ENDBRANCH  25  27
BRANCH  25  33
ATOM     33  C   UNL     1      -3.897   6.177  -3.256  0.00  0.00    -0.045 C 
BRANCH  33  34
ATOM     34  C   UNL     1      -2.413   6.149  -3.628  0.00  0.00    +0.102 C 
ATOM     35  C   UNL     1      -2.244   5.894  -5.142  0.00  0.00    +0.032 C 
ATOM     36  C   UNL     1      -0.995   4.989  -5.233  0.00  0.00    +0.030 C 
ATOM     37  C   UNL     1      -0.557   4.804  -3.763  0.00  0.00    +0.160 C 
ATOM     38  O   UNL     1      -1.756   5.032  -2.990  0.00  0.00    -0.378 OA
ENDBRANCH  33  34
ENDBRANCH  25  33
ENDBRANCH   1  25
TORSDOF 8
