REMARK  Name = ZINC36214758
REMARK  10 active torsions:
REMARK  status: ('A' for Active; 'I' for Inactive)
REMARK    1  A    between atoms: C_1  and  C_2
REMARK    2  A    between atoms: C_2  and  C_3
REMARK    3  A    between atoms: C_3  and  C_5
REMARK    4  A    between atoms: C_3  and  N_6
REMARK    5  A    between atoms: C_7  and  C_9
REMARK    6  A    between atoms: C_9  and  C_11
REMARK    7  A    between atoms: C_9  and  N_27
REMARK    8  A    between atoms: N_14  and  S_17
REMARK    9  A    between atoms: S_17  and  C_20
REMARK   10  A    between atoms: C_28  and  C_30
REMARK                            x       y       z     vdW  Elec       q    Type
REMARK                         _______ _______ _______ _____ _____    ______ ____
ROOT
ATOM      1  C   UNL     1      -4.090   0.329   2.630  0.00  0.00    +0.162 C 
ENDROOT
BRANCH   1   2
ATOM      2  C   UNL     1      -4.093  -0.816   3.646  0.00  0.00    +0.021 C 
ATOM      3  C   UNL     1      -5.043  -1.917   3.170  0.00  0.00    +0.023 C 
ATOM      4  C   UNL     1      -5.017  -3.076   4.171  0.00  0.00    +0.110 C 
ATOM      5  N   UNL     1      -5.322  -2.552   5.510  0.00  0.00    -0.177 NA
ATOM      6  C   UNL     1      -4.526  -1.431   6.027  0.00  0.00    +0.110 C 
ATOM      7  C   UNL     1      -4.558  -0.290   5.006  0.00  0.00    +0.023 C 
BRANCH   5   8
ATOM      8  S   UNL     1      -6.540  -3.212   6.417  0.00  0.00    +0.061 S 
ATOM      9  O   UNL     1      -6.954  -2.208   7.333  0.00  0.00    -0.153 OA
ATOM     10  O   UNL     1      -7.438  -3.828   5.504  0.00  0.00    -0.153 OA
BRANCH   8  11
ATOM     11  C   UNL     1      -5.831  -4.508   7.377  0.00  0.00    +0.106 A 
ATOM     12  C   UNL     1      -5.780  -5.794   6.872  0.00  0.00    +0.030 A 
ATOM     13  C   UNL     1      -5.224  -6.811   7.625  0.00  0.00    +0.022 A 
ATOM     14  C   UNL     1      -4.718  -6.541   8.884  0.00  0.00    +0.041 A 
ATOM     15  C   UNL     1      -4.769  -5.254   9.389  0.00  0.00    +0.022 A 
ATOM     16  C   UNL     1      -5.320  -4.237   8.633  0.00  0.00    +0.030 A 
ATOM     17 CL   UNL     1      -4.019  -7.818   9.831  0.00  0.00    -0.084 Cl
ENDBRANCH   8  11
ENDBRANCH   5   8
ENDBRANCH   1   2
BRANCH   1  19
ATOM     18  N   UNL     1      -2.261  -0.319   1.097  0.00  0.00    -0.311 N 
ATOM     19  C   UNL     1      -3.585  -0.177   1.304  0.00  0.00    +0.234 C 
ATOM     20  O   UNL     1      -4.370  -0.457   0.423  0.00  0.00    -0.274 OA
ATOM     21  H   UNL     1      -1.633  -0.095   1.802  0.00  0.00    +0.149 HD
BRANCH  18  22
ATOM     22  C   UNL     1      -1.770  -0.811  -0.193  0.00  0.00    +0.070 C 
ATOM     23  C   UNL     1      -1.785  -2.341  -0.194  0.00  0.00    +0.028 C 
BRANCH  22  25
ATOM     24  C   UNL     1      -0.342   1.210  -0.540  0.00  0.00    +0.005 C 
ATOM     25  C   UNL     1      -0.340  -0.315  -0.417  0.00  0.00    +0.018 C 
ENDBRANCH  22  25
ENDBRANCH  18  22
ENDBRANCH   1  19
BRANCH   1  26
ATOM     26  N   UNL     1      -5.453   0.843   2.470  0.00  0.00    -0.299 N 
ATOM     27  C   UNL     1      -5.651   2.119   2.084  0.00  0.00    +0.251 C 
ATOM     28  O   UNL     1      -4.701   2.817   1.780  0.00  0.00    -0.270 OA
ATOM     29  H   UNL     1      -6.212   0.265   2.643  0.00  0.00    +0.150 HD
BRANCH  27  30
ATOM     30  C   UNL     1      -7.010   2.666   2.029  0.00  0.00    +0.074 A 
ATOM     31  C   UNL     1      -7.427   3.935   1.658  0.00  0.00    +0.021 A 
ATOM     32  C   UNL     1      -8.782   4.156   1.708  0.00  0.00    +0.008 A 
ATOM     33  C   UNL     1      -9.600   3.150   2.106  0.00  0.00    +0.046 A 
ATOM     34  S   UNL     1      -8.557   1.870   2.416  0.00  0.00    -0.092 S 
ENDBRANCH  27  30
ENDBRANCH   1  26
TORSDOF 8
