REMARK  Name = ZINC14469421
REMARK  7 active torsions:
REMARK  status: ('A' for Active; 'I' for Inactive)
REMARK    1  A    between atoms: C_4  and  C_7
REMARK    2  A    between atoms: C_7  and  O_8
REMARK    3  A    between atoms: O_8  and  C_9
REMARK    4  A    between atoms: C_12  and  C_15
REMARK    5  A    between atoms: C_26  and  S_31
REMARK    6  A    between atoms: S_31  and  N_34
REMARK    7  A    between atoms: N_34  and  C_35
REMARK                            x       y       z     vdW  Elec       q    Type
REMARK                         _______ _______ _______ _____ _____    ______ ____
ROOT
ATOM      1  C   UNL     1      12.605  -1.213   1.052  0.00  0.00    +0.105 C 
ATOM      2  C   UNL     1      11.446  -2.163   1.087  0.00  0.00    +0.029 C 
ATOM      3  C   UNL     1      10.198  -1.540   1.746  0.00  0.00    +0.033 C 
ATOM      4  C   UNL     1       9.457  -2.732   2.315  0.00  0.00    -0.030 C 
ATOM      5  C   UNL     1      10.244  -3.772   2.404  0.00  0.00    -0.023 C 
ATOM      6  C   UNL     1      11.633  -3.417   1.936  0.00  0.00    +0.049 C 
ATOM      7  C   UNL     1      12.488  -3.187   3.151  0.00  0.00    -0.018 A 
ATOM      8  C   UNL     1      12.484  -4.149   4.151  0.00  0.00    +0.034 A 
ATOM      9  C   UNL     1      13.243  -3.977   5.290  0.00  0.00    +0.109 A 
ATOM     10  C   UNL     1      14.015  -2.840   5.445  0.00  0.00    +0.030 A 
ATOM     11  C   UNL     1      14.029  -1.880   4.455  0.00  0.00    +0.025 A 
ATOM     12  C   UNL     1      13.268  -2.055   3.302  0.00  0.00    +0.031 A 
ATOM     13  N   UNL     1      13.332  -1.105   2.300  0.00  0.00    -0.336 N 
ATOM     14  H   UNL     1      13.872  -0.315   2.457  0.00  0.00    +0.147 HD
ENDROOT
BRANCH   1  18
ATOM     15  C   UNL     1      11.145   2.663  -0.001  0.00  0.00    +0.121 A 
ATOM     16  C   UNL     1      11.698   1.841  -0.972  0.00  0.00    +0.046 A 
ATOM     17  C   UNL     1      12.170   0.589  -0.629  0.00  0.00    +0.009 A 
ATOM     18  C   UNL     1      12.091   0.154   0.681  0.00  0.00    -0.027 A 
ATOM     19  C   UNL     1      11.539   0.971   1.651  0.00  0.00    +0.009 A 
ATOM     20  C   UNL     1      11.072   2.227   1.314  0.00  0.00    +0.046 A 
BRANCH  15  21
ATOM     21  O   UNL     1      10.681   3.896  -0.336  0.00  0.00    -0.487 OA
BRANCH  21  22
ATOM     22  C   UNL     1      10.789   4.279  -1.708  0.00  0.00    +0.264 C 
BRANCH  22  26
ATOM     23  C   UNL     1       9.198   8.210  -2.221  0.00  0.00    +0.000 A 
ATOM     24  C   UNL     1      10.537   8.040  -1.923  0.00  0.00    +0.000 A 
ATOM     25  C   UNL     1      11.052   6.767  -1.756  0.00  0.00    +0.007 A 
ATOM     26  C   UNL     1      10.227   5.665  -1.889  0.00  0.00    -0.010 A 
ATOM     27  C   UNL     1       8.888   5.836  -2.187  0.00  0.00    +0.007 A 
ATOM     28  C   UNL     1       8.374   7.108  -2.354  0.00  0.00    +0.000 A 
ENDBRANCH  22  26
ENDBRANCH  21  22
ENDBRANCH  15  21
ENDBRANCH   1  18
BRANCH   9  29
ATOM     29  S   UNL     1      13.228  -5.208   6.551  0.00  0.00    +0.072 S 
ATOM     30  O   UNL     1      13.473  -4.536   7.779  0.00  0.00    -0.150 OA
ATOM     31  O   UNL     1      12.067  -5.998   6.334  0.00  0.00    -0.150 OA
BRANCH  29  32
ATOM     32  N   UNL     1      14.530  -6.197   6.285  0.00  0.00    -0.216 N 
ATOM     33  H   UNL     1      15.235  -6.260   6.948  0.00  0.00    +0.174 HD
BRANCH  32  34
ATOM     34  C   UNL     1      14.612  -6.941   5.106  0.00  0.00    +0.048 A 
ATOM     35  C   UNL     1      13.820  -8.070   4.939  0.00  0.00    +0.024 A 
ATOM     36  C   UNL     1      13.903  -8.804   3.771  0.00  0.00    +0.002 A 
ATOM     37  C   UNL     1      14.774  -8.416   2.770  0.00  0.00    +0.000 A 
ATOM     38  C   UNL     1      15.564  -7.292   2.933  0.00  0.00    +0.002 A 
ATOM     39  C   UNL     1      15.482  -6.551   4.096  0.00  0.00    +0.024 A 
ENDBRANCH  32  34
ENDBRANCH  29  32
ENDBRANCH   9  29
TORSDOF 7
