REMARK  Name = ZINC39156707
REMARK  7 active torsions:
REMARK  status: ('A' for Active; 'I' for Inactive)
REMARK    1  A    between atoms: C_1  and  C_2
REMARK    2  A    between atoms: C_6  and  N_9
REMARK    3  A    between atoms: C_7  and  C_8
REMARK    4  A    between atoms: C_10  and  C_12
REMARK    5  A    between atoms: C_12  and  S_13
REMARK    6  A    between atoms: S_13  and  C_14
REMARK    7  A    between atoms: C_22  and  C_26
REMARK                            x       y       z     vdW  Elec       q    Type
REMARK                         _______ _______ _______ _____ _____    ______ ____
ROOT
ATOM      1  C   UNL     1      -0.337  -7.434   4.990  0.00  0.00    +0.288 C 
ATOM      2  N   UNL     1      -1.486  -6.888   5.735  0.00  0.00    -0.174 NA
ATOM      3  N   UNL     1      -1.060  -6.294   6.733  0.00  0.00    -0.251 N 
ATOM      4  C   UNL     1       0.293  -6.313   6.836  0.00  0.00    +0.220 C 
ATOM      5  N   UNL     1       1.075  -5.754   7.749  0.00  0.00    -0.145 NA
ATOM      6  C   UNL     1       2.400  -5.813   7.549  0.00  0.00    +0.262 C 
ATOM      7  O   UNL     1       3.157  -5.489   8.441  0.00  0.00    -0.271 OA
ATOM      8  C   UNL     1       2.959  -6.278   6.230  0.00  0.00    +0.191 C 
ATOM      9  N   UNL     1       2.133  -7.366   5.679  0.00  0.00    -0.219 NA
ATOM     10  N   UNL     1       0.817  -7.061   5.805  0.00  0.00    -0.201 N 
ATOM     11  H   UNL     1       2.345  -8.244   6.129  0.00  0.00    +0.146 HD
ATOM     12  H   UNL     1      -1.637  -5.856   7.378  0.00  0.00    +0.191 HD
ENDROOT
BRANCH   8  13
ATOM     13  C   UNL     1       4.366  -6.778   6.433  0.00  0.00    -0.020 A 
ATOM     14  C   UNL     1       4.582  -8.050   6.930  0.00  0.00    +0.008 A 
ATOM     15  C   UNL     1       5.872  -8.510   7.116  0.00  0.00    +0.038 A 
ATOM     16  C   UNL     1       6.948  -7.697   6.806  0.00  0.00    +0.123 A 
ATOM     17  C   UNL     1       6.731  -6.423   6.309  0.00  0.00    +0.038 A 
ATOM     18  C   UNL     1       5.440  -5.967   6.118  0.00  0.00    +0.008 A 
ATOM     19  F   UNL     1       8.209  -8.145   6.988  0.00  0.00    -0.205 F 
ENDBRANCH   8  13
BRANCH   1  20
ATOM     20  S   UNL     1      -0.226  -6.677   3.345  0.00  0.00    -0.103 S 
BRANCH  20  21
ATOM     21  C   UNL     1      -0.129  -4.898   3.686  0.00  0.00    +0.168 C 
BRANCH  21  23
ATOM     22  N   UNL     1       0.052  -2.797   2.393  0.00  0.00    -0.285 N 
ATOM     23  C   UNL     1      -0.031  -4.143   2.385  0.00  0.00    +0.227 C 
ATOM     24  O   UNL     1      -0.028  -4.745   1.333  0.00  0.00    -0.275 OA
ATOM     25  H   UNL     1       0.130  -2.321   3.234  0.00  0.00    +0.155 HD
BRANCH  22  31
ATOM     26  C   UNL     1       1.206   1.236  -0.172  0.00  0.00    +0.044 C 
ATOM     27  C   UNL     1       0.577  -0.131  -0.084  0.00  0.00    -0.046 A 
ATOM     28  C   UNL     1      -0.027  -0.686  -1.198  0.00  0.00    +0.004 A 
ATOM     29  C   UNL     1      -0.605  -1.940  -1.122  0.00  0.00    +0.002 A 
ATOM     30  C   UNL     1      -0.580  -2.642   0.067  0.00  0.00    +0.023 A 
ATOM     31  C   UNL     1       0.026  -2.088   1.187  0.00  0.00    +0.037 A 
ATOM     32  C   UNL     1       0.610  -0.831   1.106  0.00  0.00    -0.026 A 
ATOM     33  C   UNL     1       1.274  -0.228   2.317  0.00  0.00    +0.046 C 
ENDBRANCH  22  31
ENDBRANCH  21  23
ENDBRANCH  20  21
ENDBRANCH   1  20
TORSDOF 5
