REMARK  Name = ZINC07880032
REMARK  5 active torsions:
REMARK  status: ('A' for Active; 'I' for Inactive)
REMARK    1  A    between atoms: C_6  and  C_26
REMARK    2  A    between atoms: C_10  and  C_11
REMARK    3  A    between atoms: C_10  and  N_53
REMARK    4  A    between atoms: N_13  and  C_14
REMARK    5  A    between atoms: C_15  and  C_23
REMARK                            x       y       z     vdW  Elec       q    Type
REMARK                         _______ _______ _______ _____ _____    ______ ____
ROOT
ATOM      1  C   UNL     1       6.251   0.928   1.300  0.00  0.00    +0.201 C 
ATOM      2  O   UNL     1       5.320   0.955   2.077  0.00  0.00    -0.278 OA
ATOM      3  N   UNL     1       7.481   1.296   1.709  0.00  0.00    -0.281 N 
ATOM      4  H   UNL     1       8.225   1.275   1.087  0.00  0.00    +0.155 HD
ENDROOT
BRANCH   3   5
ATOM      5  C   UNL     1       7.683   1.704   3.018  0.00  0.00    +0.084 A 
ATOM      6  C   UNL     1       8.863   2.116   3.621  0.00  0.00    +0.068 A 
ATOM      7  C   UNL     1       8.805   2.496   5.022  0.00  0.00    -0.023 A 
ATOM      8  C   UNL     1       7.584   2.404   5.593  0.00  0.00    -0.004 A 
ATOM      9  S   UNL     1       6.521   1.832   4.298  0.00  0.00    -0.077 S 
ATOM     10  C   UNL     1       7.222   2.726   7.010  0.00  0.00    +0.043 C 
ATOM     11  C   UNL     1       8.518   2.821   7.830  0.00  0.00    +0.005 C 
ATOM     12  C   UNL     1       9.517   3.700   7.073  0.00  0.00    +0.005 C 
ATOM     13  C   UNL     1      10.011   2.969   5.823  0.00  0.00    +0.037 C 
BRANCH   6  14
ATOM     14  C   UNL     1      10.123   2.164   2.872  0.00  0.00    +0.244 C 
ATOM     15  O   UNL     1      10.441   3.180   2.283  0.00  0.00    -0.270 OA
ATOM     16  N   UNL     1      10.928   1.084   2.837  0.00  0.00    -0.325 N 
ATOM     17  H   UNL     1      10.674   0.275   3.307  0.00  0.00    +0.145 HD
ATOM     18  H   UNL     1      11.761   1.116   2.341  0.00  0.00    +0.145 HD
ENDBRANCH   6  14
ENDBRANCH   3   5
BRANCH   1  19
ATOM     19  C   UNL     1       6.031   0.485  -0.124  0.00  0.00    +0.020 C 
BRANCH  19  28
ATOM     20  C   UNL     1       1.245   1.761  -0.401  0.00  0.00    +0.010 A 
ATOM     21  C   UNL     1      -0.016   1.299  -0.568  0.00  0.00    +0.045 A 
ATOM     22  S   UNL     1       0.226  -0.470  -0.479  0.00  0.00    -0.101 S 
ATOM     23  C   UNL     1       1.978  -0.458  -0.228  0.00  0.00    -0.010 A 
ATOM     24  C   UNL     1       2.297   0.867  -0.223  0.00  0.00    -0.051 A 
ATOM     25  C   UNL     1       3.750   1.290  -0.029  0.00  0.00    -0.033 C 
ATOM     26  C   UNL     1       4.249  -1.041   0.478  0.00  0.00    -0.072 C 
ATOM     27  C   UNL     1       2.921  -1.604  -0.055  0.00  0.00    +0.024 C 
ATOM     28  N   UNL     1       4.617   0.132  -0.352  0.00  0.00    +0.390 N 
ATOM     29  H   UNL     1       4.489  -0.111  -1.341  0.00  0.00    -0.080 HD
BRANCH  25  30
ATOM     30  C   UNL     1       4.087   2.438  -0.983  0.00  0.00    -0.020 C 
ATOM     31  C   UNL     1       4.882   3.616  -0.419  0.00  0.00    +0.002 C 
ATOM     32  C   UNL     1       3.396   3.781  -0.744  0.00  0.00    +0.002 C 
ENDBRANCH  25  30
ENDBRANCH  19  28
ENDBRANCH   1  19
TORSDOF 5
