REMARK  Name = ZINC12288729
REMARK  11 active torsions:
REMARK  status: ('A' for Active; 'I' for Inactive)
REMARK    1  A    between atoms: C_1  and  C_2
REMARK    2  A    between atoms: C_2  and  O_3
REMARK    3  A    between atoms: O_3  and  C_4
REMARK    4  A    between atoms: C_4  and  C_6
REMARK    5  A    between atoms: C_6  and  N_7
REMARK    6  A    between atoms: C_10  and  N_30
REMARK    7  A    between atoms: N_16  and  C_17
REMARK    8  A    between atoms: C_17  and  C_19
REMARK    9  A    between atoms: C_22  and  S_25
REMARK   10  A    between atoms: S_25  and  C_28
REMARK   11  A    between atoms: C_28  and  C_29
REMARK                            x       y       z     vdW  Elec       q    Type
REMARK                         _______ _______ _______ _____ _____    ______ ____
ROOT
ATOM      1  N   UNL     1       0.094   1.660  -0.145  0.00  0.00    -0.310 N 
ATOM      2  C   UNL     1       0.371   0.398  -0.635  0.00  0.00    +0.060 A 
ATOM      3  C   UNL     1      -0.533  -0.604  -1.022  0.00  0.00    +0.059 A 
ATOM      4  C   UNL     1      -0.082  -1.815  -1.492  0.00  0.00    +0.128 A 
ATOM      5  C   UNL     1       1.272  -2.084  -1.600  0.00  0.00    +0.034 A 
ATOM      6  C   UNL     1       2.186  -1.114  -1.226  0.00  0.00    +0.019 A 
ATOM      7  C   UNL     1       1.736   0.097  -0.755  0.00  0.00    +0.039 A 
ATOM      8  S   UNL     1       2.531   1.577  -0.182  0.00  0.00    -0.052 S 
ATOM      9  C   UNL     1       1.111   2.503   0.181  0.00  0.00    +0.167 A 
ATOM     10  N   UNL     1       1.034   3.740   0.661  0.00  0.00    -0.152 NA
ENDROOT
BRANCH   4  11
ATOM     11  N   UNL     1      -1.062  -2.849  -1.891  0.00  0.00    +0.056 N 
ATOM     12  O   UNL     1      -0.675  -3.926  -2.309  0.00  0.00    -0.126 OA
ATOM     13  O   UNL     1      -2.256  -2.625  -1.801  0.00  0.00    -0.126 OA
ENDBRANCH   4  11
BRANCH  10  14
ATOM     14  C   UNL     1       2.151   4.425   0.925  0.00  0.00    +0.269 C 
ATOM     15  O   UNL     1       3.240   3.915   0.725  0.00  0.00    -0.268 OA
BRANCH  14  16
ATOM     16  C   UNL     1       2.066   5.803   1.460  0.00  0.00    +0.039 A 
ATOM     17  C   UNL     1       0.821   6.391   1.685  0.00  0.00    +0.015 A 
ATOM     18  C   UNL     1       0.748   7.674   2.189  0.00  0.00    +0.027 A 
ATOM     19  C   UNL     1       1.906   8.380   2.461  0.00  0.00    +0.088 A 
ATOM     20  C   UNL     1       3.144   7.804   2.235  0.00  0.00    +0.027 A 
ATOM     21  C   UNL     1       3.230   6.521   1.736  0.00  0.00    +0.015 A 
BRANCH  19  22
ATOM     22  S   UNL     1       1.804  10.020   3.097  0.00  0.00    -0.003 S 
ATOM     23  O   UNL     1       0.552  10.073   3.766  0.00  0.00    -0.169 OA
ATOM     24  O   UNL     1       3.017  10.207   3.813  0.00  0.00    -0.169 OA
BRANCH  22  25
ATOM     25  C   UNL     1       1.774  11.088   1.630  0.00  0.00    +0.168 C 
ATOM     26  C   UNL     1       1.686  12.552   2.067  0.00  0.00    +0.028 C 
ENDBRANCH  22  25
ENDBRANCH  19  22
ENDBRANCH  14  16
ENDBRANCH  10  14
BRANCH   1  27
ATOM     27  C   UNL     1      -1.296   2.092   0.020  0.00  0.00    +0.244 C 
BRANCH  27  28
ATOM     28  C   UNL     1      -1.435   2.855   1.312  0.00  0.00    +0.327 C 
ATOM     29  O   UNL     1      -0.520   2.880   2.100  0.00  0.00    -0.249 OA
BRANCH  28  30
ATOM     30  O   UNL     1      -2.577   3.506   1.587  0.00  0.00    -0.464 OA
BRANCH  30  32
ATOM     31  C   UNL     1      -4.007   4.893   2.987  0.00  0.00    +0.048 C 
ATOM     32  C   UNL     1      -2.640   4.218   2.851  0.00  0.00    +0.229 C 
ENDBRANCH  30  32
ENDBRANCH  28  30
ENDBRANCH  27  28
ENDBRANCH   1  27
TORSDOF 9
