REMARK  Name = ZINC25703859
REMARK  6 active torsions:
REMARK  status: ('A' for Active; 'I' for Inactive)
REMARK    1  A    between atoms: C_1  and  C_2
REMARK    2  A    between atoms: C_9  and  N_14
REMARK    3  A    between atoms: N_14  and  C_15
REMARK    4  A    between atoms: C_15  and  C_17
REMARK    5  A    between atoms: C_15  and  C_18
REMARK    6  A    between atoms: C_21  and  C_23
REMARK                            x       y       z     vdW  Elec       q    Type
REMARK                         _______ _______ _______ _____ _____    ______ ____
ROOT
ATOM      1  N   UNL     1       2.648  -4.006  -0.604  0.00  0.00    -0.333 N 
ATOM      2  H   UNL     1       1.743  -4.567  -0.883  0.00  0.00    +0.147 HD
ENDROOT
BRANCH   1  10
ATOM      3  C   UNL     1       1.085   3.458   0.701  0.00  0.00    +0.062 C 
ATOM      4  C   UNL     1       1.282   2.112   0.001  0.00  0.00    +0.256 C 
ATOM      5  C   UNL     1      -0.016   1.347   0.009  0.00  0.00    +0.258 C 
ATOM      6  O   UNL     1      -1.073   1.941   0.018  0.00  0.00    -0.271 OA
ATOM      7  N   UNL     1       0.002  -0.004   0.002  0.00  0.00    -0.279 N 
ATOM      8  C   UNL     1       1.237  -0.667   0.022  0.00  0.00    +0.077 A 
ATOM      9  C   UNL     1       1.323  -2.011  -0.302  0.00  0.00    +0.050 A 
ATOM     10  C   UNL     1       2.556  -2.649  -0.277  0.00  0.00    +0.030 A 
ATOM     11  C   UNL     1       3.698  -1.941   0.074  0.00  0.00    +0.026 A 
ATOM     12  C   UNL     1       3.612  -0.600   0.399  0.00  0.00    +0.049 A 
ATOM     13  C   UNL     1       2.385   0.041   0.373  0.00  0.00    +0.143 A 
ATOM     14  O   UNL     1       2.287   1.361   0.688  0.00  0.00    -0.478 OA
ATOM     15  H   UNL     1      -0.943  -0.567  -0.019  0.00  0.00    +0.155 HD
ENDBRANCH   1  10
BRANCH   1  16
ATOM     16  C   UNL     1       3.948  -4.680  -0.577  0.00  0.00    +0.155 C 
ATOM     17  C   UNL     1       4.665  -4.460  -1.911  0.00  0.00    +0.038 C 
BRANCH  16  18
ATOM     18  C   UNL     1       3.744  -6.157  -0.353  0.00  0.00    +0.237 A 
ATOM     19  N   UNL     1       2.865  -6.911  -0.951  0.00  0.00    -0.110 NA
ATOM     20  N   UNL     1       2.970  -8.119  -0.518  0.00  0.00    -0.107 NA
ATOM     21  C   UNL     1       3.928  -8.176   0.377  0.00  0.00    +0.248 A 
ATOM     22  O   UNL     1       4.440  -6.934   0.494  0.00  0.00    -0.418 OA
BRANCH  21  23
ATOM     23  C   UNL     1       4.367  -9.379   1.115  0.00  0.00    +0.038 A 
ATOM     24  C   UNL     1       5.410  -9.292   2.039  0.00  0.00    +0.013 A 
ATOM     25  C   UNL     1       5.811 -10.418   2.729  0.00  0.00    +0.001 A 
ATOM     26  C   UNL     1       5.191 -11.633   2.498  0.00  0.00    +0.000 A 
ATOM     27  C   UNL     1       4.161 -11.726   1.579  0.00  0.00    +0.001 A 
ATOM     28  C   UNL     1       3.746 -10.607   0.887  0.00  0.00    +0.013 A 
ENDBRANCH  21  23
ENDBRANCH  16  18
ENDBRANCH   1  16
TORSDOF 4
