REMARK  Name = ZINC08623680
REMARK  6 active torsions:
REMARK  status: ('A' for Active; 'I' for Inactive)
REMARK    1  A    between atoms: C_1  and  C_2
REMARK    2  A    between atoms: C_2  and  C_23
REMARK    3  A    between atoms: N_5  and  C_9
REMARK    4  A    between atoms: C_9  and  C_10
REMARK    5  A    between atoms: N_12  and  C_13
REMARK    6  A    between atoms: C_15  and  N_20
REMARK                            x       y       z     vdW  Elec       q    Type
REMARK                         _______ _______ _______ _____ _____    ______ ____
ROOT
ATOM      1  C   UNL     1       3.155   8.032  -0.645  0.00  0.00    +0.047 C 
ATOM      2  C   UNL     1       2.013   8.912  -0.133  0.00  0.00    +0.135 C 
ATOM      3  C   UNL     1       0.687   8.451  -0.704  0.00  0.00    +0.251 C 
ATOM      4  O   UNL     1       0.368   8.408  -1.872  0.00  0.00    -0.272 OA
ATOM      5  N   UNL     1      -0.063   8.097   0.359  0.00  0.00    -0.215 N 
ATOM      6  C   UNL     1       0.596   8.273   1.509  0.00  0.00    +0.310 C 
ATOM      7  O   UNL     1       0.125   8.027   2.603  0.00  0.00    -0.252 OA
ATOM      8  N   UNL     1       1.840   8.749   1.321  0.00  0.00    -0.281 N 
ATOM      9  H   UNL     1       2.494   8.950   2.009  0.00  0.00    +0.152 HD
ENDROOT
BRANCH   2  10
ATOM     10  C   UNL     1       2.265  10.357  -0.478  0.00  0.00    -0.015 A 
ATOM     11  C   UNL     1       1.756  10.887  -1.650  0.00  0.00    +0.007 A 
ATOM     12  C   UNL     1       1.982  12.213  -1.964  0.00  0.00    +0.020 A 
ATOM     13  C   UNL     1       2.727  13.009  -1.112  0.00  0.00    +0.041 A 
ATOM     14  C   UNL     1       3.240  12.477   0.058  0.00  0.00    +0.020 A 
ATOM     15  C   UNL     1       3.009  11.152   0.374  0.00  0.00    +0.007 A 
ATOM     16 CL   UNL     1       3.017  14.674  -1.510  0.00  0.00    -0.084 Cl
ENDBRANCH   2  10
BRANCH   5  17
ATOM     17  C   UNL     1      -1.433   7.587   0.265  0.00  0.00    +0.214 C 
BRANCH  17  18
ATOM     18  C   UNL     1      -1.404   6.085   0.143  0.00  0.00    +0.235 C 
ATOM     19  O   UNL     1      -0.343   5.498   0.136  0.00  0.00    -0.274 OA
ATOM     20  N   UNL     1      -2.557   5.395   0.043  0.00  0.00    -0.283 N 
ATOM     21  H   UNL     1      -3.402   5.867  -0.016  0.00  0.00    +0.155 HD
BRANCH  20  22
ATOM     22  C   UNL     1      -2.535   3.995   0.025  0.00  0.00    +0.054 A 
ATOM     23  C   UNL     1      -1.486   3.324  -0.589  0.00  0.00    +0.057 A 
ATOM     24  C   UNL     1      -1.470   1.943  -0.611  0.00  0.00    +0.128 A 
ATOM     25  C   UNL     1      -2.491   1.228  -0.012  0.00  0.00    +0.034 A 
ATOM     26  C   UNL     1      -3.535   1.893   0.605  0.00  0.00    +0.024 A 
ATOM     27  C   UNL     1      -3.560   3.275   0.625  0.00  0.00    +0.062 A 
ATOM     28 CL   UNL     1      -4.870   4.109   1.401  0.00  0.00    -0.082 Cl
BRANCH  24  29
ATOM     29  N   UNL     1      -0.355   1.227  -1.270  0.00  0.00    +0.056 N 
ATOM     30  O   UNL     1      -0.337   0.009  -1.286  0.00  0.00    -0.126 OA
ATOM     31  O   UNL     1       0.543   1.856  -1.802  0.00  0.00    -0.126 OA
ENDBRANCH  24  29
ENDBRANCH  20  22
ENDBRANCH  17  18
ENDBRANCH   5  17
TORSDOF 5
