REMARK  Name = ZINC64143370
REMARK  13 active torsions:
REMARK  status: ('A' for Active; 'I' for Inactive)
REMARK    1  A    between atoms: C_1  and  C_2
REMARK    2  A    between atoms: C_4  and  C_22
REMARK    3  A    between atoms: N_10  and  C_11
REMARK    4  A    between atoms: C_11  and  C_12
REMARK    5  A    between atoms: C_12  and  C_13
REMARK    6  A    between atoms: C_12  and  C_14
REMARK    7  A    between atoms: C_16  and  C_20
REMARK    8  A    between atoms: C_16  and  C_21
REMARK    9  A    between atoms: C_22  and  C_23
REMARK   10  A    between atoms: N_25  and  C_26
REMARK   11  A    between atoms: N_25  and  C_27
REMARK   12  A    between atoms: C_27  and  C_28
REMARK   13  A    between atoms: C_32  and  C_34
REMARK                            x       y       z     vdW  Elec       q    Type
REMARK                         _______ _______ _______ _____ _____    ______ ____
ROOT
ATOM      1  C   UNL     1      -0.167   1.322  -0.011  0.00  0.00    -0.013 C 
ATOM      2  C   UNL     1      -0.043  -0.201   0.073  0.00  0.00    -0.067 C 
ATOM      3  C   UNL     1       0.599  -0.753  -1.227  0.00  0.00    -0.007 C 
ATOM      4  C   UNL     1       1.835  -1.501  -0.733  0.00  0.00    +0.044 C 
ATOM      5  C   UNL     1       2.176  -0.710   0.563  0.00  0.00    -0.057 C 
ATOM      6  N   UNL     1       0.864  -0.578   1.198  0.00  0.00    +0.384 N 
ATOM      7  C   UNL     1       3.247  -1.482   1.297  0.00  0.00    -0.008 C 
ATOM      8  C   UNL     1       4.532  -1.409   0.457  0.00  0.00    -0.030 C 
ATOM      9  C   UNL     1       4.331  -1.995  -0.939  0.00  0.00    +0.081 C 
ATOM     10  C   UNL     1       3.057  -1.439  -1.601  0.00  0.00    +0.136 C 
ATOM     11  O   UNL     1       3.032  -0.986  -2.721  0.00  0.00    -0.297 OA
ATOM     12  C   UNL     1       5.640  -2.187   1.170  0.00  0.00    +0.011 C 
ATOM     13  C   UNL     1       4.959   0.055   0.325  0.00  0.00    +0.011 C 
ATOM     14  H   UNL     1       0.578  -1.455   1.604  0.00  0.00    -0.081 HD
ENDROOT
BRANCH   6  15
ATOM     15  C   UNL     1       0.889   0.481   2.216  0.00  0.00    -0.075 C 
BRANCH  15  16
ATOM     16  C   UNL     1      -0.480   0.570   2.893  0.00  0.00    -0.034 C 
ATOM     17  C   UNL     1      -0.745  -0.715   3.680  0.00  0.00    +0.005 C 
ATOM     18  C   UNL     1      -0.500   1.766   3.847  0.00  0.00    +0.005 C 
ENDBRANCH  15  16
ENDBRANCH   6  15
BRANCH   3  19
ATOM     19  C   UNL     1      -0.363  -1.708  -1.937  0.00  0.00    +0.098 C 
BRANCH  19  20
ATOM     20  C   UNL     1      -1.560  -0.938  -2.432  0.00  0.00    +0.216 C 
ATOM     21  O   UNL     1      -1.637   0.256  -2.235  0.00  0.00    -0.276 OA
ATOM     22  N   UNL     1      -2.546  -1.577  -3.092  0.00  0.00    -0.297 N 
ATOM     23  C   UNL     1      -2.454  -3.020  -3.329  0.00  0.00    +0.132 C 
BRANCH  22  24
ATOM     24  C   UNL     1      -3.710  -0.829  -3.573  0.00  0.00    +0.179 C 
BRANCH  24  25
ATOM     25  C   UNL     1      -3.444  -0.327  -4.969  0.00  0.00    +0.102 A 
ATOM     26  H   UNL     1      -5.343   0.059  -5.720  0.00  0.00    +0.167 HD
ATOM     27  N   UNL     1      -2.267  -0.196  -5.518  0.00  0.00    -0.348 N 
ATOM     28  C   UNL     1      -2.412   0.275  -6.765  0.00  0.00    +0.105 A 
ATOM     29  C   UNL     1      -3.727   0.443  -6.998  0.00  0.00    +0.030 A 
ATOM     30  N   UNL     1      -4.383   0.056  -5.860  0.00  0.00    -0.346 N 
ATOM     31  C   UNL     1      -4.357   0.953  -8.268  0.00  0.00    +0.065 C 
ATOM     32  H   UNL     1      -1.422  -0.407  -5.092  0.00  0.00    +0.166 HD
ENDBRANCH  24  25
ENDBRANCH  22  24
ENDBRANCH  19  20
ENDBRANCH   3  19
TORSDOF 6
