REMARK  Name = ZINC64277709
REMARK  6 active torsions:
REMARK  status: ('A' for Active; 'I' for Inactive)
REMARK    1  A    between atoms: C_1  and  C_2
REMARK    2  A    between atoms: C_2  and  C_3
REMARK    3  A    between atoms: C_3  and  C_5
REMARK    4  A    between atoms: C_3  and  N_6
REMARK    5  A    between atoms: C_26  and  C_28
REMARK    6  A    between atoms: C_32  and  N_34
REMARK                            x       y       z     vdW  Elec       q    Type
REMARK                         _______ _______ _______ _____ _____    ______ ____
ROOT
ATOM      1  N   UNL     1      -2.105  -0.148  -1.230  0.00  0.00    -0.288 N 
ATOM      2  C   UNL     1      -1.605  -0.583  -2.548  0.00  0.00    +0.204 C 
ATOM      3  C   UNL     1      -1.603   0.611  -3.479  0.00  0.00    +0.234 C 
ATOM      4  O   UNL     1      -0.666   0.841  -4.215  0.00  0.00    -0.274 OA
ATOM      5  N   UNL     1      -2.711   1.422  -3.451  0.00  0.00    -0.279 N 
ATOM      6  C   UNL     1      -3.783   0.980  -2.585  0.00  0.00    +0.167 C 
ATOM      7  C   UNL     1      -3.230   0.627  -1.227  0.00  0.00    +0.237 C 
ATOM      8  O   UNL     1      -3.749   1.008  -0.199  0.00  0.00    -0.274 OA
ATOM      9  C   UNL     1      -5.026   1.827  -2.495  0.00  0.00    +0.065 C 
ATOM     10  C   UNL     1      -4.801   3.140  -3.194  0.00  0.00    -0.034 C 
ATOM     11  C   UNL     1      -5.145   4.382  -2.884  0.00  0.00    -0.001 A 
ATOM     12  C   UNL     1      -5.917   4.934  -1.759  0.00  0.00    +0.010 A 
ATOM     13  C   UNL     1      -6.079   6.283  -1.747  0.00  0.00    +0.001 A 
ATOM     14  C   UNL     1      -5.557   7.129  -2.729  0.00  0.00    +0.002 A 
ATOM     15  C   UNL     1      -4.838   6.709  -3.800  0.00  0.00    +0.026 A 
ATOM     16  C   UNL     1      -4.603   5.308  -3.925  0.00  0.00    +0.043 A 
ATOM     17  N   UNL     1      -3.967   4.641  -4.840  0.00  0.00    -0.375 N 
ATOM     18  C   UNL     1      -4.043   3.210  -4.518  0.00  0.00    +0.131 C 
ATOM     19  C   UNL     1      -2.659   2.639  -4.248  0.00  0.00    +0.133 C 
ATOM     20  H   UNL     1      -3.517   5.025  -5.609  0.00  0.00    +0.160 HD
ENDROOT
BRANCH  19  21
ATOM     21  C   UNL     1      -1.956   2.346  -5.548  0.00  0.00    -0.023 A 
ATOM     22  C   UNL     1      -2.199   1.158  -6.212  0.00  0.00    +0.005 A 
ATOM     23  C   UNL     1      -1.554   0.889  -7.405  0.00  0.00    +0.003 A 
ATOM     24  C   UNL     1      -0.666   1.808  -7.933  0.00  0.00    +0.033 A 
ATOM     25  C   UNL     1      -0.424   2.996  -7.269  0.00  0.00    +0.127 A 
ATOM     26  C   UNL     1      -1.073   3.267  -6.079  0.00  0.00    +0.038 A 
BRANCH  25  27
ATOM     27  N   UNL     1       0.527   3.979  -7.835  0.00  0.00    +0.056 N 
ATOM     28  O   UNL     1       1.091   3.744  -8.877  0.00  0.00    -0.126 OA
ATOM     29  O   UNL     1       0.738   5.018  -7.254  0.00  0.00    -0.126 OA
ENDBRANCH  25  27
ENDBRANCH  19  21
BRANCH   1  30
ATOM     30  C   UNL     1      -1.433  -0.534   0.013  0.00  0.00    +0.073 C 
ATOM     31  C   UNL     1      -1.413  -2.059   0.130  0.00  0.00    +0.028 C 
BRANCH  30  33
ATOM     32  C   UNL     1      -0.019   1.526   0.010  0.00  0.00    +0.005 C 
ATOM     33  C   UNL     1       0.002  -0.004   0.002  0.00  0.00    +0.019 C 
ENDBRANCH  30  33
ENDBRANCH   1  30
TORSDOF 4
