REMARK  Name = ZINC04073927
REMARK  12 active torsions:
REMARK  status: ('A' for Active; 'I' for Inactive)
REMARK    1  A    between atoms: C_1  and  C_2
REMARK    2  A    between atoms: C_2  and  O_3
REMARK    3  A    between atoms: O_3  and  C_4
REMARK    4  A    between atoms: C_4  and  C_6
REMARK    5  A    between atoms: C_6  and  C_7
REMARK    6  A    between atoms: C_7  and  C_8
REMARK    7  A    between atoms: C_8  and  C_10
REMARK    8  A    between atoms: C_8  and  C_11
REMARK    9  A    between atoms: C_17  and  C_38
REMARK   10  A    between atoms: C_18  and  O_37
REMARK   11  A    between atoms: C_29  and  C_36
REMARK   12  A    between atoms: C_32  and  O_35
REMARK                            x       y       z     vdW  Elec       q    Type
REMARK                         _______ _______ _______ _____ _____    ______ ____
ROOT
ATOM      1  C   UNL     1      -1.127   3.401   1.141  0.00  0.00    +0.001 C 
ATOM      2  C   UNL     1      -1.243   3.882   2.604  0.00  0.00    +0.005 C 
ATOM      3  C   UNL     1      -0.406   2.927   3.469  0.00  0.00    +0.005 C 
ATOM      4  C   UNL     1       0.437   2.081   2.484  0.00  0.00    +0.001 C 
ATOM      5  C   UNL     1      -0.415   2.042   1.211  0.00  0.00    +0.000 C 
ATOM      6  C   UNL     1       0.364   1.708  -0.039  0.00  0.00    +0.121 C 
ATOM      7  C   UNL     1       1.652   2.520  -0.161  0.00  0.00    +0.036 C 
ATOM      8  C   UNL     1       2.514   2.237   1.074  0.00  0.00    +0.001 C 
ATOM      9  C   UNL     1       1.781   2.782   2.297  0.00  0.00    -0.004 C 
ATOM     10  C   UNL     1       1.609   4.294   2.185  0.00  0.00    +0.004 C 
ATOM     11  C   UNL     1       2.977   4.968   2.037  0.00  0.00    +0.004 C 
ATOM     12  C   UNL     1       3.688   4.418   0.803  0.00  0.00    -0.002 C 
ATOM     13  C   UNL     1       3.880   2.909   0.920  0.00  0.00    -0.026 C 
ATOM     14  C   UNL     1       4.564   2.385  -0.346  0.00  0.00    +0.010 C 
ATOM     15  C   UNL     1       5.905   3.084  -0.559  0.00  0.00    +0.032 C 
ATOM     16  C   UNL     1       5.707   4.595  -0.661  0.00  0.00    +0.115 C 
ATOM     17  C   UNL     1       5.028   5.123   0.603  0.00  0.00    +0.035 C 
ATOM     18  C   UNL     1       4.752   2.562   2.131  0.00  0.00    +0.012 C 
ATOM     19  C   UNL     1      -1.490   0.952   1.389  0.00  0.00    +0.014 C 
ENDROOT
BRANCH   1  20
ATOM     20  C   UNL     1      -2.534   3.240   0.544  0.00  0.00    -0.010 C 
ATOM     21  C   UNL     1      -2.422   2.946  -0.954  0.00  0.00    +0.008 C 
BRANCH  20  22
ATOM     22  C   UNL     1      -3.327   4.532   0.752  0.00  0.00    +0.014 C 
BRANCH  22  23
ATOM     23  C   UNL     1      -4.765   4.330   0.270  0.00  0.00    +0.121 C 
BRANCH  23  24
ATOM     24  C   UNL     1      -5.547   5.602   0.476  0.00  0.00    +0.307 C 
ATOM     25  O   UNL     1      -5.009   6.571   0.958  0.00  0.00    -0.251 OA
BRANCH  24  26
ATOM     26  O   UNL     1      -6.841   5.660   0.123  0.00  0.00    -0.465 OA
BRANCH  26  28
ATOM     27  C   UNL     1      -8.984   6.791  -0.112  0.00  0.00    +0.048 C 
ATOM     28  C   UNL     1      -7.531   6.917   0.349  0.00  0.00    +0.229 C 
ENDBRANCH  26  28
ENDBRANCH  24  26
ENDBRANCH  23  24
ENDBRANCH  22  23
ENDBRANCH  20  22
ENDBRANCH   1  20
BRANCH  16  29
ATOM     29  O   UNL     1       4.902   4.899  -1.801  0.00  0.00    -0.392 OA
ATOM     30  H   UNL     1       5.274   4.592  -2.639  0.00  0.00    +0.210 HD
ENDBRANCH  16  29
BRANCH   6  31
ATOM     31  O   UNL     1      -0.444   1.941  -1.192  0.00  0.00    -0.391 OA
ATOM     32  H   UNL     1      -0.011   1.721  -2.028  0.00  0.00    +0.210 HD
ENDBRANCH   6  31
TORSDOF 8
