REMARK  Name = ZINC09079510
REMARK  11 active torsions:
REMARK  status: ('A' for Active; 'I' for Inactive)
REMARK    1  A    between atoms: C_1  and  C_2
REMARK    2  A    between atoms: C_6  and  S_13
REMARK    3  A    between atoms: S_13  and  N_16
REMARK    4  A    between atoms: N_16  and  C_17
REMARK    5  A    between atoms: C_17  and  C_18
REMARK    6  A    between atoms: C_18  and  C_20
REMARK    7  A    between atoms: C_18  and  S_29
REMARK    8  A    between atoms: C_23  and  N_26
REMARK    9  A    between atoms: N_26  and  C_27
REMARK   10  A    between atoms: N_26  and  C_28
REMARK   11  A    between atoms: S_29  and  C_32
REMARK                            x       y       z     vdW  Elec       q    Type
REMARK                         _______ _______ _______ _____ _____    ______ ____
ROOT
ATOM      1  C   UNL     1      -5.134  -3.553  -2.143  0.00  0.00    +0.137 C 
ENDROOT
BRANCH   1   2
ATOM      2  N   UNL     1      -5.006  -2.169  -2.607  0.00  0.00    -0.188 NA
ATOM      3  H   UNL     1      -4.863  -1.985  -3.548  0.00  0.00    +0.148 HD
BRANCH   2   4
ATOM      4  S   UNL     1      -5.108  -0.920  -1.525  0.00  0.00    +0.058 S 
ATOM      5  O   UNL     1      -6.269  -1.156  -0.740  0.00  0.00    -0.153 OA
ATOM      6  O   UNL     1      -4.921   0.277  -2.267  0.00  0.00    -0.153 OA
BRANCH   4  11
ATOM      7  C   UNL     1      -0.083   1.550   0.074  0.00  0.00    +0.022 C 
ATOM      8  C   UNL     1      -0.056   0.020   0.066  0.00  0.00    +0.104 C 
ATOM      9  C   UNL     1      -1.461  -0.535   0.107  0.00  0.00    -0.013 A 
ATOM     10  C   UNL     1      -2.537  -0.424  -0.745  0.00  0.00    +0.034 A 
ATOM     11  C   UNL     1      -3.728  -1.059  -0.438  0.00  0.00    +0.106 A 
ATOM     12  C   UNL     1      -3.833  -1.802   0.724  0.00  0.00    +0.030 A 
ATOM     13  C   UNL     1      -2.756  -1.914   1.579  0.00  0.00    +0.025 A 
ATOM     14  C   UNL     1      -1.553  -1.278   1.277  0.00  0.00    +0.037 A 
ATOM     15  N   UNL     1      -0.342  -1.240   1.969  0.00  0.00    -0.285 N 
ATOM     16  C   UNL     1       0.588  -0.505   1.331  0.00  0.00    +0.224 C 
ATOM     17  O   UNL     1       1.726  -0.302   1.698  0.00  0.00    -0.275 OA
ATOM     18  H   UNL     1      -0.188  -1.693   2.813  0.00  0.00    +0.155 HD
ENDBRANCH   4  11
ENDBRANCH   2   4
ENDBRANCH   1   2
BRANCH   1  19
ATOM     19  C   UNL     1      -5.379  -4.472  -3.341  0.00  0.00    +0.182 C 
BRANCH  19  20
ATOM     20  C   UNL     1      -5.510  -5.896  -2.863  0.00  0.00    -0.022 A 
ATOM     21  C   UNL     1      -4.465  -6.494  -2.184  0.00  0.00    +0.007 A 
ATOM     22  C   UNL     1      -4.581  -7.798  -1.744  0.00  0.00    +0.023 A 
ATOM     23  C   UNL     1      -5.750  -8.509  -1.986  0.00  0.00    +0.029 A 
ATOM     24  C   UNL     1      -6.798  -7.905  -2.669  0.00  0.00    +0.023 A 
ATOM     25  C   UNL     1      -6.677  -6.598  -3.100  0.00  0.00    +0.007 A 
BRANCH  23  26
ATOM     26  N   UNL     1      -5.871  -9.828  -1.544  0.00  0.00    -0.336 N 
ATOM     27  C   UNL     1      -4.723 -10.505  -0.936  0.00  0.00    +0.129 C 
ATOM     28  C   UNL     1      -7.146 -10.535  -1.688  0.00  0.00    +0.129 C 
ENDBRANCH  23  26
ENDBRANCH  19  20
BRANCH  19  29
ATOM     29  S   UNL     1      -3.984  -4.347  -4.494  0.00  0.00    +0.011 S 
ATOM     30  O   UNL     1      -4.108  -5.322  -5.520  0.00  0.00    -0.168 OA
ATOM     31  O   UNL     1      -3.735  -2.986  -4.815  0.00  0.00    -0.168 OA
BRANCH  29  32
ATOM     32  C   UNL     1      -2.578  -4.854  -3.560  0.00  0.00    +0.126 A 
ATOM     33  C   UNL     1      -2.053  -6.094  -3.413  0.00  0.00    +0.035 A 
ATOM     34  C   UNL     1      -0.930  -6.258  -2.623  0.00  0.00    +0.009 A 
ATOM     35  C   UNL     1      -0.388  -5.173  -2.019  0.00  0.00    +0.047 A 
ATOM     36  S   UNL     1      -1.471  -3.864  -2.569  0.00  0.00    -0.078 S 
ENDBRANCH  29  32
ENDBRANCH  19  29
ENDBRANCH   1  19
TORSDOF 8
