REMARK  Name = ZINC00658726
REMARK  12 active torsions:
REMARK  status: ('A' for Active; 'I' for Inactive)
REMARK    1  A    between atoms: C_1  and  C_2
REMARK    2  A    between atoms: C_2  and  O_3
REMARK    3  A    between atoms: O_3  and  C_4
REMARK    4  A    between atoms: C_7  and  C_13
REMARK    5  A    between atoms: C_9  and  O_10
REMARK    6  A    between atoms: O_10  and  C_11
REMARK    7  A    between atoms: C_11  and  C_12
REMARK    8  A    between atoms: N_18  and  C_32
REMARK    9  A    between atoms: C_22  and  C_30
REMARK   10  A    between atoms: C_23  and  N_29
REMARK   11  A    between atoms: C_24  and  C_25
REMARK   12  A    between atoms: C_24  and  C_27
REMARK                            x       y       z     vdW  Elec       q    Type
REMARK                         _______ _______ _______ _____ _____    ______ ____
ROOT
ATOM      1  C   UNL     1      -1.560   0.471   1.904  0.00  0.00    +0.068 C 
ATOM      2  C   UNL     1      -0.776   1.662   1.352  0.00  0.00    +0.044 C 
ATOM      3  C   UNL     1      -0.092   1.338   0.044  0.00  0.00    +0.093 C 
ATOM      4  N   UNL     1      -0.829   1.868  -1.107  0.00  0.00    -0.301 NA
ATOM      5  C   UNL     1      -0.955   3.333  -1.000  0.00  0.00    +0.111 C 
ATOM      6  C   UNL     1      -1.781   3.631   0.228  0.00  0.00    -0.007 C 
ATOM      7  C   UNL     1      -1.702   2.841   1.283  0.00  0.00    -0.026 C 
ATOM      8  C   UNL     1      -2.557   3.098   2.468  0.00  0.00    +0.074 C 
ATOM      9  C   UNL     1      -2.700   2.126   3.405  0.00  0.00    +0.054 C 
ATOM     10  C   UNL     1      -2.016   0.794   3.327  0.00  0.00    +0.188 C 
ATOM     11  C   UNL     1      -0.181   1.487  -2.368  0.00  0.00    +0.105 C 
ENDROOT
BRANCH   1  15
ATOM     12  C   UNL     1      -4.980  -0.251  -0.561  0.00  0.00    +0.162 A 
ATOM     13  C   UNL     1      -5.062   0.636   0.500  0.00  0.00    +0.050 A 
ATOM     14  C   UNL     1      -3.956   0.864   1.298  0.00  0.00    +0.008 A 
ATOM     15  C   UNL     1      -2.764   0.215   1.034  0.00  0.00    -0.037 A 
ATOM     16  C   UNL     1      -2.675  -0.671  -0.023  0.00  0.00    +0.053 A 
ATOM     17  C   UNL     1      -3.781  -0.907  -0.824  0.00  0.00    +0.162 A 
BRANCH  12  18
ATOM     18  O   UNL     1      -6.068  -0.479  -1.344  0.00  0.00    -0.489 OA
BRANCH  18  20
ATOM     19  C   UNL     1      -8.371  -0.154  -1.999  0.00  0.00    +0.048 C 
ATOM     20  C   UNL     1      -7.264   0.230  -1.015  0.00  0.00    +0.226 C 
ENDBRANCH  18  20
ENDBRANCH  12  18
BRANCH  17  21
ATOM     21  O   UNL     1      -3.696  -1.780  -1.864  0.00  0.00    -0.489 OA
BRANCH  21  22
ATOM     22  C   UNL     1      -2.434  -2.417  -2.074  0.00  0.00    +0.226 C 
ATOM     23  C   UNL     1      -2.531  -3.355  -3.279  0.00  0.00    +0.048 C 
ENDBRANCH  21  22
ENDBRANCH  17  21
ENDBRANCH   1  15
BRANCH   9  24
ATOM     24  N   UNL     1      -3.511   2.374   4.476  0.00  0.00    -0.358 N 
ATOM     25  H   UNL     1      -3.648   1.606   5.252  0.00  0.00    +0.142 HD
ATOM     26  H   UNL     1      -4.028   3.341   4.562  0.00  0.00    +0.142 HD
ENDBRANCH   9  24
BRANCH  10  27
ATOM     27  C   UNL     1      -0.843   0.805   4.216  0.00  0.00    +0.091 C 
ATOM     28  N   UNL     1       0.063   0.814   4.901  0.00  0.00    -0.194 NA
ENDBRANCH  10  27
BRANCH  10  29
ATOM     29  C   UNL     1      -2.949  -0.251   3.779  0.00  0.00    +0.091 C 
ATOM     30  N   UNL     1      -3.669  -1.058   4.128  0.00  0.00    -0.194 NA
ENDBRANCH  10  29
BRANCH   8  31
ATOM     31  C   UNL     1      -3.223   4.356   2.622  0.00  0.00    +0.101 C 
ATOM     32  N   UNL     1      -3.752   5.354   2.744  0.00  0.00    -0.191 NA
ENDBRANCH   8  31
TORSDOF 9
