REMARK  Name = ZINC22312346
REMARK  7 active torsions:
REMARK  status: ('A' for Active; 'I' for Inactive)
REMARK    1  A    between atoms: C_1  and  C_2
REMARK    2  A    between atoms: C_2  and  O_3
REMARK    3  A    between atoms: O_3  and  C_4
REMARK    4  A    between atoms: C_5  and  N_12
REMARK    5  A    between atoms: C_13  and  C_15
REMARK    6  A    between atoms: C_15  and  N_16
REMARK    7  A    between atoms: C_24  and  C_26
REMARK                            x       y       z     vdW  Elec       q    Type
REMARK                         _______ _______ _______ _____ _____    ______ ____
ROOT
ATOM      1  N   UNL     1       4.168   1.043  -1.699  0.00  0.00    -0.281 N 
ATOM      2  C   UNL     1       2.910   1.453  -1.439  0.00  0.00    +0.235 C 
ATOM      3  O   UNL     1       2.150   1.696  -2.353  0.00  0.00    -0.274 OA
ATOM      4  H   UNL     1       4.879   0.894  -0.874  0.00  0.00    +0.155 HD
ENDROOT
BRANCH   1   6
ATOM      5  C   UNL     1       5.467  -0.219  -3.305  0.00  0.00    +0.156 A 
ATOM      6  C   UNL     1       4.568   0.807  -3.021  0.00  0.00    +0.078 A 
ATOM      7  C   UNL     1       4.067   1.590  -4.050  0.00  0.00    +0.047 A 
ATOM      8  C   UNL     1       4.469   1.359  -5.353  0.00  0.00    +0.044 A 
ATOM      9  C   UNL     1       5.361   0.340  -5.635  0.00  0.00    +0.039 A 
ATOM     10  C   UNL     1       5.860  -0.449  -4.614  0.00  0.00    +0.063 A 
ATOM     11 BR   UNL     1       7.080  -1.840  -5.004  0.00  0.00    -0.046 Br
ATOM     12 CL   UNL     1       3.846   2.345  -6.639  0.00  0.00    -0.083 Cl
BRANCH   5  13
ATOM     13  O   UNL     1       5.957  -0.993  -2.300  0.00  0.00    -0.489 OA
BRANCH  13  15
ATOM     14  C   UNL     1       5.920  -2.908  -0.826  0.00  0.00    +0.048 C 
ATOM     15  C   UNL     1       5.220  -2.172  -1.970  0.00  0.00    +0.226 C 
ENDBRANCH  13  15
ENDBRANCH   5  13
ENDBRANCH   1   6
BRANCH   2  16
ATOM     16  C   UNL     1       2.449   1.611  -0.013  0.00  0.00    +0.214 C 
BRANCH  16  17
ATOM     17  N   UNL     1       1.055   2.064   0.002  0.00  0.00    -0.215 N 
ATOM     18  C   UNL     1      -0.011   1.237   0.015  0.00  0.00    +0.247 C 
ATOM     19  O   UNL     1       0.001   0.025   0.017  0.00  0.00    -0.273 OA
ATOM     20  C   UNL     1      -1.222   2.140   0.021  0.00  0.00    +0.115 C 
ATOM     21  C   UNL     1      -2.050   1.912   1.281  0.00  0.00    +0.035 C 
ATOM     22  C   UNL     1      -3.255   2.855   1.281  0.00  0.00    +0.003 C 
ATOM     23  C   UNL     1      -4.107   2.593   0.037  0.00  0.00    +0.000 C 
ATOM     24  C   UNL     1      -3.271   2.850  -1.218  0.00  0.00    +0.006 C 
ATOM     25  C   UNL     1      -2.065   1.907  -1.228  0.00  0.00    +0.018 C 
ATOM     26  C   UNL     1      -1.217   2.178  -2.473  0.00  0.00    +0.010 C 
ATOM     27  N   UNL     1      -0.657   3.496   0.018  0.00  0.00    -0.285 N 
ATOM     28  C   UNL     1       0.682   3.349   0.003  0.00  0.00    +0.310 C 
ATOM     29  O   UNL     1       1.464   4.280  -0.008  0.00  0.00    -0.252 OA
ATOM     30  H   UNL     1      -1.324   4.370   0.027  0.00  0.00    +0.151 HD
ENDBRANCH  16  17
ENDBRANCH   2  16
TORSDOF 5
