REMARK  Name = ZINC23580757
REMARK  12 active torsions:
REMARK  status: ('A' for Active; 'I' for Inactive)
REMARK    1  A    between atoms: C_1  and  C_2
REMARK    2  A    between atoms: C_5  and  N_8
REMARK    3  A    between atoms: C_9  and  C_32
REMARK    4  A    between atoms: C_12  and  S_13
REMARK    5  A    between atoms: S_13  and  C_14
REMARK    6  A    between atoms: C_14  and  C_16
REMARK    7  A    between atoms: C_14  and  C_17
REMARK    8  A    between atoms: N_19  and  C_20
REMARK    9  A    between atoms: C_20  and  C_21
REMARK   10  A    between atoms: N_23  and  C_24
REMARK   11  A    between atoms: C_25  and  C_31
REMARK   12  A    between atoms: C_29  and  C_30
REMARK                            x       y       z     vdW  Elec       q    Type
REMARK                         _______ _______ _______ _____ _____    ______ ____
ROOT
ATOM      1  S   UNL     1       3.474   2.251   4.096  0.00  0.00    -0.073 S 
ENDROOT
BRANCH   1   6
ATOM      2  N   UNL     1       3.559   4.305   2.195  0.00  0.00    -0.270 N 
ATOM      3  C   UNL     1       3.967   4.427   0.885  0.00  0.00    +0.169 A 
ATOM      4  N   UNL     1       4.425   3.254   0.513  0.00  0.00    -0.128 NA
ATOM      5  N   UNL     1       4.325   2.416   1.482  0.00  0.00    -0.122 NA
ATOM      6  C   UNL     1       3.802   3.002   2.536  0.00  0.00    +0.197 A 
BRANCH   2  11
ATOM      7  C   UNL     1       1.317   8.352   5.482  0.00  0.00    +0.044 C 
ATOM      8  C   UNL     1       1.912   7.277   4.610  0.00  0.00    -0.050 A 
ATOM      9  C   UNL     1       3.164   6.768   4.900  0.00  0.00    +0.005 A 
ATOM     10  C   UNL     1       3.713   5.783   4.102  0.00  0.00    +0.026 A 
ATOM     11  C   UNL     1       3.005   5.304   3.007  0.00  0.00    +0.051 A 
ATOM     12  C   UNL     1       1.750   5.822   2.715  0.00  0.00    +0.026 A 
ATOM     13  C   UNL     1       1.205   6.803   3.520  0.00  0.00    +0.005 A 
ENDBRANCH   2  11
BRANCH   3  14
ATOM     14  C   UNL     1       3.905   5.649   0.056  0.00  0.00    +0.020 A 
ATOM     15  C   UNL     1       4.010   5.559  -1.334  0.00  0.00    +0.011 A 
ATOM     16  C   UNL     1       3.945   6.703  -2.102  0.00  0.00    +0.001 A 
ATOM     17  C   UNL     1       3.789   7.938  -1.498  0.00  0.00    +0.000 A 
ATOM     18  C   UNL     1       3.691   8.035  -0.122  0.00  0.00    +0.001 A 
ATOM     19  C   UNL     1       3.748   6.898   0.658  0.00  0.00    +0.011 A 
ENDBRANCH   3  14
ENDBRANCH   1   6
BRANCH   1  20
ATOM     20  C   UNL     1       4.053   0.569   3.762  0.00  0.00    +0.137 C 
ATOM     21  C   UNL     1       3.169  -0.071   2.690  0.00  0.00    +0.029 C 
BRANCH  20  22
ATOM     22  C   UNL     1       3.980  -0.247   5.027  0.00  0.00    +0.227 C 
ATOM     23  O   UNL     1       3.197   0.058   5.902  0.00  0.00    -0.275 OA
ATOM     24  N   UNL     1       4.784  -1.317   5.186  0.00  0.00    -0.306 N 
ATOM     25  H   UNL     1       5.494  -1.594   4.393  0.00  0.00    +0.149 HD
BRANCH  24  26
ATOM     26  C   UNL     1       4.713  -2.110   6.415  0.00  0.00    +0.200 C 
BRANCH  26  27
ATOM     27  C   UNL     1       5.708  -3.240   6.342  0.00  0.00    +0.234 C 
ATOM     28  O   UNL     1       6.407  -3.369   5.360  0.00  0.00    -0.274 OA
ATOM     29  N   UNL     1       5.821  -4.106   7.369  0.00  0.00    -0.284 N 
ATOM     30  H   UNL     1       5.148  -4.023   8.235  0.00  0.00    +0.155 HD
BRANCH  29  31
ATOM     31  C   UNL     1       6.793  -5.112   7.332  0.00  0.00    +0.039 A 
ATOM     32  C   UNL     1       7.847  -5.094   8.236  0.00  0.00    -0.029 A 
ATOM     33  C   UNL     1       8.802  -6.091   8.200  0.00  0.00    +0.005 A 
ATOM     34  C   UNL     1       8.715  -7.101   7.260  0.00  0.00    +0.001 A 
ATOM     35  C   UNL     1       7.670  -7.118   6.354  0.00  0.00    +0.005 A 
ATOM     36  C   UNL     1       6.708  -6.127   6.388  0.00  0.00    -0.029 A 
ATOM     37  C   UNL     1       5.569  -6.147   5.402  0.00  0.00    +0.045 C 
ATOM     38  C   UNL     1       7.946  -3.991   9.257  0.00  0.00    +0.045 C 
ENDBRANCH  29  31
ENDBRANCH  26  27
ENDBRANCH  24  26
ENDBRANCH  20  22
ENDBRANCH   1  20
TORSDOF 8
