REMARK  Name = ZINC21238808
REMARK  9 active torsions:
REMARK  status: ('A' for Active; 'I' for Inactive)
REMARK    1  A    between atoms: C_1  and  O_2
REMARK    2  A    between atoms: O_2  and  C_3
REMARK    3  A    between atoms: C_5  and  C_13
REMARK    4  A    between atoms: C_7  and  O_11
REMARK    5  A    between atoms: C_8  and  O_9
REMARK    6  A    between atoms: O_9  and  C_10
REMARK    7  A    between atoms: O_11  and  C_12
REMARK    8  A    between atoms: C_18  and  C_24
REMARK    9  A    between atoms: C_28  and  O_30
REMARK                            x       y       z     vdW  Elec       q    Type
REMARK                         _______ _______ _______ _____ _____    ______ ____
ROOT
ATOM      1  C   UNL     1      -0.752   1.592  -1.233  0.00  0.00    +0.032 C 
ATOM      2  C   UNL     1      -0.013   1.086   0.008  0.00  0.00    +0.059 C 
ATOM      3  C   UNL     1      -0.718   1.572   1.250  0.00  0.00    +0.018 C 
ATOM      4  C   UNL     1      -1.385   2.744   1.253  0.00  0.00    +0.020 C 
ATOM      5  C   UNL     1      -2.077   3.214   2.511  0.00  0.00    +0.063 C 
ATOM      6  C   UNL     1      -2.636   2.006   3.264  0.00  0.00    +0.109 C 
ATOM      7  C   UNL     1      -1.565   0.952   3.370  0.00  0.00    +0.218 C 
ATOM      8  O   UNL     1      -1.512   0.240   4.351  0.00  0.00    -0.275 OA
ATOM      9  N   UNL     1      -0.667   0.798   2.381  0.00  0.00    -0.289 N 
ATOM     10  C   UNL     1      -1.454   3.549   0.104  0.00  0.00    +0.162 C 
ATOM     11  O   UNL     1      -2.053   4.606   0.149  0.00  0.00    -0.292 OA
ATOM     12  C   UNL     1      -0.799   3.123  -1.183  0.00  0.00    +0.088 C 
ATOM     13  H   UNL     1       0.117   0.035   2.492  0.00  0.00    +0.155 HD
ENDROOT
BRANCH   1  16
ATOM     14  C   UNL     1       0.012  -0.061  -4.545  0.00  0.00    +0.165 A 
ATOM     15  C   UNL     1      -0.658   0.348  -3.401  0.00  0.00    +0.053 A 
ATOM     16  C   UNL     1      -0.020   1.149  -2.473  0.00  0.00    -0.036 A 
ATOM     17  C   UNL     1       1.287   1.550  -2.683  0.00  0.00    +0.053 A 
ATOM     18  C   UNL     1       1.966   1.140  -3.820  0.00  0.00    +0.165 A 
ATOM     19  C   UNL     1       1.327   0.335  -4.756  0.00  0.00    +0.204 A 
BRANCH  14  21
ATOM     20  C   UNL     1      -1.969  -1.216  -5.175  0.00  0.00    +0.277 C 
ATOM     21  O   UNL     1      -0.618  -0.849  -5.457  0.00  0.00    -0.491 OA
ENDBRANCH  14  21
BRANCH  19  22
ATOM     22  O   UNL     1       1.988  -0.065  -5.877  0.00  0.00    -0.488 OA
ATOM     23  C   UNL     1       1.892   0.783  -7.023  0.00  0.00    +0.277 C 
ENDBRANCH  19  22
BRANCH  18  24
ATOM     24  O   UNL     1       3.253   1.530  -4.023  0.00  0.00    -0.491 OA
ATOM     25  C   UNL     1       3.845   2.357  -3.020  0.00  0.00    +0.277 C 
ENDBRANCH  18  24
ENDBRANCH   1  16
BRANCH   5  26
ATOM     26  C   UNL     1      -1.088   3.939   3.388  0.00  0.00    -0.036 A 
ATOM     27  C   UNL     1       0.037   3.281   3.850  0.00  0.00    +0.004 A 
ATOM     28  C   UNL     1       0.946   3.944   4.655  0.00  0.00    +0.004 A 
ATOM     29  C   UNL     1       0.731   5.265   4.998  0.00  0.00    +0.045 A 
ATOM     30  C   UNL     1      -0.396   5.927   4.535  0.00  0.00    +0.117 A 
ATOM     31  C   UNL     1      -1.304   5.261   3.724  0.00  0.00    +0.049 A 
BRANCH  30  32
ATOM     32  O   UNL     1      -0.609   7.226   4.871  0.00  0.00    -0.507 OA
ATOM     33  H   UNL     1      -1.504   7.750   4.503  0.00  0.00    +0.292 HD
ENDBRANCH  30  32
ENDBRANCH   5  26
TORSDOF 6
