REMARK  Name = ZINC59382410
REMARK  10 active torsions:
REMARK  status: ('A' for Active; 'I' for Inactive)
REMARK    1  A    between atoms: C_1  and  C_2
REMARK    2  A    between atoms: C_2  and  O_3
REMARK    3  A    between atoms: O_3  and  C_4
REMARK    4  A    between atoms: C_7  and  N_10
REMARK    5  A    between atoms: C_19  and  C_33
REMARK    6  A    between atoms: N_34  and  N_35
REMARK    7  A    between atoms: C_36  and  C_38
REMARK    8  A    between atoms: C_38  and  C_39
REMARK    9  A    between atoms: C_39  and  C_40
REMARK   10  A    between atoms: C_40  and  O_41
REMARK                            x       y       z     vdW  Elec       q    Type
REMARK                         _______ _______ _______ _____ _____    ______ ____
ROOT
ATOM      1  N   UNL     1      -2.003  -5.993  -0.110  0.00  0.00    -0.210 N 
ATOM      2  C   UNL     1      -0.949  -6.878  -0.091  0.00  0.00    +0.231 C 
ATOM      3  O   UNL     1       0.210  -6.640   0.172  0.00  0.00    -0.274 OA
ATOM      4  C   UNL     1      -1.539  -8.179  -0.461  0.00  0.00    +0.101 C 
ATOM      5  C   UNL     1      -2.934  -8.011   0.191  0.00  0.00    +0.109 C 
ATOM      6  C   UNL     1      -3.230  -6.617  -0.086  0.00  0.00    +0.232 C 
ATOM      7  O   UNL     1      -4.319  -6.114  -0.259  0.00  0.00    -0.274 OA
ATOM      8  C   UNL     1      -3.649  -9.297   0.220  0.00  0.00    +0.070 C 
ATOM      9  C   UNL     1      -3.279 -10.163  -0.966  0.00  0.00    -0.027 A 
ATOM     10  C   UNL     1      -4.172 -10.726  -1.836  0.00  0.00    +0.005 A 
ATOM     11  C   UNL     1      -3.696 -11.539  -2.855  0.00  0.00    +0.000 A 
ATOM     12  C   UNL     1      -2.342 -11.783  -2.992  0.00  0.00    +0.000 A 
ATOM     13  C   UNL     1      -1.434 -11.195  -2.117  0.00  0.00    +0.004 A 
ATOM     14  C   UNL     1      -1.909 -10.383  -1.136  0.00  0.00    -0.035 A 
ATOM     15  C   UNL     1      -1.026  -9.556  -0.144  0.00  0.00    +0.062 C 
ATOM     16  C   UNL     1      -1.557 -10.027   1.207  0.00  0.00    -0.035 A 
ATOM     17  C   UNL     1      -2.920  -9.982   1.383  0.00  0.00    -0.027 A 
ATOM     18  C   UNL     1      -3.500 -10.463   2.512  0.00  0.00    +0.005 A 
ATOM     19  C   UNL     1      -2.683 -11.005   3.500  0.00  0.00    +0.000 A 
ATOM     20  C   UNL     1      -1.313 -11.042   3.323  0.00  0.00    +0.000 A 
ATOM     21  C   UNL     1      -0.762 -10.521   2.206  0.00  0.00    +0.004 A 
ENDROOT
BRANCH   1  25
ATOM     22  C   UNL     1      -1.530  -1.849  -0.215  0.00  0.00    +0.121 A 
ATOM     23  C   UNL     1      -0.415  -2.675  -0.203  0.00  0.00    +0.047 A 
ATOM     24  C   UNL     1      -0.571  -4.046  -0.169  0.00  0.00    +0.027 A 
ATOM     25  C   UNL     1      -1.844  -4.599  -0.145  0.00  0.00    +0.044 A 
ATOM     26  C   UNL     1      -2.960  -3.773  -0.157  0.00  0.00    +0.027 A 
ATOM     27  C   UNL     1      -2.803  -2.401  -0.186  0.00  0.00    +0.047 A 
BRANCH  22  28
ATOM     28  O   UNL     1      -1.376  -0.499  -0.248  0.00  0.00    -0.492 OA
BRANCH  28  30
ATOM     29  C   UNL     1      -0.065   1.530  -0.313  0.00  0.00    +0.048 C 
ATOM     30  C   UNL     1      -0.038   0.001  -0.277  0.00  0.00    +0.225 C 
ENDBRANCH  28  30
ENDBRANCH  22  28
ENDBRANCH   1  25
BRANCH   8  31
ATOM     31  C   UNL     1      -5.133  -9.151   0.434  0.00  0.00    +0.120 C 
ATOM     32  N   UNL     1      -5.632  -8.002   0.696  0.00  0.00    -0.191 NA
BRANCH  32  33
ATOM     33  N   UNL     1      -7.012  -7.865   0.894  0.00  0.00    -0.207 N 
ATOM     34  C   UNL     1      -7.537  -6.655   1.170  0.00  0.00    +0.232 C 
ATOM     35  O   UNL     1      -6.815  -5.684   1.246  0.00  0.00    -0.274 OA
ATOM     36  H   UNL     1      -7.590  -8.642   0.834  0.00  0.00    +0.177 HD
BRANCH  34  37
ATOM     37  C   UNL     1      -9.022  -6.509   1.384  0.00  0.00    +0.100 C 
BRANCH  37  38
ATOM     38  C   UNL     1      -9.353  -5.045   1.678  0.00  0.00    +0.037 C 
BRANCH  38  39
ATOM     39  C   UNL     1     -10.860  -4.896   1.895  0.00  0.00    +0.156 C 
BRANCH  39  40
ATOM     40  O   UNL     1     -11.169  -3.528   2.170  0.00  0.00    -0.395 OA
ATOM     41  H   UNL     1     -12.110  -3.360   2.319  0.00  0.00    +0.209 HD
ENDBRANCH  39  40
ENDBRANCH  38  39
ENDBRANCH  37  38
ENDBRANCH  34  37
ENDBRANCH  32  33
ENDBRANCH   8  31
TORSDOF 9
