REMARK  Name = ZINC39950949
REMARK  2 active torsions:
REMARK  status: ('A' for Active; 'I' for Inactive)
REMARK    1  A    between atoms: C_5  and  C_11
REMARK    2  A    between atoms: N_13  and  C_14
REMARK                            x       y       z     vdW  Elec       q    Type
REMARK                         _______ _______ _______ _____ _____    ______ ____
ROOT
ATOM      1  C   UNL     1       5.920   0.736  -0.108  0.00  0.00    +0.268 C 
ATOM      2  O   UNL     1       6.548  -0.303  -0.170  0.00  0.00    -0.268 OA
ATOM      3  N   UNL     1       6.571   1.915  -0.052  0.00  0.00    -0.280 N 
ATOM      4  H   UNL     1       6.071   2.747  -0.076  0.00  0.00    +0.155 HD
ENDROOT
BRANCH   1   9
ATOM      5  C   UNL     1      -0.015   1.379  -0.013  0.00  0.00    +0.025 A 
ATOM      6  C   UNL     1       1.153   2.072   0.012  0.00  0.00    +0.048 A 
ATOM      7  C   UNL     1       2.377   1.369  -0.038  0.00  0.00    +0.138 A 
ATOM      8  N   UNL     1       3.634   1.779  -0.029  0.00  0.00    -0.223 NA
ATOM      9  C   UNL     1       4.445   0.707  -0.094  0.00  0.00    +0.144 A 
ATOM     10  C   UNL     1       3.665  -0.414  -0.145  0.00  0.00    +0.125 A 
ATOM     11  N   UNL     1       2.368  -0.001  -0.110  0.00  0.00    -0.304 N 
ATOM     12  C   UNL     1       1.184  -0.685  -0.134  0.00  0.00    +0.112 A 
ATOM     13  C   UNL     1       0.008  -0.025  -0.088  0.00  0.00    +0.058 A 
ATOM     14 CL   UNL     1      -1.483  -0.913  -0.119  0.00  0.00    -0.082 Cl
ENDBRANCH   1   9
BRANCH   3  15
ATOM     15  C   UNL     1       7.953   1.940   0.038  0.00  0.00    +0.034 C 
ATOM     16  C   UNL     1       8.571   2.590   1.098  0.00  0.00    +0.029 C 
ATOM     17  C   UNL     1       9.968   2.500   1.115  0.00  0.00    -0.016 C 
ATOM     18  C   UNL     1      10.933   3.327   1.566  0.00  0.00    +0.025 C 
ATOM     19  C   UNL     1      12.182   2.892   1.084  0.00  0.00    +0.106 C 
ATOM     20  N   UNL     1      12.092   1.770   0.423  0.00  0.00    -0.279 NA
ATOM     21  C   UNL     1      10.710   1.322   0.507  0.00  0.00    +0.158 C 
ATOM     22  C   UNL     1      10.064   1.002  -0.807  0.00  0.00    +0.006 C 
ATOM     23  C   UNL     1       8.770   1.274  -0.981  0.00  0.00    +0.021 C 
ENDBRANCH   3  15
TORSDOF 2
