REMARK  Name = ZINC06507137
REMARK  9 active torsions:
REMARK  status: ('A' for Active; 'I' for Inactive)
REMARK    1  A    between atoms: C_1  and  C_2
REMARK    2  A    between atoms: C_2  and  O_3
REMARK    3  A    between atoms: O_3  and  C_4
REMARK    4  A    between atoms: C_13  and  C_24
REMARK    5  A    between atoms: C_19  and  N_23
REMARK    6  A    between atoms: C_20  and  C_21
REMARK    7  A    between atoms: C_24  and  S_25
REMARK    8  A    between atoms: S_25  and  C_26
REMARK    9  A    between atoms: C_29  and  C_32
REMARK                            x       y       z     vdW  Elec       q    Type
REMARK                         _______ _______ _______ _____ _____    ______ ____
ROOT
ATOM      1  C   UNL     1       0.817  -1.762   1.311  0.00  0.00    +0.403 C 
ATOM      2  O   UNL     1       0.329  -2.500   0.478  0.00  0.00    -0.226 OA
ATOM      3  N   UNL     1       1.454  -2.280   2.380  0.00  0.00    -0.267 N 
ATOM      4  C   UNL     1       2.044  -1.400   3.398  0.00  0.00    +0.112 C 
ATOM      5  C   UNL     1       3.516  -1.781   3.586  0.00  0.00    +0.036 C 
ATOM      6  C   UNL     1       3.615  -3.273   3.907  0.00  0.00    +0.045 C 
ATOM      7  C   UNL     1       3.047  -4.091   2.747  0.00  0.00    +0.036 C 
ATOM      8  C   UNL     1       1.566  -3.735   2.552  0.00  0.00    +0.112 C 
ATOM      9  C   UNL     1       5.056  -3.648   4.137  0.00  0.00    +0.049 A 
ATOM     10  C   UNL     1       6.091  -3.772   3.220  0.00  0.00    +0.081 A 
ATOM     11  N   UNL     1       7.175  -4.117   3.873  0.00  0.00    -0.175 NA
ATOM     12  N   UNL     1       6.856  -4.223   5.236  0.00  0.00    -0.246 N 
ATOM     13  H   UNL     1       7.469  -4.464   5.949  0.00  0.00    +0.192 HD
ATOM     14  C   UNL     1       5.553  -3.934   5.378  0.00  0.00    +0.222 A 
ATOM     15  O   UNL     1       4.788  -3.906   6.497  0.00  0.00    -0.423 OA
ATOM     16  C   UNL     1       3.449  -3.857   6.339  0.00  0.00    +0.200 C 
ATOM     17  C   UNL     1       2.841  -3.573   5.165  0.00  0.00    +0.097 C 
ENDROOT
BRANCH  16  18
ATOM     18  N   UNL     1       2.659  -4.112   7.432  0.00  0.00    -0.328 N 
ATOM     19  H   UNL     1       3.066  -4.319   8.287  0.00  0.00    +0.145 HD
ATOM     20  H   UNL     1       1.693  -4.084   7.349  0.00  0.00    +0.145 HD
ENDBRANCH  16  18
BRANCH  17  21
ATOM     21  C   UNL     1       1.410  -3.554   5.116  0.00  0.00    +0.101 C 
ATOM     22  N   UNL     1       0.275  -3.540   5.077  0.00  0.00    -0.191 NA
ENDBRANCH  17  21
BRANCH   1  23
ATOM     23  O   UNL     1       0.722  -0.427   1.165  0.00  0.00    -0.451 OA
BRANCH  23  25
ATOM     24  C   UNL     1       0.028   1.582   0.016  0.00  0.00    +0.048 C 
ATOM     25  C   UNL     1       0.034   0.052   0.008  0.00  0.00    +0.230 C 
ENDBRANCH  23  25
ENDBRANCH   1  23
BRANCH  10  26
ATOM     26  C   UNL     1       5.987  -3.549   1.733  0.00  0.00    +0.132 C 
BRANCH  26  27
ATOM     27  S   UNL     1       5.716  -5.138   0.901  0.00  0.00    -0.119 S 
BRANCH  27  28
ATOM     28  C   UNL     1       5.617  -4.715  -0.806  0.00  0.00    +0.008 A 
ATOM     29  C   UNL     1       5.753  -3.390  -1.204  0.00  0.00    +0.015 A 
ATOM     30  C   UNL     1       5.675  -3.062  -2.543  0.00  0.00    +0.004 A 
ATOM     31  C   UNL     1       5.463  -4.049  -3.488  0.00  0.00    -0.050 A 
ATOM     32  C   UNL     1       5.327  -5.368  -3.095  0.00  0.00    +0.004 A 
ATOM     33  C   UNL     1       5.410  -5.705  -1.759  0.00  0.00    +0.015 A 
ATOM     34  C   UNL     1       5.379  -3.687  -4.948  0.00  0.00    +0.044 C 
ENDBRANCH  27  28
ENDBRANCH  26  27
ENDBRANCH  10  26
TORSDOF 7
