REMARK  Name = ZINC40061923
REMARK  11 active torsions:
REMARK  status: ('A' for Active; 'I' for Inactive)
REMARK    1  A    between atoms: C_1  and  C_2
REMARK    2  A    between atoms: C_4  and  C_39
REMARK    3  A    between atoms: C_13  and  C_28
REMARK    4  A    between atoms: N_15  and  C_18
REMARK    5  A    between atoms: C_18  and  C_19
REMARK    6  A    between atoms: C_19  and  C_20
REMARK    7  A    between atoms: C_23  and  O_26
REMARK    8  A    between atoms: O_26  and  C_27
REMARK    9  A    between atoms: C_31  and  O_34
REMARK   10  A    between atoms: O_34  and  C_35
REMARK   11  A    between atoms: C_35  and  C_36
REMARK                            x       y       z     vdW  Elec       q    Type
REMARK                         _______ _______ _______ _____ _____    ______ ____
ROOT
ATOM      1  C   UNL     1      -0.523   1.450   0.038  0.00  0.00    +0.044 C 
ATOM      2  C   UNL     1      -0.237  -0.029   0.015  0.00  0.00    -0.047 A 
ATOM      3  C   UNL     1      -0.233  -0.708  -1.195  0.00  0.00    +0.007 A 
ATOM      4  C   UNL     1       0.027  -2.050  -1.231  0.00  0.00    -0.036 A 
ATOM      5  C   UNL     1       0.289  -2.735  -0.045  0.00  0.00    +0.067 A 
ATOM      6  C   UNL     1       0.282  -2.060   1.186  0.00  0.00    +0.140 A 
ATOM      7  C   UNL     1       0.022  -0.690   1.195  0.00  0.00    +0.050 A 
ATOM      8  O   UNL     1       0.518  -2.692   2.358  0.00  0.00    -0.450 OA
ATOM      9  C   UNL     1       1.001  -3.950   2.351  0.00  0.00    +0.199 A 
ATOM     10  C   UNL     1       1.051  -4.714   1.220  0.00  0.00    +0.072 A 
ATOM     11  C   UNL     1       0.581  -4.191  -0.067  0.00  0.00    +0.199 A 
ATOM     12  O   UNL     1       0.444  -4.884  -1.059  0.00  0.00    -0.287 OA
ATOM     13  C   UNL     1       1.631  -6.039   1.591  0.00  0.00    +0.144 C 
ATOM     14  N   UNL     1       1.915  -5.964   3.033  0.00  0.00    -0.283 N 
ATOM     15  C   UNL     1       1.545  -4.742   3.468  0.00  0.00    +0.283 C 
ATOM     16  O   UNL     1       1.646  -4.351   4.614  0.00  0.00    -0.267 OA
ATOM     17  C   UNL     1       0.031  -2.784  -2.547  0.00  0.00    +0.044 C 
ENDROOT
BRANCH  13  18
ATOM     18  C   UNL     1       0.638  -7.138   1.312  0.00  0.00    -0.022 A 
ATOM     19  C   UNL     1      -0.408  -7.362   2.188  0.00  0.00    +0.009 A 
ATOM     20  C   UNL     1      -1.320  -8.368   1.935  0.00  0.00    +0.046 A 
ATOM     21  C   UNL     1      -1.185  -9.155   0.801  0.00  0.00    +0.121 A 
ATOM     22  C   UNL     1      -0.135  -8.928  -0.077  0.00  0.00    +0.046 A 
ATOM     23  C   UNL     1       0.771  -7.917   0.178  0.00  0.00    +0.009 A 
BRANCH  21  24
ATOM     24  O   UNL     1      -2.080 -10.146   0.550  0.00  0.00    -0.483 OA
BRANCH  24  25
ATOM     25  C   UNL     1      -1.880 -10.916  -0.637  0.00  0.00    +0.324 C 
BRANCH  25  26
ATOM     26  C   UNL     1      -2.961 -11.960  -0.748  0.00  0.00    +0.248 C 
ATOM     27  O   UNL     1      -3.819 -12.037   0.106  0.00  0.00    -0.272 OA
ATOM     28  N   UNL     1      -2.975 -12.808  -1.795  0.00  0.00    -0.327 N 
ATOM     29  H   UNL     1      -2.288 -12.747  -2.478  0.00  0.00    +0.145 HD
ATOM     30  H   UNL     1      -3.671 -13.480  -1.866  0.00  0.00    +0.145 HD
ENDBRANCH  25  26
ENDBRANCH  24  25
ENDBRANCH  21  24
ENDBRANCH  13  18
BRANCH  14  31
ATOM     31  C   UNL     1       2.498  -7.029   3.853  0.00  0.00    +0.114 C 
BRANCH  31  32
ATOM     32  C   UNL     1       4.022  -6.898   3.851  0.00  0.00    +0.054 C 
BRANCH  32  33
ATOM     33  C   UNL     1       4.622  -7.994   4.694  0.00  0.00    -0.046 A 
ATOM     34  C   UNL     1       4.831  -7.789   6.045  0.00  0.00    +0.007 A 
ATOM     35  C   UNL     1       5.381  -8.792   6.820  0.00  0.00    +0.046 A 
ATOM     36  C   UNL     1       5.723 -10.005   6.241  0.00  0.00    +0.120 A 
ATOM     37  C   UNL     1       5.512 -10.208   4.885  0.00  0.00    +0.046 A 
ATOM     38  C   UNL     1       4.957  -9.204   4.116  0.00  0.00    +0.007 A 
BRANCH  36  39
ATOM     39  O   UNL     1       6.265 -10.993   7.001  0.00  0.00    -0.495 OA
ATOM     40  C   UNL     1       6.592 -12.216   6.338  0.00  0.00    +0.277 C 
ENDBRANCH  36  39
ENDBRANCH  32  33
ENDBRANCH  31  32
ENDBRANCH  14  31
TORSDOF 8
