REMARK  Name = ZINC09814529
REMARK  6 active torsions:
REMARK  status: ('A' for Active; 'I' for Inactive)
REMARK    1  A    between atoms: C_4  and  C_7
REMARK    2  A    between atoms: C_7  and  C_30
REMARK    3  A    between atoms: N_10  and  C_14
REMARK    4  A    between atoms: C_14  and  C_15
REMARK    5  A    between atoms: N_17  and  C_18
REMARK    6  A    between atoms: C_18  and  C_19
REMARK                            x       y       z     vdW  Elec       q    Type
REMARK                         _______ _______ _______ _____ _____    ______ ____
ROOT
ATOM      1  C   UNL     1       1.801  13.358  -0.153  0.00  0.00    +0.164 C 
ATOM      2  C   UNL     1       1.803  12.171  -1.096  0.00  0.00    +0.256 C 
ATOM      3  O   UNL     1       2.027  12.183  -2.288  0.00  0.00    -0.272 OA
ATOM      4  N   UNL     1       1.502  11.100  -0.335  0.00  0.00    -0.215 N 
ATOM      5  C   UNL     1       1.320  11.441   0.946  0.00  0.00    +0.310 C 
ATOM      6  O   UNL     1       1.044  10.646   1.823  0.00  0.00    -0.252 OA
ATOM      7  N   UNL     1       1.476  12.761   1.154  0.00  0.00    -0.278 N 
ATOM      8  H   UNL     1       1.392  13.228   2.000  0.00  0.00    +0.152 HD
ENDROOT
BRANCH   1  12
ATOM      9  C   UNL     1      -1.184  16.193  -1.293  0.00  0.00    +0.000 A 
ATOM     10  C   UNL     1      -0.308  15.693  -2.239  0.00  0.00    +0.000 A 
ATOM     11  C   UNL     1       0.658  14.776  -1.870  0.00  0.00    +0.006 A 
ATOM     12  C   UNL     1       0.748  14.358  -0.555  0.00  0.00    -0.011 A 
ATOM     13  C   UNL     1      -0.131  14.854   0.390  0.00  0.00    +0.006 A 
ATOM     14  C   UNL     1      -1.093  15.775   0.022  0.00  0.00    +0.000 A 
ENDBRANCH   1  12
BRANCH   1  15
ATOM     15  C   UNL     1       3.160  14.007  -0.116  0.00  0.00    -0.011 A 
ATOM     16  C   UNL     1       3.773  14.396  -1.293  0.00  0.00    +0.006 A 
ATOM     17  C   UNL     1       5.018  14.996  -1.259  0.00  0.00    +0.000 A 
ATOM     18  C   UNL     1       5.655  15.197  -0.049  0.00  0.00    +0.000 A 
ATOM     19  C   UNL     1       5.045  14.804   1.128  0.00  0.00    +0.000 A 
ATOM     20  C   UNL     1       3.798  14.209   1.094  0.00  0.00    +0.006 A 
ENDBRANCH   1  15
BRANCH   4  21
ATOM     21  C   UNL     1       1.395   9.732  -0.846  0.00  0.00    +0.213 C 
BRANCH  21  22
ATOM     22  C   UNL     1      -0.026   9.465  -1.273  0.00  0.00    +0.231 C 
ATOM     23  O   UNL     1      -0.866  10.333  -1.161  0.00  0.00    -0.274 OA
ATOM     24  N   UNL     1      -0.363   8.262  -1.778  0.00  0.00    -0.310 N 
ATOM     25  H   UNL     1       0.309   7.568  -1.868  0.00  0.00    +0.149 HD
BRANCH  24  26
ATOM     26  C   UNL     1      -1.744   8.003  -2.193  0.00  0.00    +0.152 C 
BRANCH  26  27
ATOM     27  C   UNL     1      -1.856   6.573  -2.727  0.00  0.00    +0.228 C 
ATOM     28  C   UNL     1      -3.301   6.296  -3.163  0.00  0.00    +0.275 C 
ATOM     29  O   UNL     1      -3.368   4.958  -3.668  0.00  0.00    -0.485 OA
ATOM     30  C   UNL     1      -2.389   4.583  -4.537  0.00  0.00    +0.162 A 
ATOM     31  C   UNL     1      -2.579   3.466  -5.337  0.00  0.00    +0.049 A 
ATOM     32  C   UNL     1      -1.591   3.068  -6.218  0.00  0.00    +0.004 A 
ATOM     33  C   UNL     1      -0.415   3.789  -6.312  0.00  0.00    +0.004 A 
ATOM     34  C   UNL     1      -0.222   4.906  -5.522  0.00  0.00    +0.049 A 
ATOM     35  C   UNL     1      -1.207   5.309  -4.633  0.00  0.00    +0.163 A 
ATOM     36  O   UNL     1      -1.005   6.415  -3.868  0.00  0.00    -0.480 OA
ENDBRANCH  26  27
ENDBRANCH  24  26
ENDBRANCH  21  22
ENDBRANCH   4  21
TORSDOF 6
