REMARK  Name = ZINC20677804
REMARK  8 active torsions:
REMARK  status: ('A' for Active; 'I' for Inactive)
REMARK    1  A    between atoms: C_1  and  C_2
REMARK    2  A    between atoms: C_2  and  C_30
REMARK    3  A    between atoms: C_6  and  N_23
REMARK    4  A    between atoms: N_15  and  C_18
REMARK    5  A    between atoms: C_18  and  C_19
REMARK    6  A    between atoms: C_19  and  N_20
REMARK    7  A    between atoms: N_20  and  C_21
REMARK    8  A    between atoms: N_20  and  C_22
REMARK                            x       y       z     vdW  Elec       q    Type
REMARK                         _______ _______ _______ _____ _____    ______ ____
ROOT
ATOM      1  C   UNL     1      -1.399  -0.540   0.305  0.00  0.00    +0.041 C 
ATOM      2  C   UNL     1       0.002  -0.004   0.002  0.00  0.00    +0.068 C 
ATOM      3  C   UNL     1      -0.019   1.526   0.010  0.00  0.00    +0.070 C 
ATOM      4  C   UNL     1       1.391   2.053  -0.000  0.00  0.00    -0.024 A 
ATOM      5  C   UNL     1       2.455   1.269   0.315  0.00  0.00    +0.022 A 
ATOM      6  C   UNL     1       3.748   1.806   0.298  0.00  0.00    +0.128 A 
ATOM      7  N   UNL     1       3.944   3.074  -0.028  0.00  0.00    -0.224 NA
ATOM      8  C   UNL     1       2.936   3.861  -0.343  0.00  0.00    +0.113 A 
ATOM      9  C   UNL     1       1.602   3.411  -0.351  0.00  0.00    +0.039 A 
ATOM     10  C   UNL     1       0.590   4.411  -0.723  0.00  0.00    +0.117 A 
ATOM     11  C   UNL     1       1.070   5.686  -1.026  0.00  0.00    +0.108 A 
ATOM     12  S   UNL     1       2.824   5.567  -0.822  0.00  0.00    -0.062 S 
ATOM     13  C   UNL     1       0.182   6.707  -1.393  0.00  0.00    +0.284 A 
ATOM     14  O   UNL     1       0.583   7.827  -1.663  0.00  0.00    -0.265 OA
ATOM     15  N   UNL     1      -1.137   6.402  -1.437  0.00  0.00    -0.212 N 
ATOM     16  N   UNL     1      -1.533   5.216  -1.149  0.00  0.00    -0.062 NA
ATOM     17  N   UNL     1      -0.762   4.254  -0.810  0.00  0.00    -0.130 NA
ATOM     18  C   UNL     1       2.282  -0.181   0.687  0.00  0.00    +0.199 C 
ATOM     19  O   UNL     1       0.918  -0.449   1.010  0.00  0.00    -0.369 OA
ATOM     20  C   UNL     1       0.461  -0.506  -1.369  0.00  0.00    +0.041 C 
ENDROOT
BRANCH   6  21
ATOM     21  N   UNL     1       4.832   1.004   0.625  0.00  0.00    -0.315 N 
ATOM     22  C   UNL     1       4.972  -0.119  -0.338  0.00  0.00    +0.106 C 
ATOM     23  C   UNL     1       6.447  -0.557  -0.159  0.00  0.00    +0.020 C 
ATOM     24  C   UNL     1       7.183   0.785   0.058  0.00  0.00    +0.020 C 
ATOM     25  C   UNL     1       6.098   1.764   0.544  0.00  0.00    +0.106 C 
ENDBRANCH   6  21
BRANCH  15  26
ATOM     26  C   UNL     1      -2.113   7.428  -1.814  0.00  0.00    +0.131 C 
BRANCH  26  27
ATOM     27  C   UNL     1      -2.318   7.404  -3.330  0.00  0.00    -0.056 C 
BRANCH  27  28
ATOM     28  N   UNL     1      -3.297   8.433  -3.708  0.00  0.00    +0.377 N 
ATOM     29  C   UNL     1      -2.772   9.780  -3.447  0.00  0.00    -0.097 C 
ATOM     30  C   UNL     1      -3.698   8.287  -5.113  0.00  0.00    -0.097 C 
ATOM     31  H   UNL     1      -4.192   8.293  -3.084  0.00  0.00    -0.083 HD
ENDBRANCH  27  28
ENDBRANCH  26  27
ENDBRANCH  15  26
TORSDOF 4
