REMARK  Name = ZINC09442949
REMARK  8 active torsions:
REMARK  status: ('A' for Active; 'I' for Inactive)
REMARK    1  A    between atoms: C_1  and  C_2
REMARK    2  A    between atoms: C_2  and  C_3
REMARK    3  A    between atoms: C_3  and  N_52
REMARK    4  A    between atoms: C_4  and  C_5
REMARK    5  A    between atoms: C_4  and  N_52
REMARK    6  A    between atoms: N_7  and  C_8
REMARK    7  A    between atoms: C_16  and  N_17
REMARK    8  A    between atoms: C_16  and  N_52
REMARK                            x       y       z     vdW  Elec       q    Type
REMARK                         _______ _______ _______ _____ _____    ______ ____
ROOT
ATOM      1  N   UNL     1      -2.549   0.880  -0.264  0.00  0.00    +0.396 N 
ATOM      2  H   UNL     1      -2.560   0.247  -1.073  0.00  0.00    -0.079 HD
ENDROOT
BRANCH   1   3
ATOM      3  C   UNL     1      -2.385   0.082   0.969  0.00  0.00    -0.076 C 
BRANCH   3   5
ATOM      4  C   UNL     1      -3.244  -1.907   2.214  0.00  0.00    +0.002 C 
ATOM      5  C   UNL     1      -3.327  -1.122   0.903  0.00  0.00    -0.022 C 
ENDBRANCH   3   5
ENDBRANCH   1   3
BRANCH   1   6
ATOM      6  C   UNL     1      -1.421   1.825  -0.409  0.00  0.00    +0.021 C 
BRANCH   6   7
ATOM      7  C   UNL     1      -0.162   1.040  -0.673  0.00  0.00    +0.201 C 
ATOM      8  O   UNL     1      -0.200  -0.171  -0.718  0.00  0.00    -0.278 OA
ATOM      9  N   UNL     1       1.006   1.685  -0.865  0.00  0.00    -0.286 N 
ATOM     10  H   UNL     1       1.024   2.655  -0.903  0.00  0.00    +0.155 HD
BRANCH   9  11
ATOM     11  C   UNL     1       2.192   0.957  -1.009  0.00  0.00    +0.053 A 
ATOM     12  C   UNL     1       2.177  -0.281  -1.638  0.00  0.00    +0.044 A 
ATOM     13  C   UNL     1       3.351  -0.995  -1.783  0.00  0.00    +0.043 A 
ATOM     14  C   UNL     1       4.540  -0.483  -1.293  0.00  0.00    +0.021 A 
ATOM     15  C   UNL     1       4.557   0.747  -0.661  0.00  0.00    +0.023 A 
ATOM     16  C   UNL     1       3.387   1.468  -0.517  0.00  0.00    +0.062 A 
ATOM     17 CL   UNL     1       3.410   3.012   0.276  0.00  0.00    -0.082 Cl
ATOM     18 CL   UNL     1       3.334  -2.540  -2.575  0.00  0.00    -0.083 Cl
ENDBRANCH   9  11
ENDBRANCH   6   7
ENDBRANCH   1   6
BRANCH   1  19
ATOM     19  C   UNL     1      -3.827   1.623  -0.219  0.00  0.00    +0.043 C 
BRANCH  19  20
ATOM     20  N   UNL     1      -4.297   1.827  -1.591  0.00  0.00    -0.241 N 
ATOM     21  C   UNL     1      -5.114   0.975  -2.248  0.00  0.00    +0.245 C 
ATOM     22  O   UNL     1      -5.581  -0.064  -1.834  0.00  0.00    -0.273 OA
ATOM     23  C   UNL     1      -5.321   1.593  -3.608  0.00  0.00    +0.112 C 
ATOM     24  C   UNL     1      -6.806   1.887  -3.860  0.00  0.00    +0.035 C 
ATOM     25  C   UNL     1      -6.988   1.623  -5.377  0.00  0.00    +0.003 C 
ATOM     26  C   UNL     1      -6.068   0.402  -5.628  0.00  0.00    +0.003 C 
ATOM     27  C   UNL     1      -4.843   0.658  -4.722  0.00  0.00    +0.035 C 
ATOM     28  N   UNL     1      -4.536   2.828  -3.573  0.00  0.00    -0.285 N 
ATOM     29  C   UNL     1      -3.975   2.884  -2.348  0.00  0.00    +0.308 C 
ATOM     30  O   UNL     1      -3.256   3.789  -1.974  0.00  0.00    -0.252 OA
ATOM     31  H   UNL     1      -4.441   3.478  -4.287  0.00  0.00    +0.151 HD
ENDBRANCH  19  20
ENDBRANCH   1  19
TORSDOF 7
