REMARK  Name = ZINC40367141
REMARK  4 active torsions:
REMARK  status: ('A' for Active; 'I' for Inactive)
REMARK    1  A    between atoms: C_5  and  C_9
REMARK    2  A    between atoms: C_5  and  N_11
REMARK    3  A    between atoms: N_11  and  S_12
REMARK    4  A    between atoms: S_12  and  N_15
REMARK                            x       y       z     vdW  Elec       q    Type
REMARK                         _______ _______ _______ _____ _____    ______ ____
ROOT
ATOM      1  N   UNL     1       4.183  -1.257  -1.308  0.00  0.00    -0.160 NA
ATOM      2  H   UNL     1       4.250  -1.352  -2.271  0.00  0.00    +0.151 HD
ENDROOT
BRANCH   1   7
ATOM      3  C   UNL     1      -0.072   1.473  -0.489  0.00  0.00    +0.000 C 
ATOM      4  C   UNL     1       1.367   2.023  -0.380  0.00  0.00    +0.000 C 
ATOM      5  C   UNL     1       2.109   1.798  -1.706  0.00  0.00    +0.003 C 
ATOM      6  C   UNL     1       2.482   0.332  -1.908  0.00  0.00    +0.039 C 
ATOM      7  C   UNL     1       3.138  -0.369  -0.715  0.00  0.00    +0.127 C 
ATOM      8  C   UNL     1       2.094  -1.320  -0.119  0.00  0.00    +0.039 C 
ATOM      9  C   UNL     1       0.949  -0.558   0.582  0.00  0.00    +0.003 C 
ATOM     10  C   UNL     1      -0.040  -0.065  -0.478  0.00  0.00    +0.000 C 
BRANCH   7  11
ATOM     11  C   UNL     1       3.822   0.471   0.241  0.00  0.00    +0.086 C 
ATOM     12  N   UNL     1       4.360   1.132   0.992  0.00  0.00    -0.195 NA
ENDBRANCH   7  11
ENDBRANCH   1   7
BRANCH   1  13
ATOM     13  S   UNL     1       5.229  -2.080  -0.321  0.00  0.00    +0.098 S 
ATOM     14  O   UNL     1       4.564  -2.248   0.923  0.00  0.00    -0.141 OA
ATOM     15  O   UNL     1       5.721  -3.178  -1.077  0.00  0.00    -0.141 OA
BRANCH  13  16
ATOM     16  N   UNL     1       6.520  -1.083  -0.037  0.00  0.00    -0.167 NA
ATOM     17  C   UNL     1       7.552  -0.981  -1.045  0.00  0.00    +0.110 C 
ATOM     18  C   UNL     1       8.631  -2.064  -0.795  0.00  0.00    +0.017 C 
ATOM     19  C   UNL     1       9.421  -1.731   0.400  0.00  0.00    +0.001 C 
ATOM     20  C   UNL     1       8.616  -1.694   1.695  0.00  0.00    +0.001 C 
ATOM     21  C   UNL     1       7.981  -0.335   1.851  0.00  0.00    +0.017 C 
ATOM     22  C   UNL     1       6.568  -0.331   1.232  0.00  0.00    +0.110 C 
ENDBRANCH  13  16
ENDBRANCH   1  13
TORSDOF 4
