REMARK  Name = ZINC09262216
REMARK  6 active torsions:
REMARK  status: ('A' for Active; 'I' for Inactive)
REMARK    1  A    between atoms: C_1  and  C_2
REMARK    2  A    between atoms: C_2  and  O_3
REMARK    3  A    between atoms: O_3  and  C_4
REMARK    4  A    between atoms: C_4  and  C_6
REMARK    5  A    between atoms: C_8  and  C_22
REMARK    6  A    between atoms: C_25  and  O_28
REMARK                            x       y       z     vdW  Elec       q    Type
REMARK                         _______ _______ _______ _____ _____    ______ ____
ROOT
ATOM      1  C   UNL     1       1.425   1.973  -0.001  0.00  0.00    +0.211 C 
ATOM      2  C   UNL     1      -0.018   1.462   0.010  0.00  0.00    +0.143 C 
ATOM      3  N   UNL     1       0.002  -0.004   0.002  0.00  0.00    -0.303 N 
ATOM      4  C   UNL     1      -0.891  -0.896   0.519  0.00  0.00    +0.071 A 
ATOM      5  C   UNL     1      -2.081  -0.746   1.220  0.00  0.00    +0.028 A 
ATOM      6  C   UNL     1      -2.742  -1.904   1.597  0.00  0.00    +0.002 A 
ATOM      7  C   UNL     1      -2.251  -3.162   1.294  0.00  0.00    +0.002 A 
ATOM      8  C   UNL     1      -1.069  -3.338   0.598  0.00  0.00    +0.030 A 
ATOM      9  C   UNL     1      -0.383  -2.183   0.207  0.00  0.00    +0.091 A 
ATOM     10  N   UNL     1       0.771  -2.007  -0.467  0.00  0.00    -0.214 NA
ATOM     11  C   UNL     1       1.013  -0.730  -0.588  0.00  0.00    +0.204 A 
ATOM     12  N   UNL     1       2.100  -0.110  -1.188  0.00  0.00    -0.255 N 
ATOM     13  C   UNL     1       2.259   1.217  -0.997  0.00  0.00    +0.236 C 
ATOM     14  O   UNL     1       3.094   1.812  -1.643  0.00  0.00    -0.274 OA
ATOM     15  H   UNL     1       2.728  -0.615  -1.728  0.00  0.00    +0.158 HD
ENDROOT
BRANCH   2  16
ATOM     16  C   UNL     1      -0.742   1.964  -1.213  0.00  0.00    -0.023 A 
ATOM     17  C   UNL     1      -0.268   1.649  -2.473  0.00  0.00    +0.009 A 
ATOM     18  C   UNL     1      -0.933   2.103  -3.595  0.00  0.00    +0.046 A 
ATOM     19  C   UNL     1      -2.070   2.886  -3.457  0.00  0.00    +0.117 A 
ATOM     20  C   UNL     1      -2.540   3.205  -2.192  0.00  0.00    +0.046 A 
ATOM     21  C   UNL     1      -1.875   2.743  -1.072  0.00  0.00    +0.009 A 
BRANCH  19  22
ATOM     22  O   UNL     1      -2.723   3.338  -4.560  0.00  0.00    -0.507 OA
ATOM     23  H   UNL     1      -2.411   4.197  -4.877  0.00  0.00    +0.292 HD
ENDBRANCH  19  22
ENDBRANCH   2  16
BRANCH   1  24
ATOM     24  C   UNL     1       2.020   1.804   1.373  0.00  0.00    +0.322 C 
ATOM     25  O   UNL     1       1.359   1.325   2.263  0.00  0.00    -0.250 OA
BRANCH  24  26
ATOM     26  O   UNL     1       3.286   2.185   1.608  0.00  0.00    -0.464 OA
BRANCH  26  28
ATOM     27  C   UNL     1       5.241   2.482   3.029  0.00  0.00    +0.048 C 
ATOM     28  C   UNL     1       3.793   1.992   2.954  0.00  0.00    +0.229 C 
ENDBRANCH  26  28
ENDBRANCH  24  26
ENDBRANCH   1  24
TORSDOF 5
