REMARK  Name = ZINC12818744
REMARK  12 active torsions:
REMARK  status: ('A' for Active; 'I' for Inactive)
REMARK    1  A    between atoms: C_1  and  C_2
REMARK    2  A    between atoms: C_2  and  C_3
REMARK    3  A    between atoms: C_3  and  C_29
REMARK    4  A    between atoms: N_6  and  N_10
REMARK    5  A    between atoms: C_11  and  C_13
REMARK    6  A    between atoms: C_13  and  N_65
REMARK    7  A    between atoms: C_14  and  N_65
REMARK    8  A    between atoms: C_15  and  C_16
REMARK    9  A    between atoms: C_15  and  N_65
REMARK   10  A    between atoms: C_17  and  C_28
REMARK   11  A    between atoms: N_19  and  C_22
REMARK   12  A    between atoms: C_20  and  C_21
REMARK                            x       y       z     vdW  Elec       q    Type
REMARK                         _______ _______ _______ _____ _____    ______ ____
ROOT
ATOM      1  N   UNL     1       0.920   2.378  -0.412  0.00  0.00    -0.225 N 
ATOM      2  C   UNL     1      -0.190   1.614  -0.357  0.00  0.00    +0.213 C 
ATOM      3  O   UNL     1      -0.101   0.409  -0.452  0.00  0.00    -0.276 OA
ATOM      4  H   UNL     1       0.849   3.342  -0.336  0.00  0.00    +0.173 HD
ENDROOT
BRANCH   1   8
ATOM      5  C   UNL     1       4.152   1.031  -1.446  0.00  0.00    +0.139 C 
ATOM      6  C   UNL     1       2.872   1.791  -1.733  0.00  0.00    +0.268 C 
ATOM      7  O   UNL     1       2.544   2.303  -2.782  0.00  0.00    -0.271 OA
ATOM      8  N   UNL     1       2.175   1.778  -0.580  0.00  0.00    -0.137 N 
ATOM      9  C   UNL     1       2.832   1.127   0.387  0.00  0.00    +0.327 C 
ATOM     10  O   UNL     1       2.406   0.987   1.517  0.00  0.00    -0.251 OA
ATOM     11  N   UNL     1       4.015   0.642  -0.032  0.00  0.00    -0.280 N 
ATOM     12  H   UNL     1       4.654   0.139   0.495  0.00  0.00    +0.152 HD
BRANCH   5  13
ATOM     13  C   UNL     1       5.352   1.922  -1.640  0.00  0.00    -0.015 A 
ATOM     14  C   UNL     1       5.975   1.984  -2.873  0.00  0.00    +0.006 A 
ATOM     15  C   UNL     1       7.073   2.805  -3.052  0.00  0.00    +0.000 A 
ATOM     16  C   UNL     1       7.554   3.557  -1.996  0.00  0.00    +0.000 A 
ATOM     17  C   UNL     1       6.934   3.490  -0.762  0.00  0.00    +0.000 A 
ATOM     18  C   UNL     1       5.833   2.674  -0.584  0.00  0.00    +0.006 A 
ENDBRANCH   5  13
BRANCH   5  20
ATOM     19  C   UNL     1       3.052  -1.120  -2.083  0.00  0.00    +0.007 C 
ATOM     20  C   UNL     1       4.254  -0.208  -2.338  0.00  0.00    +0.037 C 
ENDBRANCH   5  20
ENDBRANCH   1   8
BRANCH   2  21
ATOM     21  C   UNL     1      -1.540   2.260  -0.183  0.00  0.00    +0.020 C 
BRANCH  21  23
ATOM     22  C   UNL     1      -2.679   0.547  -1.461  0.00  0.00    -0.095 C 
ATOM     23  N   UNL     1      -2.572   1.202  -0.140  0.00  0.00    +0.386 N 
ATOM     24  H   UNL     1      -2.301   0.500   0.559  0.00  0.00    -0.081 HD
BRANCH  23  25
ATOM     25  C   UNL     1      -3.876   1.784   0.243  0.00  0.00    -0.039 C 
BRANCH  25  26
ATOM     26  C   UNL     1      -4.853   0.664   0.493  0.00  0.00    -0.020 A 
ATOM     27  C   UNL     1      -5.066   0.015   1.714  0.00  0.00    +0.062 A 
ATOM     28  N   UNL     1      -5.987  -0.897   1.538  0.00  0.00    -0.171 NA
ATOM     29  N   UNL     1      -6.391  -0.859   0.198  0.00  0.00    -0.237 N 
ATOM     30  C   UNL     1      -5.683   0.112  -0.422  0.00  0.00    +0.043 A 
ATOM     31  C   UNL     1      -5.795   0.506  -1.872  0.00  0.00    +0.066 C 
ATOM     32  C   UNL     1      -4.356   0.315   3.010  0.00  0.00    +0.068 C 
BRANCH  29  33
ATOM     33  C   UNL     1      -7.362  -1.679  -0.396  0.00  0.00    +0.066 A 
ATOM     34  C   UNL     1      -8.539  -1.965   0.282  0.00  0.00    +0.028 A 
ATOM     35  C   UNL     1      -9.495  -2.768  -0.307  0.00  0.00    +0.002 A 
ATOM     36  C   UNL     1      -9.276  -3.297  -1.566  0.00  0.00    +0.000 A 
ATOM     37  C   UNL     1      -8.102  -3.018  -2.241  0.00  0.00    +0.002 A 
ATOM     38  C   UNL     1      -7.145  -2.211  -1.660  0.00  0.00    +0.028 A 
ENDBRANCH  29  33
ENDBRANCH  25  26
ENDBRANCH  23  25
ENDBRANCH  21  23
ENDBRANCH   2  21
TORSDOF 8
