REMARK  Name = ZINC00896736
REMARK  5 active torsions:
REMARK  status: ('A' for Active; 'I' for Inactive)
REMARK    1  A    between atoms: C_6  and  C_7
REMARK    2  A    between atoms: C_7  and  N_44
REMARK    3  A    between atoms: N_10  and  S_13
REMARK    4  A    between atoms: S_13  and  C_16
REMARK    5  A    between atoms: C_19  and  N_22
REMARK                            x       y       z     vdW  Elec       q    Type
REMARK                         _______ _______ _______ _____ _____    ______ ____
ROOT
ATOM      1  C   UNL     1       2.408  -2.343  -3.656  0.00  0.00    -0.061 C 
ATOM      2  C   UNL     1       2.481  -3.125  -2.341  0.00  0.00    +0.091 C 
ATOM      3  N   UNL     1       1.223  -2.923  -1.606  0.00  0.00    -0.180 NA
ATOM      4  C   UNL     1      -0.043  -3.166  -2.314  0.00  0.00    +0.091 C 
ATOM      5  C   UNL     1      -0.017  -2.376  -3.632  0.00  0.00    -0.061 C 
ATOM      6  N   UNL     1       1.194  -2.761  -4.390  0.00  0.00    +0.384 N 
ATOM      7  H   UNL     1       1.206  -3.782  -4.501  0.00  0.00    -0.081 HD
ENDROOT
BRANCH   3   8
ATOM      8  S   UNL     1       1.232  -2.441  -0.022  0.00  0.00    +0.061 S 
ATOM      9  O   UNL     1       2.489  -2.832   0.515  0.00  0.00    -0.153 OA
ATOM     10  O   UNL     1      -0.002  -2.866   0.539  0.00  0.00    -0.153 OA
BRANCH   8  11
ATOM     11  C   UNL     1       1.208  -0.679  -0.013  0.00  0.00    +0.106 A 
ATOM     12  C   UNL     1       0.002  -0.004   0.002  0.00  0.00    +0.031 A 
ATOM     13  C   UNL     1      -0.017   1.378   0.010  0.00  0.00    +0.034 A 
ATOM     14  C   UNL     1       1.171   2.086   0.002  0.00  0.00    +0.126 A 
ATOM     15  C   UNL     1       2.377   1.411  -0.015  0.00  0.00    +0.034 A 
ATOM     16  C   UNL     1       2.396   0.029  -0.021  0.00  0.00    +0.031 A 
BRANCH  14  17
ATOM     17  N   UNL     1       1.151   3.566   0.010  0.00  0.00    +0.056 N 
ATOM     18  O   UNL     1       0.088   4.160   0.023  0.00  0.00    -0.126 OA
ATOM     19  O   UNL     1       2.197   4.189   0.003  0.00  0.00    -0.126 OA
ENDBRANCH  14  17
ENDBRANCH   8  11
ENDBRANCH   3   8
BRANCH   6  20
ATOM     20  C   UNL     1       1.172  -2.134  -5.728  0.00  0.00    -0.043 C 
BRANCH  20  26
ATOM     21  C   UNL     1      -0.428  -3.477  -7.107  0.00  0.00    +0.003 A 
ATOM     22  C   UNL     1      -1.673  -3.675  -7.674  0.00  0.00    +0.020 A 
ATOM     23  C   UNL     1      -2.672  -2.736  -7.493  0.00  0.00    +0.041 A 
ATOM     24  C   UNL     1      -2.426  -1.601  -6.740  0.00  0.00    +0.020 A 
ATOM     25  C   UNL     1      -1.182  -1.407  -6.169  0.00  0.00    +0.003 A 
ATOM     26  C   UNL     1      -0.184  -2.346  -6.350  0.00  0.00    -0.064 A 
ATOM     27 CL   UNL     1      -4.234  -2.980  -8.210  0.00  0.00    -0.084 Cl
ENDBRANCH  20  26
ENDBRANCH   6  20
TORSDOF 5
