REMARK  Name = ZINC02680115
REMARK  5 active torsions:
REMARK  status: ('A' for Active; 'I' for Inactive)
REMARK    1  A    between atoms: C_12  and  S_14
REMARK    2  A    between atoms: S_14  and  C_15
REMARK    3  A    between atoms: C_15  and  C_16
REMARK    4  A    between atoms: N_18  and  C_19
REMARK    5  A    between atoms: C_20  and  C_27
REMARK                            x       y       z     vdW  Elec       q    Type
REMARK                         _______ _______ _______ _____ _____    ______ ____
ROOT
ATOM      1  C   UNL     1      -0.742   1.585  -1.213  0.00  0.00    +0.228 C 
ATOM      2  O   UNL     1      -1.736   2.268  -1.088  0.00  0.00    -0.275 OA
ATOM      3  N   UNL     1      -0.288   1.272  -2.443  0.00  0.00    -0.279 N 
ATOM      4  H   UNL     1       0.507   0.726  -2.543  0.00  0.00    +0.155 HD
ENDROOT
BRANCH   3   5
ATOM      5  C   UNL     1      -0.959   1.732  -3.566  0.00  0.00    +0.084 A 
ATOM      6  C   UNL     1      -0.648   1.523  -4.899  0.00  0.00    +0.068 A 
ATOM      7  C   UNL     1      -1.530   2.121  -5.902  0.00  0.00    -0.023 A 
ATOM      8  C   UNL     1      -2.560   2.829  -5.406  0.00  0.00    -0.004 A 
ATOM      9  S   UNL     1      -2.384   2.711  -3.643  0.00  0.00    -0.077 S 
ATOM     10  C   UNL     1      -3.418   3.414  -6.496  0.00  0.00    +0.043 C 
ATOM     11  C   UNL     1      -3.035   2.617  -7.762  0.00  0.00    +0.010 C 
ATOM     12  C   UNL     1      -1.598   2.168  -7.429  0.00  0.00    +0.037 C 
BRANCH   6  13
ATOM     13  C   UNL     1       0.520   0.729  -5.292  0.00  0.00    +0.244 C 
ATOM     14  O   UNL     1       0.412  -0.472  -5.457  0.00  0.00    -0.270 OA
ATOM     15  N   UNL     1       1.714   1.329  -5.469  0.00  0.00    -0.325 N 
ATOM     16  H   UNL     1       1.800   2.286  -5.337  0.00  0.00    +0.145 HD
ATOM     17  H   UNL     1       2.487   0.803  -5.728  0.00  0.00    +0.145 HD
ENDBRANCH   6  13
ENDBRANCH   3   5
BRANCH   1  18
ATOM     18  C   UNL     1      -0.013   1.086   0.008  0.00  0.00    +0.172 C 
BRANCH  18  19
ATOM     19  S   UNL     1      -0.860   1.669   1.497  0.00  0.00    -0.096 S 
BRANCH  19  31
ATOM     20  C   UNL     1       2.026  -0.311   3.293  0.00  0.00    +0.223 A 
ATOM     21  N   UNL     1       1.811  -0.162   4.587  0.00  0.00    -0.228 NA
ATOM     22  C   UNL     1       0.783   0.545   5.013  0.00  0.00    +0.113 A 
ATOM     23  C   UNL     1      -0.113   1.159   4.115  0.00  0.00    +0.043 A 
ATOM     24  C   UNL     1      -1.209   1.914   4.724  0.00  0.00    -0.025 A 
ATOM     25  C   UNL     1      -1.254   1.947   6.071  0.00  0.00    -0.004 A 
ATOM     26  S   UNL     1       0.139   0.989   6.605  0.00  0.00    -0.073 S 
ATOM     27  C   UNL     1      -2.266   2.644   6.929  0.00  0.00    +0.043 C 
ATOM     28  C   UNL     1      -3.044   3.635   6.051  0.00  0.00    +0.005 C 
ATOM     29  C   UNL     1      -3.482   2.918   4.771  0.00  0.00    +0.005 C 
ATOM     30  C   UNL     1      -2.263   2.638   3.891  0.00  0.00    +0.037 C 
ATOM     31  C   UNL     1       0.174   0.961   2.735  0.00  0.00    +0.109 A 
ATOM     32  N   UNL     1       1.226   0.231   2.394  0.00  0.00    -0.229 NA
ENDBRANCH  19  31
ENDBRANCH  18  19
ENDBRANCH   1  18
TORSDOF 5
