REMARK  Name = ZINC63557710
REMARK  5 active torsions:
REMARK  status: ('A' for Active; 'I' for Inactive)
REMARK    1  A    between atoms: C_8  and  N_11
REMARK    2  A    between atoms: C_12  and  C_14
REMARK    3  A    between atoms: N_19  and  C_21
REMARK    4  A    between atoms: C_21  and  C_22
REMARK    5  A    between atoms: C_22  and  C_23
REMARK                            x       y       z     vdW  Elec       q    Type
REMARK                         _______ _______ _______ _____ _____    ______ ____
ROOT
ATOM      1  C   UNL     1       4.274  -5.124   2.436  0.00  0.00    +0.101 C 
ATOM      2  C   UNL     1       3.130  -6.135   2.679  0.00  0.00    +0.110 C 
ATOM      3  C   UNL     1       3.831  -7.369   3.202  0.00  0.00    +0.216 C 
ATOM      4  O   UNL     1       3.285  -8.289   3.774  0.00  0.00    -0.276 OA
ATOM      5  N   UNL     1       5.148  -7.299   2.941  0.00  0.00    -0.300 N 
ATOM      6  C   UNL     1       5.484  -6.060   2.228  0.00  0.00    +0.121 C 
ENDROOT
BRANCH   1   8
ATOM      7  N   UNL     1       2.955  -3.464   1.161  0.00  0.00    -0.288 N 
ATOM      8  C   UNL     1       4.011  -4.300   1.201  0.00  0.00    +0.220 C 
ATOM      9  O   UNL     1       4.751  -4.389   0.244  0.00  0.00    -0.275 OA
ATOM     10  H   UNL     1       2.363  -3.392   1.927  0.00  0.00    +0.151 HD
BRANCH   7  18
ATOM     11  C   UNL     1      -0.017   1.371   0.010  0.00  0.00    +0.002 A 
ATOM     12  C   UNL     1       1.157   2.102   0.002  0.00  0.00    +0.001 A 
ATOM     13  C   UNL     1       2.367   1.427  -0.013  0.00  0.00    +0.016 A 
ATOM     14  C   UNL     1       2.384   0.051  -0.020  0.00  0.00    +0.032 A 
ATOM     15  C   UNL     1       1.215  -0.716  -0.013  0.00  0.00    +0.043 A 
ATOM     16  C   UNL     1       0.002  -0.004   0.002  0.00  0.00    +0.024 A 
ATOM     17  N   UNL     1       1.341  -2.104  -0.022  0.00  0.00    -0.316 N 
ATOM     18  C   UNL     1       2.700  -2.663  -0.039  0.00  0.00    +0.224 C 
ATOM     19  S   UNL     1       3.714  -1.130  -0.039  0.00  0.00    -0.082 S 
ATOM     20  H   UNL     1       0.560  -2.680  -0.018  0.00  0.00    +0.149 HD
ENDBRANCH   7  18
ENDBRANCH   1   8
BRANCH   5  21
ATOM     21  C   UNL     1       6.122  -8.325   3.319  0.00  0.00    +0.112 C 
BRANCH  21  22
ATOM     22  C   UNL     1       6.247  -9.350   2.190  0.00  0.00    +0.052 C 
BRANCH  22  23
ATOM     23  C   UNL     1       7.249 -10.406   2.580  0.00  0.00    -0.040 C 
ATOM     24  C   UNL     1       6.987 -11.607   3.146  0.00  0.00    +0.002 A 
ATOM     25  C   UNL     1       5.739 -12.262   3.553  0.00  0.00    +0.048 A 
ATOM     26  C   UNL     1       5.796 -13.496   4.107  0.00  0.00    +0.124 A 
ATOM     27  C   UNL     1       7.016 -14.162   4.300  0.00  0.00    +0.040 A 
ATOM     28  C   UNL     1       8.203 -13.623   3.952  0.00  0.00    +0.029 A 
ATOM     29  C   UNL     1       8.261 -12.330   3.361  0.00  0.00    +0.043 A 
ATOM     30  N   UNL     1       9.270 -11.606   2.944  0.00  0.00    -0.380 N 
ATOM     31  C   UNL     1       8.751 -10.342   2.410  0.00  0.00    +0.144 C 
ATOM     32  F   UNL     1       4.649 -14.102   4.484  0.00  0.00    -0.205 F 
ATOM     33  H   UNL     1      10.205 -11.864   2.978  0.00  0.00    +0.160 HD
ENDBRANCH  22  23
ENDBRANCH  21  22
ENDBRANCH   5  21
TORSDOF 5
