REMARK  Name = ZINC07384962
REMARK  7 active torsions:
REMARK  status: ('A' for Active; 'I' for Inactive)
REMARK    1  A    between atoms: C_1  and  C_2
REMARK    2  A    between atoms: C_7  and  C_8
REMARK    3  A    between atoms: C_10  and  C_13
REMARK    4  A    between atoms: C_13  and  N_14
REMARK    5  A    between atoms: C_17  and  C_23
REMARK    6  A    between atoms: C_18  and  C_22
REMARK    7  A    between atoms: C_19  and  C_21
REMARK                            x       y       z     vdW  Elec       q    Type
REMARK                         _______ _______ _______ _____ _____    ______ ____
ROOT
ATOM      1  C   UNL     1      -0.122  -0.120   2.567  0.00  0.00    +0.202 A 
ATOM      2  N   UNL     1       0.006  -0.736   3.756  0.00  0.00    -0.190 NA
ATOM      3  C   UNL     1      -0.110   0.129   4.722  0.00  0.00    +0.249 A 
ATOM      4  O   UNL     1      -0.317   1.339   4.186  0.00  0.00    -0.336 OA
ATOM      5  N   UNL     1      -0.316   1.159   2.777  0.00  0.00    -0.056 NA
ENDROOT
BRANCH   1  12
ATOM      6  C   UNL     1       2.011  -1.993   2.010  0.00  0.00    +0.044 C 
ATOM      7  C   UNL     1       0.975  -1.681   0.961  0.00  0.00    -0.040 A 
ATOM      8  C   UNL     1       1.035  -2.294  -0.274  0.00  0.00    +0.004 A 
ATOM      9  C   UNL     1       0.085  -2.008  -1.238  0.00  0.00    +0.000 A 
ATOM     10  C   UNL     1      -0.930  -1.107  -0.970  0.00  0.00    +0.001 A 
ATOM     11  C   UNL     1      -1.000  -0.489   0.262  0.00  0.00    +0.012 A 
ATOM     12  C   UNL     1      -0.048  -0.777   1.238  0.00  0.00    +0.025 A 
ENDBRANCH   1  12
BRANCH   3  13
ATOM     13  C   UNL     1      -0.025  -0.178   6.195  0.00  0.00    +0.246 C 
BRANCH  13  14
ATOM     14  N   UNL     1       1.366  -0.059   6.639  0.00  0.00    -0.219 N 
ATOM     15  C   UNL     1       1.810   1.131   7.091  0.00  0.00    +0.285 A 
ATOM     16  O   UNL     1       1.070   2.099   7.132  0.00  0.00    -0.265 OA
ATOM     17  C   UNL     1       3.207   1.234   7.533  0.00  0.00    +0.122 A 
ATOM     18  C   UNL     1       3.982   0.078   7.451  0.00  0.00    -0.005 A 
ATOM     19  C   UNL     1       3.377  -1.084   6.959  0.00  0.00    +0.063 A 
ATOM     20  N   UNL     1       2.126  -1.090   6.593  0.00  0.00    -0.173 NA
ATOM     21  C   UNL     1       4.184  -2.352   6.857  0.00  0.00    +0.068 C 
ATOM     22  C   UNL     1       5.427   0.080   7.880  0.00  0.00    +0.047 C 
BRANCH  17  23
ATOM     23  C   UNL     1       3.748   2.466   8.024  0.00  0.00    +0.105 C 
ATOM     24  N   UNL     1       4.177   3.443   8.414  0.00  0.00    -0.191 NA
ENDBRANCH  17  23
ENDBRANCH  13  14
ENDBRANCH   3  13
TORSDOF 4
