REMARK  Name = ZINC33514180
REMARK  8 active torsions:
REMARK  status: ('A' for Active; 'I' for Inactive)
REMARK    1  A    between atoms: C_1  and  C_2
REMARK    2  A    between atoms: C_5  and  C_12
REMARK    3  A    between atoms: C_9  and  C_10
REMARK    4  A    between atoms: C_9  and  C_11
REMARK    5  A    between atoms: N_14  and  N_15
REMARK    6  A    between atoms: N_15  and  C_16
REMARK    7  A    between atoms: C_19  and  N_25
REMARK    8  A    between atoms: C_21  and  N_22
REMARK                            x       y       z     vdW  Elec       q    Type
REMARK                         _______ _______ _______ _____ _____    ______ ____
ROOT
ATOM      1  C   UNL     1       2.226  -2.246   0.833  0.00  0.00    +0.237 C 
ATOM      2  O   UNL     1       3.196  -2.331   0.110  0.00  0.00    -0.274 OA
ATOM      3  N   UNL     1       2.020  -3.166   1.796  0.00  0.00    -0.236 N 
ATOM      4  H   UNL     1       1.244  -3.098   2.374  0.00  0.00    +0.173 HD
ENDROOT
BRANCH   1   9
ATOM      5  C   UNL     1       0.423   2.314   0.312  0.00  0.00    +0.013 C 
ATOM      6  C   UNL     1       0.495   0.791   0.438  0.00  0.00    -0.013 C 
ATOM      7  C   UNL     1      -0.851  -0.010   0.473  0.00  0.00    +0.009 C 
ATOM      8  C   UNL     1      -0.279  -1.450   0.638  0.00  0.00    +0.018 C 
ATOM      9  C   UNL     1       1.251  -1.111   0.655  0.00  0.00    +0.067 C 
ATOM     10  C   UNL     1       1.315   0.133   1.577  0.00  0.00    +0.079 C 
ATOM     11 BR   UNL     1       0.324  -0.084   3.261  0.00  0.00    -0.086 Br
ATOM     12  C   UNL     1       1.511  -0.009  -0.434  0.00  0.00    -0.013 C 
ATOM     13  C   UNL     1       2.928   0.567  -0.440  0.00  0.00    +0.012 C 
ATOM     14  C   UNL     1       0.997  -0.372  -1.829  0.00  0.00    +0.012 C 
ENDBRANCH   1   9
BRANCH   3  15
ATOM     15  N   UNL     1       2.927  -4.221   1.961  0.00  0.00    -0.262 N 
ATOM     16  H   UNL     1       3.703  -4.289   1.383  0.00  0.00    +0.170 HD
BRANCH  15  17
ATOM     17  C   UNL     1       2.714  -5.176   2.958  0.00  0.00    +0.075 A 
ATOM     18  C   UNL     1       1.666  -5.021   3.857  0.00  0.00    +0.029 A 
ATOM     19  C   UNL     1       1.458  -5.966   4.842  0.00  0.00    +0.035 A 
ATOM     20  C   UNL     1       2.291  -7.066   4.934  0.00  0.00    +0.128 A 
ATOM     21  C   UNL     1       3.336  -7.223   4.042  0.00  0.00    +0.067 A 
ATOM     22  C   UNL     1       3.546  -6.284   3.051  0.00  0.00    +0.150 A 
BRANCH  22  23
ATOM     23  N   UNL     1       4.660  -6.456   2.091  0.00  0.00    +0.058 N 
ATOM     24  O   UNL     1       4.511  -6.152   0.931  0.00  0.00    -0.126 OA
ATOM     25  O   UNL     1       5.719  -6.901   2.469  0.00  0.00    -0.126 OA
ENDBRANCH  22  23
BRANCH  20  26
ATOM     26  N   UNL     1       2.065  -8.077   5.992  0.00  0.00    +0.056 N 
ATOM     27  O   UNL     1       1.153  -7.941   6.773  0.00  0.00    -0.126 OA
ATOM     28  O   UNL     1       2.793  -9.039   6.074  0.00  0.00    -0.126 OA
ENDBRANCH  20  26
ENDBRANCH  15  17
ENDBRANCH   3  15
TORSDOF 5
