REMARK  Name = ZINC02239485
REMARK  5 active torsions:
REMARK  status: ('A' for Active; 'I' for Inactive)
REMARK    1  A    between atoms: C_7  and  C_19
REMARK    2  A    between atoms: N_9  and  C_10
REMARK    3  A    between atoms: C_10  and  C_11
REMARK    4  A    between atoms: N_26  and  C_29
REMARK    5  A    between atoms: C_29  and  C_30
REMARK                            x       y       z     vdW  Elec       q    Type
REMARK                         _______ _______ _______ _____ _____    ______ ____
ROOT
ATOM      1  C   UNL     1      -5.766   3.421   0.153  0.00  0.00    +0.001 A 
ATOM      2  C   UNL     1      -6.592   2.307   0.136  0.00  0.00    +0.002 A 
ATOM      3  C   UNL     1      -6.060   1.040   0.029  0.00  0.00    +0.026 A 
ATOM      4  C   UNL     1      -4.682   0.870  -0.061  0.00  0.00    +0.050 A 
ATOM      5  C   UNL     1      -3.849   1.999  -0.044  0.00  0.00    +0.007 A 
ATOM      6  C   UNL     1      -4.398   3.273   0.063  0.00  0.00    +0.010 A 
ATOM      7  C   UNL     1      -2.469   1.483  -0.155  0.00  0.00    +0.001 A 
ATOM      8  C   UNL     1      -2.580   0.105  -0.235  0.00  0.00    +0.095 A 
ATOM      9  N   UNL     1      -3.877  -0.246  -0.174  0.00  0.00    -0.342 N 
ENDROOT
BRANCH   7  10
ATOM     10  C   UNL     1      -1.280   2.241  -0.180  0.00  0.00    +0.028 C 
ATOM     11  C   UNL     1      -0.173   1.820   0.545  0.00  0.00    +0.100 C 
ATOM     12  C   UNL     1       1.131   2.493   0.416  0.00  0.00    +0.257 C 
ATOM     13  O   UNL     1       1.273   3.443  -0.330  0.00  0.00    -0.270 OA
ATOM     14  N   UNL     1       2.164   2.026   1.147  0.00  0.00    -0.236 N 
ATOM     15  C   UNL     1       2.022   0.980   1.973  0.00  0.00    +0.316 C 
ATOM     16  O   UNL     1       2.993   0.608   2.603  0.00  0.00    -0.252 OA
ATOM     17  N   UNL     1       0.867   0.322   2.139  0.00  0.00    -0.214 N 
ATOM     18  C   UNL     1      -0.251   0.678   1.472  0.00  0.00    +0.259 C 
ATOM     19  O   UNL     1      -1.294   0.072   1.632  0.00  0.00    -0.269 OA
ATOM     20  H   UNL     1       3.030   2.458   1.073  0.00  0.00    +0.159 HD
BRANCH  17  21
ATOM     21  C   UNL     1       0.815  -0.811   3.067  0.00  0.00    +0.192 C 
BRANCH  21  22
ATOM     22  C   UNL     1       1.148  -2.081   2.328  0.00  0.00    +0.123 A 
ATOM     23  C   UNL     1       2.379  -2.600   2.169  0.00  0.00    +0.046 A 
ATOM     24  C   UNL     1       2.229  -3.789   1.420  0.00  0.00    +0.041 A 
ATOM     25  C   UNL     1       0.917  -3.922   1.159  0.00  0.00    +0.195 A 
ATOM     26  O   UNL     1       0.267  -2.885   1.711  0.00  0.00    -0.466 OA
ENDBRANCH  21  22
ENDBRANCH  17  21
ENDBRANCH   7  10
BRANCH   9  27
ATOM     27  C   UNL     1      -4.369  -1.625  -0.226  0.00  0.00    +0.160 C 
BRANCH  27  28
ATOM     28  C   UNL     1      -4.077  -2.312   1.083  0.00  0.00    +0.009 A 
ATOM     29  C   UNL     1      -2.947  -3.100   1.214  0.00  0.00    +0.047 A 
ATOM     30  C   UNL     1      -2.677  -3.727   2.417  0.00  0.00    +0.020 A 
ATOM     31  C   UNL     1      -3.540  -3.574   3.486  0.00  0.00    +0.003 A 
ATOM     32  C   UNL     1      -4.672  -2.792   3.354  0.00  0.00    +0.020 A 
ATOM     33  C   UNL     1      -4.941  -2.160   2.152  0.00  0.00    +0.047 A 
ATOM     34 CL   UNL     1      -6.362  -1.177   1.987  0.00  0.00    -0.083 Cl
ATOM     35 CL   UNL     1      -1.865  -3.297  -0.130  0.00  0.00    -0.083 Cl
ENDBRANCH  27  28
ENDBRANCH   9  27
TORSDOF 5
