REMARK  Name = ZINC38850135
REMARK  9 active torsions:
REMARK  status: ('A' for Active; 'I' for Inactive)
REMARK    1  A    between atoms: C_1  and  N_2
REMARK    2  A    between atoms: N_2  and  C_3
REMARK    3  A    between atoms: N_2  and  S_6
REMARK    4  A    between atoms: S_6  and  C_9
REMARK    5  A    between atoms: C_12  and  C_15
REMARK    6  A    between atoms: N_17  and  C_18
REMARK    7  A    between atoms: C_19  and  C_34
REMARK    8  A    between atoms: N_24  and  C_27
REMARK    9  A    between atoms: C_27  and  C_28
REMARK                            x       y       z     vdW  Elec       q    Type
REMARK                         _______ _______ _______ _____ _____    ______ ____
ROOT
ATOM      1  C   UNL     1       7.720  -2.918  -3.011  0.00  0.00    +0.085 A 
ATOM      2  C   UNL     1       8.549  -3.988  -2.704  0.00  0.00    +0.068 A 
ATOM      3  C   UNL     1       9.904  -3.942  -3.217  0.00  0.00    -0.021 A 
ATOM      4  C   UNL     1      10.187  -2.835  -3.941  0.00  0.00    +0.010 A 
ATOM      5  S   UNL     1       8.685  -1.903  -3.938  0.00  0.00    -0.076 S 
ATOM      6  C   UNL     1      11.496  -2.511  -4.589  0.00  0.00    +0.127 C 
ATOM      7  N   UNL     1      12.524  -3.402  -4.017  0.00  0.00    -0.293 NA
ATOM      8  C   UNL     1      12.073  -4.800  -4.036  0.00  0.00    +0.090 C 
ATOM      9  C   UNL     1      10.966  -5.010  -2.998  0.00  0.00    +0.052 C 
ENDROOT
BRANCH   2  10
ATOM     10  C   UNL     1       8.074  -5.117  -1.898  0.00  0.00    +0.244 C 
ATOM     11  O   UNL     1       7.564  -6.080  -2.439  0.00  0.00    -0.270 OA
ATOM     12  N   UNL     1       8.204  -5.088  -0.556  0.00  0.00    -0.325 N 
ATOM     13  H   UNL     1       8.611  -4.320  -0.125  0.00  0.00    +0.145 HD
ATOM     14  H   UNL     1       7.891  -5.834  -0.023  0.00  0.00    +0.145 HD
ENDBRANCH   2  10
BRANCH   1  17
ATOM     15  C   UNL     1       5.736  -1.627  -3.036  0.00  0.00    +0.249 C 
ATOM     16  O   UNL     1       6.300  -0.791  -3.715  0.00  0.00    -0.270 OA
ATOM     17  N   UNL     1       6.397  -2.733  -2.641  0.00  0.00    -0.275 N 
ATOM     18  H   UNL     1       5.947  -3.400  -2.099  0.00  0.00    +0.156 HD
BRANCH  15  22
ATOM     19  C   UNL     1       1.682  -1.059  -1.905  0.00  0.00    +0.106 A 
ATOM     20  C   UNL     1       2.321  -0.106  -2.678  0.00  0.00    +0.029 A 
ATOM     21  C   UNL     1       3.638  -0.284  -3.049  0.00  0.00    +0.015 A 
ATOM     22  C   UNL     1       4.326  -1.429  -2.642  0.00  0.00    +0.037 A 
ATOM     23  C   UNL     1       3.675  -2.387  -1.862  0.00  0.00    +0.015 A 
ATOM     24  C   UNL     1       2.359  -2.194  -1.494  0.00  0.00    +0.029 A 
BRANCH  19  25
ATOM     25  S   UNL     1      -0.000  -0.824  -1.437  0.00  0.00    +0.061 S 
ATOM     26  O   UNL     1      -0.531  -2.115  -1.167  0.00  0.00    -0.153 OA
ATOM     27  O   UNL     1      -0.572   0.049  -2.401  0.00  0.00    -0.153 OA
BRANCH  25  29
ATOM     28  C   UNL     1      -0.018   1.461   0.010  0.00  0.00    +0.132 C 
ATOM     29  N   UNL     1       0.002  -0.004   0.002  0.00  0.00    -0.177 NA
BRANCH  29  30
ATOM     30  C   UNL     1       0.024  -0.743   1.267  0.00  0.00    +0.080 C 
ATOM     31  C   UNL     1      -0.178   0.056   2.556  0.00  0.00    +0.022 C 
ATOM     32  C   UNL     1       1.205  -0.498   2.208  0.00  0.00    +0.022 C 
ENDBRANCH  29  30
ENDBRANCH  25  29
ENDBRANCH  19  25
ENDBRANCH  15  22
ENDBRANCH   1  17
BRANCH   7  33
ATOM     33  C   UNL     1      13.803  -3.252  -4.724  0.00  0.00    +0.120 C 
BRANCH  33  34
ATOM     34  C   UNL     1      14.352  -1.869  -4.482  0.00  0.00    -0.033 A 
ATOM     35  C   UNL     1      14.017  -0.834  -5.335  0.00  0.00    +0.005 A 
ATOM     36  C   UNL     1      14.521   0.434  -5.112  0.00  0.00    +0.000 A 
ATOM     37  C   UNL     1      15.358   0.667  -4.037  0.00  0.00    +0.000 A 
ATOM     38  C   UNL     1      15.692  -0.368  -3.184  0.00  0.00    +0.000 A 
ATOM     39  C   UNL     1      15.185  -1.636  -3.404  0.00  0.00    +0.005 A 
ENDBRANCH  33  34
ENDBRANCH   7  33
TORSDOF 8
