REMARK  Name = ZINC19503451
REMARK  7 active torsions:
REMARK  status: ('A' for Active; 'I' for Inactive)
REMARK    1  A    between atoms: C_1  and  C_2
REMARK    2  A    between atoms: C_2  and  C_3
REMARK    3  A    between atoms: C_3  and  N_4
REMARK    4  A    between atoms: N_7  and  C_10
REMARK    5  A    between atoms: C_10  and  C_12
REMARK    6  A    between atoms: C_10  and  C_27
REMARK    7  A    between atoms: N_31  and  C_32
REMARK                            x       y       z     vdW  Elec       q    Type
REMARK                         _______ _______ _______ _____ _____    ______ ____
ROOT
ATOM      1  C   UNL     1      -1.445   3.591  -2.413  0.00  0.00    +0.162 C 
ENDROOT
BRANCH   1   2
ATOM      2  C   UNL     1      -1.591   5.086  -2.291  0.00  0.00    +0.042 A 
ATOM      3  C   UNL     1      -2.812   5.660  -2.442  0.00  0.00    +0.021 A 
ATOM      4  C   UNL     1      -2.922   7.113  -2.318  0.00  0.00    +0.003 A 
ATOM      5  C   UNL     1      -4.156   7.759  -2.462  0.00  0.00    +0.059 A 
ATOM      6  C   UNL     1      -4.228   9.129  -2.339  0.00  0.00    +0.167 A 
ATOM      7  C   UNL     1      -3.073   9.875  -2.071  0.00  0.00    +0.168 A 
ATOM      8  C   UNL     1      -1.851   9.246  -1.928  0.00  0.00    +0.075 A 
ATOM      9  C   UNL     1      -1.762   7.864  -2.048  0.00  0.00    +0.053 A 
ATOM     10  N   UNL     1      -0.550   7.219  -1.907  0.00  0.00    -0.322 N 
ATOM     11  H   UNL     1       0.362   7.800  -1.701  0.00  0.00    +0.169 HD
ATOM     12  C   UNL     1      -0.461   5.882  -2.016  0.00  0.00    +0.254 A 
ATOM     13  O   UNL     1       0.625   5.345  -1.879  0.00  0.00    -0.268 OA
ATOM     14  O   UNL     1      -3.418  11.194  -1.999  0.00  0.00    -0.453 OA
ATOM     15  C   UNL     1      -4.845  11.210  -1.815  0.00  0.00    +0.466 C 
ATOM     16  O   UNL     1      -5.287   9.987  -2.432  0.00  0.00    -0.453 OA
ENDBRANCH   1   2
BRANCH   1  20
ATOM     17  N   UNL     1      -0.701   1.560   1.216  0.00  0.00    +0.381 N 
ATOM     18  C   UNL     1      -0.013   1.086   0.008  0.00  0.00    -0.063 C 
ATOM     19  C   UNL     1      -0.754   1.593  -1.231  0.00  0.00    +0.067 C 
ATOM     20  N   UNL     1      -0.806   3.062  -1.200  0.00  0.00    -0.292 NA
ATOM     21  C   UNL     1      -1.495   3.536   0.008  0.00  0.00    +0.067 C 
ATOM     22  C   UNL     1      -0.754   3.029   1.247  0.00  0.00    -0.063 C 
ATOM     23  H   UNL     1      -1.735   1.184   1.189  0.00  0.00    -0.082 HD
BRANCH  17  24
ATOM     24  C   UNL     1      -0.062   1.031   2.429  0.00  0.00    -0.079 C 
BRANCH  24  26
ATOM     25  C   UNL     1       0.025   1.183   4.921  0.00  0.00    +0.002 C 
ATOM     26  C   UNL     1      -0.640   1.734   3.658  0.00  0.00    -0.022 C 
ENDBRANCH  24  26
ENDBRANCH  17  24
ENDBRANCH   1  20
BRANCH   1  27
ATOM     27  C   UNL     1      -0.592   3.266  -3.612  0.00  0.00    +0.173 A 
ATOM     28  N   UNL     1       0.708   3.402  -3.709  0.00  0.00    -0.111 NA
ATOM     29  N   UNL     1       1.062   3.017  -4.886  0.00  0.00    -0.023 NA
ATOM     30  N   UNL     1       0.021   2.646  -5.546  0.00  0.00    -0.044 NA
ATOM     31  N   UNL     1      -1.019   2.784  -4.795  0.00  0.00    -0.224 N 
BRANCH  31  32
ATOM     32  C   UNL     1      -2.404   2.475  -5.160  0.00  0.00    +0.111 C 
ATOM     33  C   UNL     1      -2.518   0.993  -5.520  0.00  0.00    +0.027 C 
ATOM     34  C   UNL     1      -3.964   0.670  -5.902  0.00  0.00    +0.002 C 
ATOM     35  C   UNL     1      -4.376   1.521  -7.105  0.00  0.00    +0.000 C 
ATOM     36  C   UNL     1      -4.262   3.003  -6.744  0.00  0.00    +0.002 C 
ATOM     37  C   UNL     1      -2.816   3.326  -6.363  0.00  0.00    +0.027 C 
ENDBRANCH  31  32
ENDBRANCH   1  27
TORSDOF 6
