REMARK  Name = ZINC35377798
REMARK  10 active torsions:
REMARK  status: ('A' for Active; 'I' for Inactive)
REMARK    1  A    between atoms: C_1  and  C_2
REMARK    2  A    between atoms: C_2  and  C_3
REMARK    3  A    between atoms: C_3  and  N_4
REMARK    4  A    between atoms: C_5  and  C_7
REMARK    5  A    between atoms: C_7  and  C_8
REMARK    6  A    between atoms: C_11  and  N_14
REMARK    7  A    between atoms: N_23  and  C_26
REMARK    8  A    between atoms: C_26  and  C_27
REMARK    9  A    between atoms: N_29  and  C_30
REMARK   10  A    between atoms: C_30  and  C_31
REMARK                            x       y       z     vdW  Elec       q    Type
REMARK                         _______ _______ _______ _____ _____    ______ ____
ROOT
ATOM      1  N   UNL     1      -7.875  -6.159   0.044  0.00  0.00    -0.228 N 
ATOM      2  C   UNL     1      -8.453  -6.481   1.222  0.00  0.00    +0.269 A 
ATOM      3  O   UNL     1      -7.848  -6.355   2.269  0.00  0.00    -0.266 OA
ATOM      4  C   UNL     1      -9.836  -6.989   1.204  0.00  0.00    +0.064 A 
ATOM      5  C   UNL     1     -10.502  -7.342   2.376  0.00  0.00    +0.015 A 
ATOM      6  C   UNL     1     -11.797  -7.812   2.307  0.00  0.00    +0.001 A 
ATOM      7  C   UNL     1     -12.434  -7.934   1.081  0.00  0.00    +0.002 A 
ATOM      8  C   UNL     1     -11.786  -7.588  -0.087  0.00  0.00    +0.027 A 
ATOM      9  C   UNL     1     -10.484  -7.113  -0.037  0.00  0.00    +0.059 A 
ATOM     10  N   UNL     1      -9.797  -6.753  -1.187  0.00  0.00    -0.284 N 
ATOM     11  C   UNL     1      -8.537  -6.290  -1.116  0.00  0.00    +0.337 A 
ATOM     12  O   UNL     1      -7.972  -5.981  -2.147  0.00  0.00    -0.246 OA
ENDROOT
BRANCH   1  16
ATOM     13  C   UNL     1      -3.965  -4.715   0.016  0.00  0.00    -0.038 A 
ATOM     14  C   UNL     1      -5.025  -3.834   0.127  0.00  0.00    +0.006 A 
ATOM     15  C   UNL     1      -6.322  -4.310   0.137  0.00  0.00    +0.027 A 
ATOM     16  C   UNL     1      -6.561  -5.674   0.034  0.00  0.00    +0.054 A 
ATOM     17  C   UNL     1      -5.494  -6.556  -0.077  0.00  0.00    +0.027 A 
ATOM     18  C   UNL     1      -4.200  -6.074  -0.091  0.00  0.00    +0.006 A 
BRANCH  13  19
ATOM     19  C   UNL     1      -2.551  -4.193   0.006  0.00  0.00    +0.130 C 
BRANCH  19  21
ATOM     20  N   UNL     1      -0.902  -3.418  -1.666  0.00  0.00    -0.315 N 
ATOM     21  C   UNL     1      -2.135  -3.898  -1.412  0.00  0.00    +0.217 C 
ATOM     22  O   UNL     1      -2.910  -4.093  -2.325  0.00  0.00    -0.275 OA
ATOM     23  H   UNL     1      -0.282  -3.263  -0.937  0.00  0.00    +0.149 HD
BRANCH  20  24
ATOM     24  C   UNL     1      -0.497  -3.131  -3.045  0.00  0.00    +0.104 C 
BRANCH  24  26
ATOM     25  C   UNL     1       1.361  -2.301  -4.495  0.00  0.00    +0.005 C 
ATOM     26  C   UNL     1       0.938  -2.601  -3.055  0.00  0.00    +0.015 C 
ENDBRANCH  24  26
ENDBRANCH  20  24
ENDBRANCH  19  21
ENDBRANCH  13  19
ENDBRANCH   1  16
BRANCH  10  27
ATOM     27  C   UNL     1     -10.453  -6.874  -2.492  0.00  0.00    +0.222 C 
BRANCH  27  28
ATOM     28  C   UNL     1     -11.167  -5.587  -2.816  0.00  0.00    +0.233 C 
ATOM     29  O   UNL     1     -11.132  -4.660  -2.035  0.00  0.00    -0.274 OA
ATOM     30  N   UNL     1     -11.845  -5.466  -3.975  0.00  0.00    -0.310 N 
ATOM     31  H   UNL     1     -11.873  -6.208  -4.600  0.00  0.00    +0.149 HD
BRANCH  30  32
ATOM     32  C   UNL     1     -12.539  -4.216  -4.290  0.00  0.00    +0.139 C 
BRANCH  32  33
ATOM     33  C   UNL     1     -13.214  -4.340  -5.632  0.00  0.00    -0.030 A 
ATOM     34  C   UNL     1     -12.533  -3.989  -6.783  0.00  0.00    +0.006 A 
ATOM     35  C   UNL     1     -13.151  -4.103  -8.014  0.00  0.00    +0.020 A 
ATOM     36  C   UNL     1     -14.451  -4.569  -8.094  0.00  0.00    +0.041 A 
ATOM     37  C   UNL     1     -15.132  -4.920  -6.942  0.00  0.00    +0.020 A 
ATOM     38  C   UNL     1     -14.511  -4.811  -5.713  0.00  0.00    +0.006 A 
ATOM     39 CL   UNL     1     -15.228  -4.711  -9.640  0.00  0.00    -0.084 Cl
ENDBRANCH  32  33
ENDBRANCH  30  32
ENDBRANCH  27  28
ENDBRANCH  10  27
TORSDOF 9
