REMARK  Name = ZINC34750217
REMARK  9 active torsions:
REMARK  status: ('A' for Active; 'I' for Inactive)
REMARK    1  A    between atoms: C_1  and  C_2
REMARK    2  A    between atoms: C_2  and  C_3
REMARK    3  A    between atoms: C_3  and  C_4
REMARK    4  A    between atoms: C_4  and  N_5
REMARK    5  A    between atoms: C_18  and  S_20
REMARK    6  A    between atoms: S_20  and  C_21
REMARK    7  A    between atoms: C_21  and  C_22
REMARK    8  A    between atoms: C_32  and  C_34
REMARK    9  A    between atoms: C_32  and  C_35
REMARK                            x       y       z     vdW  Elec       q    Type
REMARK                         _______ _______ _______ _____ _____    ______ ____
ROOT
ATOM      1  N   UNL     1       1.951  -1.629   3.324  0.00  0.00    +0.382 N 
ATOM      2  C   UNL     1       2.543  -1.822   4.654  0.00  0.00    -0.060 C 
ATOM      3  C   UNL     1       2.653  -3.321   4.951  0.00  0.00    +0.088 C 
ATOM      4  N   UNL     1       3.399  -3.960   3.855  0.00  0.00    -0.318 N 
ATOM      5  C   UNL     1       2.971  -3.688   2.474  0.00  0.00    +0.088 C 
ATOM      6  C   UNL     1       2.846  -2.171   2.295  0.00  0.00    -0.060 C 
ATOM      7  C   UNL     1       4.472  -4.793   4.116  0.00  0.00    +0.134 A 
ATOM      8  C   UNL     1       4.259  -6.169   4.412  0.00  0.00    +0.051 A 
ATOM      9  C   UNL     1       2.999  -6.905   4.495  0.00  0.00    -0.020 A 
ATOM     10  C   UNL     1       3.073  -8.219   4.796  0.00  0.00    +0.021 A 
ATOM     11  S   UNL     1       4.801  -8.552   4.985  0.00  0.00    -0.071 S 
ATOM     12  C   UNL     1       5.424  -6.923   4.660  0.00  0.00    +0.115 A 
ATOM     13  N   UNL     1       6.624  -6.376   4.619  0.00  0.00    -0.214 NA
ATOM     14  C   UNL     1       6.761  -5.087   4.338  0.00  0.00    +0.191 A 
ATOM     15  N   UNL     1       5.706  -4.320   4.088  0.00  0.00    -0.206 NA
ATOM     16  C   UNL     1       1.918  -9.162   4.935  0.00  0.00    +0.203 C 
ATOM     17  O   UNL     1       0.716  -8.381   5.010  0.00  0.00    -0.368 OA
ATOM     18  C   UNL     1       0.622  -7.380   3.993  0.00  0.00    +0.068 C 
ATOM     19  C   UNL     1       1.634  -6.262   4.259  0.00  0.00    +0.071 C 
ATOM     20  C   UNL     1       0.912  -8.013   2.630  0.00  0.00    +0.041 C 
ATOM     21  C   UNL     1      -0.791  -6.794   3.986  0.00  0.00    +0.041 C 
ATOM     22  H   UNL     1       1.063  -2.107   3.282  0.00  0.00    -0.082 HD
ENDROOT
BRANCH   1  23
ATOM     23  C   UNL     1       1.745  -0.195   3.086  0.00  0.00    -0.079 C 
BRANCH  23  24
ATOM     24  C   UNL     1       0.716   0.345   4.081  0.00  0.00    -0.019 C 
BRANCH  24  26
ATOM     25  C   UNL     1      -0.528   2.380   4.828  0.00  0.00    +0.004 C 
ATOM     26  C   UNL     1       0.501   1.840   3.832  0.00  0.00    -0.005 C 
ENDBRANCH  24  26
ENDBRANCH  23  24
ENDBRANCH   1  23
BRANCH  14  27
ATOM     27  S   UNL     1       8.375  -4.380   4.289  0.00  0.00    -0.077 S 
BRANCH  27  28
ATOM     28  C   UNL     1       9.475  -5.770   4.676  0.00  0.00    +0.173 C 
BRANCH  28  29
ATOM     29  C   UNL     1      10.905  -5.296   4.667  0.00  0.00    +0.226 C 
ATOM     30  O   UNL     1      11.158  -4.135   4.423  0.00  0.00    -0.275 OA
ATOM     31  N   UNL     1      11.904  -6.162   4.930  0.00  0.00    -0.296 N 
ATOM     32  C   UNL     1      11.622  -7.577   5.222  0.00  0.00    +0.136 C 
ATOM     33  C   UNL     1      12.512  -8.443   4.324  0.00  0.00    +0.179 C 
ATOM     34  O   UNL     1      13.872  -8.024   4.465  0.00  0.00    -0.377 OA
ATOM     35  C   UNL     1      14.116  -6.678   4.048  0.00  0.00    +0.179 C 
ATOM     36  C   UNL     1      13.308  -5.723   4.927  0.00  0.00    +0.136 C 
ENDBRANCH  28  29
ENDBRANCH  27  28
ENDBRANCH  14  27
TORSDOF 6
