REMARK  Name = ZINC64741648
REMARK  7 active torsions:
REMARK  status: ('A' for Active; 'I' for Inactive)
REMARK    1  A    between atoms: C_1  and  C_2
REMARK    2  A    between atoms: C_5  and  C_8
REMARK    3  A    between atoms: C_8  and  S_9
REMARK    4  A    between atoms: S_9  and  C_10
REMARK    5  A    between atoms: C_16  and  C_24
REMARK    6  A    between atoms: N_26  and  C_27
REMARK    7  A    between atoms: C_32  and  C_33
REMARK                            x       y       z     vdW  Elec       q    Type
REMARK                         _______ _______ _______ _____ _____    ______ ____
ROOT
ATOM      1  C   UNL     1       1.633  -6.615  -0.044  0.00  0.00    +0.182 C 
ATOM      2  N   UNL     1       0.416  -7.132  -0.053  0.00  0.00    -0.154 NA
ATOM      3  C   UNL     1       0.204  -8.447  -0.126  0.00  0.00    +0.249 C 
ATOM      4  O   UNL     1      -0.918  -8.915  -0.107  0.00  0.00    -0.273 OA
ATOM      5  C   UNL     1       1.430  -9.329  -0.235  0.00  0.00    +0.153 C 
ATOM      6  C   UNL     1       1.383 -10.358   0.896  0.00  0.00    +0.103 C 
ATOM      7  C   UNL     1       2.523 -11.360   0.695  0.00  0.00    +0.110 C 
ATOM      8  C   UNL     1       3.823 -10.652   0.448  0.00  0.00    +0.219 C 
ATOM      9  O   UNL     1       4.856 -11.264   0.614  0.00  0.00    -0.275 OA
ATOM     10  N   UNL     1       3.893  -9.371   0.049  0.00  0.00    -0.273 N 
ATOM     11  C   UNL     1       2.767  -8.623  -0.108  0.00  0.00    +0.117 C 
ATOM     12  N   UNL     1       2.770  -7.322  -0.047  0.00  0.00    -0.212 NA
ATOM     13  H   UNL     1       4.758  -8.975  -0.142  0.00  0.00    +0.156 HD
ENDROOT
BRANCH   6  14
ATOM     14  C   UNL     1       1.546  -9.661   2.222  0.00  0.00    +0.222 C 
ATOM     15  O   UNL     1       1.687  -8.457   2.260  0.00  0.00    -0.275 OA
ATOM     16  N   UNL     1       1.535 -10.374   3.365  0.00  0.00    -0.285 N 
ATOM     17  H   UNL     1       1.343 -11.325   3.342  0.00  0.00    +0.155 HD
BRANCH  16  18
ATOM     18  C   UNL     1       1.802  -9.745   4.586  0.00  0.00    +0.038 A 
ATOM     19  C   UNL     1       2.557  -8.579   4.617  0.00  0.00    +0.043 A 
ATOM     20  C   UNL     1       2.818  -7.959   5.825  0.00  0.00    +0.043 A 
ATOM     21  C   UNL     1       2.328  -8.499   7.001  0.00  0.00    +0.020 A 
ATOM     22  C   UNL     1       1.577  -9.660   6.972  0.00  0.00    +0.006 A 
ATOM     23  C   UNL     1       1.308 -10.280   5.768  0.00  0.00    -0.029 A 
ATOM     24  C   UNL     1       0.484 -11.542   5.737  0.00  0.00    +0.045 C 
ATOM     25 CL   UNL     1       3.761  -6.502   5.866  0.00  0.00    -0.083 Cl
ENDBRANCH  16  18
ENDBRANCH   6  14
BRANCH   1  26
ATOM     26  S   UNL     1       1.769  -4.859  -0.036  0.00  0.00    -0.084 S 
BRANCH  26  27
ATOM     27  C   UNL     1       0.048  -4.285  -0.034  0.00  0.00    +0.112 C 
BRANCH  27  32
ATOM     28  C   UNL     1      -0.061   1.492  -0.006  0.00  0.00    +0.044 C 
ATOM     29  C   UNL     1      -0.033  -0.014  -0.014  0.00  0.00    -0.050 A 
ATOM     30  C   UNL     1      -0.018  -0.700  -1.214  0.00  0.00    +0.003 A 
ATOM     31  C   UNL     1       0.008  -2.082  -1.221  0.00  0.00    +0.005 A 
ATOM     32  C   UNL     1       0.020  -2.779  -0.027  0.00  0.00    -0.037 A 
ATOM     33  C   UNL     1       0.006  -2.093   1.174  0.00  0.00    +0.005 A 
ATOM     34  C   UNL     1      -0.015  -0.711   1.180  0.00  0.00    +0.003 A 
ENDBRANCH  27  32
ENDBRANCH  26  27
ENDBRANCH   1  26
TORSDOF 5
