REMARK  Name = ZINC05865526
REMARK  6 active torsions:
REMARK  status: ('A' for Active; 'I' for Inactive)
REMARK    1  A    between atoms: C_1  and  C_2
REMARK    2  A    between atoms: C_5  and  S_13
REMARK    3  A    between atoms: N_6  and  C_7
REMARK    4  A    between atoms: S_13  and  C_14
REMARK    5  A    between atoms: C_14  and  C_15
REMARK    6  A    between atoms: N_20  and  C_21
REMARK                            x       y       z     vdW  Elec       q    Type
REMARK                         _______ _______ _______ _____ _____    ______ ____
ROOT
ATOM      1  C   UNL     1       2.418   4.152   0.001  0.00  0.00    +0.173 C 
ENDROOT
BRANCH   1   2
ATOM      2  C   UNL     1       1.123   3.381   0.009  0.00  0.00    +0.231 C 
ATOM      3  O   UNL     1       0.065   3.973   0.023  0.00  0.00    -0.274 OA
ATOM      4  N   UNL     1       1.142   2.033   0.002  0.00  0.00    -0.239 N 
ATOM      5  C   UNL     1      -0.016   1.344   0.009  0.00  0.00    +0.306 C 
ATOM      6  O   UNL     1      -1.077   1.937   0.018  0.00  0.00    -0.252 OA
ATOM      7  N   UNL     1       0.002  -0.004   0.002  0.00  0.00    -0.296 N 
ATOM      8  H   UNL     1       1.988   1.560  -0.009  0.00  0.00    +0.159 HD
ATOM      9  H   UNL     1       0.849  -0.478  -0.009  0.00  0.00    +0.151 HD
BRANCH   7  10
ATOM     10  C   UNL     1      -1.256  -0.754   0.010  0.00  0.00    +0.074 C 
ATOM     11  C   UNL     1      -1.745  -0.914   1.451  0.00  0.00    +0.022 C 
ATOM     12  C   UNL     1      -3.060  -1.697   1.459  0.00  0.00    +0.002 C 
ATOM     13  C   UNL     1      -2.835  -3.078   0.840  0.00  0.00    +0.000 C 
ATOM     14  C   UNL     1      -2.346  -2.918  -0.601  0.00  0.00    +0.002 C 
ATOM     15  C   UNL     1      -1.032  -2.135  -0.609  0.00  0.00    +0.022 C 
ENDBRANCH   7  10
ENDBRANCH   1   2
BRANCH   1  16
ATOM     16  S   UNL     1       2.063   5.927   0.014  0.00  0.00    -0.077 S 
BRANCH  16  21
ATOM     17  C   UNL     1       6.311   9.120  -0.009  0.00  0.00    +0.088 C 
ATOM     18  C   UNL     1       5.430   7.898  -0.007  0.00  0.00    +0.131 A 
ATOM     19  N   UNL     1       5.829   6.658  -0.018  0.00  0.00    -0.134 NA
ATOM     20  N   UNL     1       4.816   5.867  -0.013  0.00  0.00    -0.122 NA
ATOM     21  C   UNL     1       3.705   6.567   0.002  0.00  0.00    +0.192 A 
ATOM     22  N   UNL     1       4.062   7.885   0.000  0.00  0.00    -0.303 N 
BRANCH  22  23
ATOM     23  C   UNL     1       3.167   9.044   0.008  0.00  0.00    +0.091 C 
ATOM     24  C   UNL     1       2.294   9.007   1.264  0.00  0.00    +0.025 C 
ATOM     25  C   UNL     1       1.359  10.217   1.272  0.00  0.00    +0.002 C 
ATOM     26  C   UNL     1       0.467  10.181   0.030  0.00  0.00    +0.000 C 
ATOM     27  C   UNL     1       1.339  10.219  -1.226  0.00  0.00    +0.002 C 
ATOM     28  C   UNL     1       2.274   9.008  -1.234  0.00  0.00    +0.025 C 
ENDBRANCH  22  23
ENDBRANCH  16  21
ENDBRANCH   1  16
TORSDOF 5
