REMARK  Name = ZINC19047977
REMARK  10 active torsions:
REMARK  status: ('A' for Active; 'I' for Inactive)
REMARK    1  A    between atoms: C_1  and  N_2
REMARK    2  A    between atoms: N_2  and  C_3
REMARK    3  A    between atoms: C_3  and  C_4
REMARK    4  A    between atoms: C_4  and  O_5
REMARK    5  A    between atoms: O_5  and  C_6
REMARK    6  A    between atoms: C_13  and  C_15
REMARK    7  A    between atoms: C_15  and  S_16
REMARK    8  A    between atoms: S_16  and  C_17
REMARK    9  A    between atoms: C_20  and  C_23
REMARK   10  A    between atoms: N_21  and  N_22
REMARK                            x       y       z     vdW  Elec       q    Type
REMARK                         _______ _______ _______ _____ _____    ______ ____
ROOT
ATOM      1  S   UNL     1      -0.353  -0.323  -2.755  0.00  0.00    -0.075 S 
ENDROOT
BRANCH   1   2
ATOM      2  C   UNL     1      -0.128  -0.826  -1.082  0.00  0.00    +0.209 A 
ATOM      3  N   UNL     1       0.001  -2.061  -0.650  0.00  0.00    -0.121 NA
ATOM      4  N   UNL     1       0.143  -2.069   0.627  0.00  0.00    -0.127 NA
ATOM      5  C   UNL     1       0.119  -0.840   1.089  0.00  0.00    +0.183 A 
ATOM      6  N   UNL     1      -0.051  -0.006   0.007  0.00  0.00    -0.224 N 
BRANCH   5   7
ATOM      7  C   UNL     1       0.250  -0.429   2.503  0.00  0.00    +0.035 A 
ATOM      8  C   UNL     1      -0.639   0.497   3.049  0.00  0.00    +0.013 A 
ATOM      9  C   UNL     1      -0.512   0.876   4.369  0.00  0.00    +0.001 A 
ATOM     10  C   UNL     1       0.495   0.339   5.152  0.00  0.00    +0.001 A 
ATOM     11  C   UNL     1       1.381  -0.579   4.618  0.00  0.00    +0.016 A 
ATOM     12  C   UNL     1       1.261  -0.971   3.300  0.00  0.00    +0.029 A 
ATOM     13 BR   UNL     1       2.467  -2.233   2.572  0.00  0.00    -0.050 Br
ENDBRANCH   5   7
BRANCH   6  14
ATOM     14  N   UNL     1      -0.133   1.357   0.022  0.00  0.00    -0.295 N 
ATOM     15  H   UNL     1       0.767   1.775  -0.163  0.00  0.00    +0.163 HD
ATOM     16  H   UNL     1      -0.825   1.685  -0.635  0.00  0.00    +0.163 HD
ENDBRANCH   6  14
ENDBRANCH   1   2
BRANCH   1  17
ATOM     17  C   UNL     1      -0.349  -1.938  -3.573  0.00  0.00    +0.173 C 
BRANCH  17  20
ATOM     18  C   UNL     1      -0.416  -4.170  -5.317  0.00  0.00    +0.132 C 
ATOM     19  N   UNL     1      -0.563  -2.822  -5.873  0.00  0.00    -0.301 N 
ATOM     20  C   UNL     1      -0.533  -1.750  -5.057  0.00  0.00    +0.226 C 
ATOM     21  O   UNL     1      -0.655  -0.634  -5.516  0.00  0.00    -0.275 OA
BRANCH  19  22
ATOM     22  C   UNL     1      -0.742  -2.640  -7.315  0.00  0.00    +0.148 C 
BRANCH  22  23
ATOM     23  C   UNL     1       0.626  -2.489  -7.984  0.00  0.00    +0.248 C 
BRANCH  23  24
ATOM     24  O   UNL     1       1.361  -3.707  -7.845  0.00  0.00    -0.490 OA
BRANCH  24  25
ATOM     25  C   UNL     1       2.607  -3.741  -8.388  0.00  0.00    +0.121 A 
ATOM     26  C   UNL     1       3.109  -2.628  -9.045  0.00  0.00    +0.047 A 
ATOM     27  C   UNL     1       4.377  -2.663  -9.592  0.00  0.00    +0.023 A 
ATOM     28  C   UNL     1       5.142  -3.812  -9.493  0.00  0.00    +0.041 A 
ATOM     29  C   UNL     1       4.641  -4.925  -8.842  0.00  0.00    +0.023 A 
ATOM     30  C   UNL     1       3.376  -4.892  -8.290  0.00  0.00    +0.047 A 
ATOM     31 CL   UNL     1       6.733  -3.856 -10.187  0.00  0.00    -0.084 Cl
ENDBRANCH  24  25
ENDBRANCH  23  24
ENDBRANCH  22  23
ENDBRANCH  19  22
ENDBRANCH  17  20
ENDBRANCH   1  17
TORSDOF 9
