REMARK  Name = ZINC02188638
REMARK  6 active torsions:
REMARK  status: ('A' for Active; 'I' for Inactive)
REMARK    1  A    between atoms: C_3  and  C_6
REMARK    2  A    between atoms: C_6  and  C_8
REMARK    3  A    between atoms: C_9  and  C_10
REMARK    4  A    between atoms: C_9  and  N_14
REMARK    5  A    between atoms: N_14  and  N_15
REMARK    6  A    between atoms: C_16  and  C_18
REMARK                            x       y       z     vdW  Elec       q    Type
REMARK                         _______ _______ _______ _____ _____    ______ ____
ROOT
ATOM      1  C   UNL     1       2.437  -0.365  -0.229  0.00  0.00    +0.081 C 
ATOM      2  C   UNL     1       2.428   0.978  -0.101  0.00  0.00    +0.129 C 
ENDROOT
BRANCH   2   3
ATOM      3  C   UNL     1       3.726   1.744  -0.095  0.00  0.00    +0.432 C 
ATOM      4  F   UNL     1       4.794   0.851  -0.234  0.00  0.00    -0.165 F 
ATOM      5  F   UNL     1       3.736   2.653  -1.158  0.00  0.00    -0.165 F 
ATOM      6  F   UNL     1       3.852   2.438   1.113  0.00  0.00    -0.165 F 
ENDBRANCH   2   3
BRANCH   1   7
ATOM      7  C   UNL     1       1.229  -1.096  -0.119  0.00  0.00    +0.194 C 
ATOM      8  O   UNL     1       0.167  -0.505  -0.015  0.00  0.00    -0.287 OA
BRANCH   7  11
ATOM      9  C   UNL     1       0.507  -4.795  -0.068  0.00  0.00    +0.008 A 
ATOM     10  C   UNL     1       0.200  -3.457  -0.028  0.00  0.00    +0.019 A 
ATOM     11  C   UNL     1       1.255  -2.564  -0.129  0.00  0.00    +0.059 A 
ATOM     12  S   UNL     1       2.654  -3.663  -0.266  0.00  0.00    -0.093 S 
ATOM     13  C   UNL     1       1.806  -5.173  -0.193  0.00  0.00    +0.046 A 
ENDBRANCH   7  11
ENDBRANCH   1   7
BRANCH   2  14
ATOM     14  N   UNL     1       1.240   1.645   0.023  0.00  0.00    -0.260 N 
ATOM     15  H   UNL     1       0.411   1.148   0.101  0.00  0.00    +0.170 HD
BRANCH  14  16
ATOM     16  N   UNL     1       1.221   3.046   0.037  0.00  0.00    -0.233 N 
ATOM     17  C   UNL     1       0.045   3.704   0.063  0.00  0.00    +0.260 C 
ATOM     18  O   UNL     1      -0.996   3.084   0.161  0.00  0.00    -0.269 OA
ATOM     19  H   UNL     1       2.055   3.542   0.034  0.00  0.00    +0.173 HD
BRANCH  17  20
ATOM     20  C   UNL     1       0.022   5.178  -0.029  0.00  0.00    +0.038 A 
ATOM     21  C   UNL     1       1.206   5.886  -0.243  0.00  0.00    +0.014 A 
ATOM     22  C   UNL     1       1.176   7.262  -0.334  0.00  0.00    +0.016 A 
ATOM     23  C   UNL     1      -0.023   7.942  -0.201  0.00  0.00    +0.018 A 
ATOM     24  C   UNL     1      -1.200   7.246   0.017  0.00  0.00    +0.016 A 
ATOM     25  C   UNL     1      -1.184   5.870   0.104  0.00  0.00    +0.014 A 
ATOM     26 BR   UNL     1      -0.053   9.829  -0.318  0.00  0.00    -0.050 Br
ENDBRANCH  17  20
ENDBRANCH  14  16
ENDBRANCH   2  14
TORSDOF 6
