REMARK  Name = ZINC19145500
REMARK  6 active torsions:
REMARK  status: ('A' for Active; 'I' for Inactive)
REMARK    1  A    between atoms: C_3  and  C_26
REMARK    2  A    between atoms: C_5  and  C_6
REMARK    3  A    between atoms: C_6  and  N_50
REMARK    4  A    between atoms: C_10  and  C_12
REMARK    5  A    between atoms: C_15  and  C_17
REMARK    6  A    between atoms: C_26  and  O_27
REMARK                            x       y       z     vdW  Elec       q    Type
REMARK                         _______ _______ _______ _____ _____    ______ ____
ROOT
ATOM      1  C   UNL     1       2.254  -3.798   1.092  0.00  0.00    -0.077 C 
ATOM      2  C   UNL     1       2.322  -3.802  -0.451  0.00  0.00    -0.020 C 
ATOM      3  C   UNL     1       2.453  -2.318  -0.850  0.00  0.00    -0.012 C 
ATOM      4  C   UNL     1       2.452  -1.542   0.484  0.00  0.00    -0.030 C 
ATOM      5  N   UNL     1       1.775  -2.448   1.409  0.00  0.00    +0.389 N 
ATOM      6  H   UNL     1       0.759  -2.394   1.271  0.00  0.00    -0.080 HD
ENDROOT
BRANCH   4   7
ATOM      7  C   UNL     1       1.697  -0.246   0.339  0.00  0.00    -0.023 A 
ATOM      8  C   UNL     1       2.195   1.008   0.179  0.00  0.00    +0.010 A 
ATOM      9  C   UNL     1       1.325   2.064   0.065  0.00  0.00    +0.021 A 
ATOM     10  C   UNL     1      -0.029   1.776   0.121  0.00  0.00    +0.074 A 
ATOM     11  S   UNL     1      -0.019   0.005   0.335  0.00  0.00    -0.090 S 
BRANCH  10  12
ATOM     12  C   UNL     1      -1.173   2.688   0.022  0.00  0.00    +0.254 C 
ATOM     13  O   UNL     1      -0.993   3.892   0.029  0.00  0.00    -0.269 OA
ATOM     14  N   UNL     1      -2.422   2.194  -0.075  0.00  0.00    -0.287 N 
ATOM     15  C   UNL     1      -3.592   3.083  -0.177  0.00  0.00    +0.127 C 
ATOM     16  C   UNL     1      -4.285   2.809  -1.513  0.00  0.00    +0.123 C 
ATOM     17  N   UNL     1      -4.441   1.377  -1.730  0.00  0.00    -0.313 N 
ATOM     18  C   UNL     1      -3.705   0.436  -1.136  0.00  0.00    +0.230 C 
ATOM     19  O   UNL     1      -3.875  -0.720  -1.458  0.00  0.00    -0.274 OA
ATOM     20  C   UNL     1      -2.673   0.745  -0.091  0.00  0.00    +0.203 C 
ATOM     21  H   UNL     1      -5.128   1.087  -2.350  0.00  0.00    +0.149 HD
ENDBRANCH  10  12
ENDBRANCH   4   7
BRANCH   5  22
ATOM     22  C   UNL     1       2.097  -2.099   2.828  0.00  0.00    -0.002 C 
BRANCH  22  27
ATOM     23  C   UNL     1       1.448  -4.075   4.286  0.00  0.00    +0.043 A 
ATOM     24  C   UNL     1       0.347  -4.405   5.109  0.00  0.00    +0.047 A 
ATOM     25  C   UNL     1      -0.511  -3.371   5.045  0.00  0.00    +0.130 A 
ATOM     26  O   UNL     1       0.012  -2.435   4.236  0.00  0.00    -0.464 OA
ATOM     27  C   UNL     1       1.198  -2.859   3.768  0.00  0.00    +0.089 A 
BRANCH  25  28
ATOM     28  C   UNL     1      -1.832  -3.276   5.763  0.00  0.00    +0.230 C 
BRANCH  28  29
ATOM     29  O   UNL     1      -1.636  -2.672   7.043  0.00  0.00    -0.387 OA
ATOM     30  H   UNL     1      -2.446  -2.579   7.563  0.00  0.00    +0.210 HD
ENDBRANCH  28  29
ENDBRANCH  25  28
ENDBRANCH  22  27
ENDBRANCH   5  22
TORSDOF 6
