REMARK  Name = ZINC09731489
REMARK  7 active torsions:
REMARK  status: ('A' for Active; 'I' for Inactive)
REMARK    1  A    between atoms: C_1  and  C_2
REMARK    2  A    between atoms: C_2  and  N_3
REMARK    3  A    between atoms: C_7  and  S_26
REMARK    4  A    between atoms: C_11  and  S_12
REMARK    5  A    between atoms: S_12  and  C_13
REMARK    6  A    between atoms: C_13  and  C_14
REMARK    7  A    between atoms: S_26  and  N_29
REMARK                            x       y       z     vdW  Elec       q    Type
REMARK                         _______ _______ _______ _____ _____    ______ ____
ROOT
ATOM      1  N   UNL     1      -0.749   3.044   1.275  0.00  0.00    -0.319 N 
ATOM      2  C   UNL     1       0.208   3.876   1.833  0.00  0.00    +0.070 A 
ATOM      3  C   UNL     1       1.398   3.654   2.509  0.00  0.00    +0.030 A 
ATOM      4  C   UNL     1       2.147   4.725   2.951  0.00  0.00    +0.030 A 
ATOM      5  C   UNL     1       1.718   6.024   2.724  0.00  0.00    +0.107 A 
ATOM      6  C   UNL     1       0.543   6.263   2.046  0.00  0.00    +0.058 A 
ATOM      7  C   UNL     1      -0.229   5.189   1.596  0.00  0.00    +0.092 A 
ATOM      8  N   UNL     1      -1.410   5.104   0.929  0.00  0.00    -0.222 NA
ATOM      9  C   UNL     1      -1.718   3.844   0.739  0.00  0.00    +0.170 A 
ENDROOT
BRANCH   5  10
ATOM     10  S   UNL     1       2.689   7.379   3.296  0.00  0.00    +0.056 S 
ATOM     11  O   UNL     1       1.804   8.481   3.439  0.00  0.00    -0.153 OA
ATOM     12  O   UNL     1       3.476   6.888   4.373  0.00  0.00    -0.153 OA
BRANCH  10  13
ATOM     13  N   UNL     1       3.743   7.773   2.081  0.00  0.00    -0.204 NA
ATOM     14  H   UNL     1       3.732   7.274   1.249  0.00  0.00    +0.144 HD
ATOM     15  H   UNL     1       4.371   8.503   2.201  0.00  0.00    +0.144 HD
ENDBRANCH  10  13
ENDBRANCH   5  10
BRANCH   1  17
ATOM     16  C   UNL     1      -0.013   1.086   0.008  0.00  0.00    +0.027 C 
ATOM     17  C   UNL     1      -0.729   1.579   1.267  0.00  0.00    +0.121 C 
ENDBRANCH   1  17
BRANCH   9  18
ATOM     18  S   UNL     1      -3.164   3.269  -0.086  0.00  0.00    -0.083 S 
BRANCH  18  19
ATOM     19  C   UNL     1      -3.939   4.851  -0.502  0.00  0.00    +0.112 C 
BRANCH  19  20
ATOM     20  C   UNL     1      -5.232   4.600  -1.235  0.00  0.00    -0.032 A 
ATOM     21  C   UNL     1      -6.413   4.471  -0.526  0.00  0.00    +0.054 A 
ATOM     22  C   UNL     1      -7.599   4.240  -1.202  0.00  0.00    +0.164 A 
ATOM     23  C   UNL     1      -7.601   4.139  -2.586  0.00  0.00    +0.180 A 
ATOM     24  C   UNL     1      -6.417   4.269  -3.294  0.00  0.00    +0.086 A 
ATOM     25  C   UNL     1      -5.234   4.505  -2.614  0.00  0.00    +0.028 A 
ATOM     26 CL   UNL     1      -6.418   4.143  -5.025  0.00  0.00    -0.080 Cl
ATOM     27  O   UNL     1      -8.775   3.911  -3.244  0.00  0.00    -0.487 OA
ATOM     28  C   UNL     1      -9.725   4.978  -3.215  0.00  0.00    +0.232 C 
ATOM     29  C   UNL     1     -10.556   4.926  -1.943  0.00  0.00    +0.082 C 
ATOM     30  C   UNL     1      -9.720   5.162  -0.695  0.00  0.00    +0.232 C 
ATOM     31  O   UNL     1      -8.770   4.110  -0.515  0.00  0.00    -0.488 OA
ENDBRANCH  19  20
ENDBRANCH  18  19
ENDBRANCH   9  18
TORSDOF 6
