REMARK  Name = ZINC38598664
REMARK  3 active torsions:
REMARK  status: ('A' for Active; 'I' for Inactive)
REMARK    1  A    between atoms: C_1  and  C_2
REMARK    2  A    between atoms: C_4  and  C_8
REMARK    3  A    between atoms: C_12  and  C_17
REMARK                            x       y       z     vdW  Elec       q    Type
REMARK                         _______ _______ _______ _____ _____    ______ ____
ROOT
ATOM      1  C   UNL     1      -0.964  -2.951   1.248  0.00  0.00    +0.182 C 
ATOM      2  N   UNL     1      -0.425  -4.337   1.261  0.00  0.00    -0.265 N 
ATOM      3  N   UNL     1      -1.262  -5.275   1.786  0.00  0.00    -0.220 N 
ATOM      4  C   UNL     1      -1.155  -6.551   2.333  0.00  0.00    +0.185 A 
ATOM      5  N   UNL     1      -2.363  -6.963   2.623  0.00  0.00    -0.127 NA
ATOM      6  N   UNL     1      -3.222  -6.054   2.322  0.00  0.00    -0.120 NA
ATOM      7  C   UNL     1      -2.609  -5.018   1.836  0.00  0.00    +0.211 A 
ATOM      8  S   UNL     1      -2.764  -3.357   1.208  0.00  0.00    -0.058 S 
ATOM      9  H   UNL     1      -0.106  -4.609   0.343  0.00  0.00    +0.168 HD
ENDROOT
BRANCH   4  10
ATOM     10  C   UNL     1       0.099  -7.304   2.546  0.00  0.00    +0.059 A 
ATOM     11  C   UNL     1       1.325  -6.739   2.193  0.00  0.00    +0.052 A 
ATOM     12  C   UNL     1       2.493  -7.449   2.396  0.00  0.00    +0.124 A 
ATOM     13  C   UNL     1       2.449  -8.719   2.949  0.00  0.00    +0.041 A 
ATOM     14  C   UNL     1       1.237  -9.285   3.300  0.00  0.00    +0.042 A 
ATOM     15  C   UNL     1       0.062  -8.584   3.108  0.00  0.00    +0.134 A 
ATOM     16  F   UNL     1      -1.121  -9.136   3.457  0.00  0.00    -0.205 F 
ATOM     17  F   UNL     1       3.681  -6.904   2.055  0.00  0.00    -0.205 F 
ENDBRANCH   4  10
BRANCH   1  21
ATOM     18  C   UNL     1      -0.018   1.503   0.010  0.00  0.00    +0.067 C 
ATOM     19  C   UNL     1       0.002  -0.004   0.002  0.00  0.00    +0.058 C 
ATOM     20  C   UNL     1      -1.086  -0.777   0.003  0.00  0.00    +0.029 C 
ATOM     21  C   UNL     1      -0.531  -2.190  -0.007  0.00  0.00    +0.185 C 
ATOM     22  N   UNL     1       0.926  -1.973  -0.013  0.00  0.00    -0.177 NA
ATOM     23  N   UNL     1       1.125  -0.756  -0.013  0.00  0.00    -0.159 NA
ENDBRANCH   1  21
TORSDOF 2
