REMARK  Name = ZINC40701527
REMARK  7 active torsions:
REMARK  status: ('A' for Active; 'I' for Inactive)
REMARK    1  A    between atoms: C_1  and  C_2
REMARK    2  A    between atoms: C_9  and  O_12
REMARK    3  A    between atoms: O_12  and  C_13
REMARK    4  A    between atoms: C_14  and  N_28
REMARK    5  A    between atoms: C_15  and  N_19
REMARK    6  A    between atoms: N_19  and  C_20
REMARK    7  A    between atoms: C_25  and  C_26
REMARK                            x       y       z     vdW  Elec       q    Type
REMARK                         _______ _______ _______ _____ _____    ______ ____
ROOT
ATOM      1  C   UNL     1      -0.746  -2.695   4.750  0.00  0.00    +0.246 A 
ATOM      2  C   UNL     1      -0.641  -2.032   5.972  0.00  0.00    +0.128 A 
ATOM      3  C   UNL     1      -0.484  -2.800   7.128  0.00  0.00    +0.151 A 
ATOM      4  N   UNL     1      -0.442  -4.126   7.020  0.00  0.00    -0.218 NA
ATOM      5  C   UNL     1      -0.546  -4.712   5.845  0.00  0.00    +0.227 A 
ATOM      6  N   UNL     1      -0.699  -4.024   4.731  0.00  0.00    -0.199 NA
ENDROOT
BRANCH   2   7
ATOM      7  N   UNL     1      -0.690  -0.631   6.038  0.00  0.00    -0.351 N 
ATOM      8  H   UNL     1      -0.798  -0.111   5.227  0.00  0.00    +0.143 HD
ATOM      9  H   UNL     1      -0.616  -0.183   6.896  0.00  0.00    +0.143 HD
ENDBRANCH   2   7
BRANCH   3  10
ATOM     10  N   UNL     1      -0.374  -2.190   8.372  0.00  0.00    -0.298 N 
ATOM     11  H   UNL     1      -0.309  -1.224   8.434  0.00  0.00    +0.154 HD
BRANCH  10  12
ATOM     12  C   UNL     1      -0.358  -2.967   9.533  0.00  0.00    +0.037 A 
ATOM     13  C   UNL     1      -0.930  -4.234   9.531  0.00  0.00    +0.023 A 
ATOM     14  C   UNL     1      -0.912  -5.000  10.680  0.00  0.00    +0.003 A 
ATOM     15  C   UNL     1      -0.326  -4.509  11.832  0.00  0.00    +0.020 A 
ATOM     16  C   UNL     1       0.245  -3.248  11.838  0.00  0.00    +0.046 A 
ATOM     17  C   UNL     1       0.236  -2.478  10.690  0.00  0.00    -0.011 A 
ATOM     18  C   UNL     1       0.863  -1.109  10.694  0.00  0.00    +0.047 C 
ATOM     19 CL   UNL     1       0.980  -2.636  13.287  0.00  0.00    -0.083 Cl
ENDBRANCH  10  12
ENDBRANCH   3  10
BRANCH   1  20
ATOM     20  O   UNL     1      -0.899  -1.996   3.598  0.00  0.00    -0.434 OA
BRANCH  20  29
ATOM     21  C   UNL     1      -5.776  -3.051   3.409  0.00  0.00    +0.065 C 
ATOM     22  C   UNL     1      -4.607  -3.347   2.506  0.00  0.00    +0.039 A 
ATOM     23  C   UNL     1      -4.822  -4.068   1.333  0.00  0.00    +0.023 A 
ATOM     24  C   UNL     1      -3.773  -4.345   0.502  0.00  0.00    +0.012 A 
ATOM     25  C   UNL     1      -2.495  -3.884   0.869  0.00  0.00    +0.004 A 
ATOM     26  C   UNL     1      -1.370  -4.130   0.065  0.00  0.00    +0.010 A 
ATOM     27  C   UNL     1      -0.149  -3.668   0.452  0.00  0.00    +0.004 A 
ATOM     28  C   UNL     1       0.003  -2.953   1.637  0.00  0.00    +0.048 A 
ATOM     29  C   UNL     1      -1.067  -2.694   2.445  0.00  0.00    +0.156 A 
ATOM     30  C   UNL     1      -2.348  -3.157   2.076  0.00  0.00    +0.113 A 
ATOM     31  N   UNL     1      -3.416  -2.915   2.841  0.00  0.00    -0.248 NA
ENDBRANCH  20  29
ENDBRANCH   1  20
TORSDOF 5
