REMARK  Name = ZINC14437962
REMARK  8 active torsions:
REMARK  status: ('A' for Active; 'I' for Inactive)
REMARK    1  A    between atoms: C_1  and  C_2
REMARK    2  A    between atoms: C_3  and  O_26
REMARK    3  A    between atoms: C_7  and  O_8
REMARK    4  A    between atoms: C_11  and  O_25
REMARK    5  A    between atoms: C_13  and  C_16
REMARK    6  A    between atoms: C_18  and  O_24
REMARK    7  A    between atoms: C_19  and  O_23
REMARK    8  A    between atoms: C_20  and  O_22
REMARK                            x       y       z     vdW  Elec       q    Type
REMARK                         _______ _______ _______ _____ _____    ______ ____
ROOT
ATOM      1  C   UNL     1      -2.351  11.608   1.056  0.00  0.00    +0.051 C 
ATOM      2  C   UNL     1      -2.008  10.141   1.005  0.00  0.00    +0.033 A 
ATOM      3  C   UNL     1      -2.320   9.317   2.080  0.00  0.00    +0.127 A 
ATOM      4  C   UNL     1      -2.014   7.963   2.047  0.00  0.00    +0.092 A 
ATOM      5  C   UNL     1      -1.390   7.417   0.939  0.00  0.00    +0.139 A 
ATOM      6  C   UNL     1      -1.065   8.249  -0.148  0.00  0.00    +0.104 A 
ATOM      7  C   UNL     1      -1.383   9.616  -0.112  0.00  0.00    +0.137 A 
ATOM      8  C   UNL     1      -0.391   7.668  -1.314  0.00  0.00    +0.202 C 
ATOM      9  O   UNL     1       0.106   8.363  -2.176  0.00  0.00    -0.289 OA
ATOM     10  C   UNL     1      -0.347   6.152  -1.388  0.00  0.00    +0.230 C 
ATOM     11  C   UNL     1      -0.074   5.636   0.032  0.00  0.00    +0.240 C 
ATOM     12  O   UNL     1      -1.104   6.094   0.908  0.00  0.00    -0.480 OA
ENDROOT
BRANCH  11  13
ATOM     13  C   UNL     1      -0.054   4.129   0.024  0.00  0.00    +0.003 A 
ATOM     14  C   UNL     1       1.153   3.456   0.010  0.00  0.00    +0.056 A 
ATOM     15  C   UNL     1       1.177   2.070   0.002  0.00  0.00    +0.162 A 
ATOM     16  C   UNL     1      -0.016   1.357   0.009  0.00  0.00    +0.201 A 
ATOM     17  C   UNL     1      -1.228   2.037   0.019  0.00  0.00    +0.162 A 
ATOM     18  C   UNL     1      -1.243   3.424   0.032  0.00  0.00    +0.056 A 
BRANCH  17  19
ATOM     19  O   UNL     1      -2.398   1.344   0.020  0.00  0.00    -0.503 OA
ATOM     20  H   UNL     1      -2.733   1.138   0.904  0.00  0.00    +0.292 HD
ENDBRANCH  17  19
BRANCH  16  21
ATOM     21  O   UNL     1       0.002  -0.004   0.002  0.00  0.00    -0.501 OA
ATOM     22  H   UNL     1       0.016  -0.402   0.883  0.00  0.00    +0.292 HD
ENDBRANCH  16  21
BRANCH  15  23
ATOM     23  O   UNL     1       2.365   1.409  -0.013  0.00  0.00    -0.503 OA
ATOM     24  H   UNL     1       2.700   1.222  -0.900  0.00  0.00    +0.292 HD
ENDBRANCH  15  23
ENDBRANCH  11  13
BRANCH   7  25
ATOM     25  O   UNL     1      -1.079  10.416  -1.164  0.00  0.00    -0.506 OA
ATOM     26  H   UNL     1      -1.778  10.475  -1.828  0.00  0.00    +0.292 HD
ENDBRANCH   7  25
BRANCH  10  27
ATOM     27  O   UNL     1       0.701   5.738  -2.266  0.00  0.00    -0.380 OA
ATOM     28  H   UNL     1       0.588   6.032  -3.180  0.00  0.00    +0.211 HD
ENDBRANCH  10  27
BRANCH   3  29
ATOM     29  O   UNL     1      -2.931   9.841   3.172  0.00  0.00    -0.506 OA
ATOM     30  H   UNL     1      -3.897   9.823   3.129  0.00  0.00    +0.292 HD
ENDBRANCH   3  29
TORSDOF 7
