REMARK  Name = ZINC06210462
REMARK  5 active torsions:
REMARK  status: ('A' for Active; 'I' for Inactive)
REMARK    1  A    between atoms: C_1  and  C_2
REMARK    2  A    between atoms: C_3  and  C_11
REMARK    3  A    between atoms: N_13  and  N_14
REMARK    4  A    between atoms: C_15  and  C_16
REMARK    5  A    between atoms: C_15  and  C_17
REMARK                            x       y       z     vdW  Elec       q    Type
REMARK                         _______ _______ _______ _____ _____    ______ ____
ROOT
ATOM      1  C   UNL     1      -0.004  -0.381  -2.476  0.00  0.00    +0.282 C 
ATOM      2  O   UNL     1      -0.117   0.803  -2.738  0.00  0.00    -0.267 OA
ATOM      3  N   UNL     1       0.105  -1.284  -3.471  0.00  0.00    -0.201 N 
ATOM      4  H   UNL     1       0.119  -2.232  -3.266  0.00  0.00    +0.178 HD
ENDROOT
BRANCH   1   7
ATOM      5  C   UNL     1      -2.529  -0.801  -0.692  0.00  0.00    +0.068 C 
ATOM      6  C   UNL     1      -1.087  -1.007  -0.304  0.00  0.00    +0.069 A 
ATOM      7  C   UNL     1       0.012  -0.810  -1.125  0.00  0.00    +0.133 A 
ATOM      8  N   UNL     1       1.127  -1.114  -0.366  0.00  0.00    -0.295 N 
ATOM      9  C   UNL     1       2.457  -1.102  -0.645  0.00  0.00    +0.093 A 
ATOM     10  C   UNL     1       3.363  -1.452   0.296  0.00  0.00    +0.018 A 
ATOM     11  C   UNL     1       2.936  -1.834   1.576  0.00  0.00    +0.005 A 
ATOM     12  C   UNL     1       1.603  -1.848   1.865  0.00  0.00    +0.047 A 
ATOM     13  C   UNL     1       0.678  -1.480   0.871  0.00  0.00    +0.138 A 
ATOM     14  N   UNL     1      -0.652  -1.402   0.882  0.00  0.00    -0.232 NA
ENDBRANCH   1   7
BRANCH   3  15
ATOM     15  N   UNL     1       0.198  -0.853  -4.801  0.00  0.00    -0.184 NA
ATOM     16  C   UNL     1       0.303  -1.722  -5.759  0.00  0.00    +0.063 C 
ATOM     17  C   UNL     1       0.325  -3.195  -5.441  0.00  0.00    +0.068 C 
BRANCH  16  18
ATOM     18  C   UNL     1       0.401  -1.268  -7.158  0.00  0.00    -0.001 A 
ATOM     19  C   UNL     1       0.508  -2.201  -8.193  0.00  0.00    +0.010 A 
ATOM     20  C   UNL     1       0.600  -1.770  -9.500  0.00  0.00    +0.002 A 
ATOM     21  C   UNL     1       0.585  -0.417  -9.788  0.00  0.00    +0.015 A 
ATOM     22  C   UNL     1       0.479   0.514  -8.769  0.00  0.00    +0.018 A 
ATOM     23  C   UNL     1       0.381   0.096  -7.457  0.00  0.00    +0.025 A 
ATOM     24 BR   UNL     1       0.462   2.360  -9.175  0.00  0.00    -0.050 Br
ENDBRANCH  16  18
ENDBRANCH   3  15
TORSDOF 3
