REMARK  Name = ZINC07596120
REMARK  5 active torsions:
REMARK  status: ('A' for Active; 'I' for Inactive)
REMARK    1  A    between atoms: C_6  and  C_7
REMARK    2  A    between atoms: C_10  and  S_13
REMARK    3  A    between atoms: S_13  and  C_14
REMARK    4  A    between atoms: C_14  and  C_15
REMARK    5  A    between atoms: C_15  and  N_42
REMARK                            x       y       z     vdW  Elec       q    Type
REMARK                         _______ _______ _______ _____ _____    ______ ____
ROOT
ATOM      1  C   UNL     1       1.177   1.813   0.001  0.00  0.00    +0.093 A 
ATOM      2  C   UNL     1      -0.013   1.076   0.008  0.00  0.00    +0.033 A 
ATOM      3  C   UNL     1      -1.207   1.772   0.017  0.00  0.00    +0.039 A 
ATOM      4  C   UNL     1      -1.153   3.168   0.030  0.00  0.00    +0.119 A 
ATOM      5  N   UNL     1       0.022   3.783   0.022  0.00  0.00    -0.142 NA
ATOM      6  N   UNL     1       1.131   3.138   0.008  0.00  0.00    -0.148 NA
ENDROOT
BRANCH   1  12
ATOM      7  C   UNL     1       2.534  -0.279  -0.019  0.00  0.00    +0.011 A 
ATOM      8  C   UNL     1       3.753  -0.924  -0.039  0.00  0.00    +0.016 A 
ATOM      9  C   UNL     1       4.927  -0.191  -0.046  0.00  0.00    +0.018 A 
ATOM     10  C   UNL     1       4.884   1.193  -0.039  0.00  0.00    +0.016 A 
ATOM     11  C   UNL     1       3.670   1.848  -0.024  0.00  0.00    +0.011 A 
ATOM     12  C   UNL     1       2.485   1.114  -0.016  0.00  0.00    +0.002 A 
ATOM     13 BR   UNL     1       6.595  -1.082  -0.066  0.00  0.00    -0.050 Br
ENDBRANCH   1  12
BRANCH   4  14
ATOM     14  S   UNL     1      -2.642   4.109   0.050  0.00  0.00    -0.106 S 
BRANCH  14  15
ATOM     15  C   UNL     1      -2.073   5.831   0.053  0.00  0.00    +0.057 C 
BRANCH  15  16
ATOM     16  C   UNL     1      -3.283   6.768   0.070  0.00  0.00    -0.068 C 
BRANCH  16  22
ATOM     17  C   UNL     1      -2.111   8.479   1.319  0.00  0.00    -0.079 C 
ATOM     18  C   UNL     1      -1.521   9.888   1.227  0.00  0.00    -0.019 C 
ATOM     19  C   UNL     1      -2.651  10.895   0.992  0.00  0.00    -0.004 C 
ATOM     20  C   UNL     1      -3.406  10.515  -0.284  0.00  0.00    -0.019 C 
ATOM     21  C   UNL     1      -3.941   9.087  -0.149  0.00  0.00    -0.079 C 
ATOM     22  N   UNL     1      -2.803   8.165   0.050  0.00  0.00    +0.380 N 
ATOM     23  H   UNL     1      -2.141   8.279  -0.727  0.00  0.00    -0.082 HD
ENDBRANCH  16  22
ENDBRANCH  15  16
ENDBRANCH  14  15
ENDBRANCH   4  14
TORSDOF 5
