REMARK  Name = ZINC40826073
REMARK  7 active torsions:
REMARK  status: ('A' for Active; 'I' for Inactive)
REMARK    1  A    between atoms: C_1  and  C_2
REMARK    2  A    between atoms: C_3  and  N_9
REMARK    3  A    between atoms: C_10  and  C_12
REMARK    4  A    between atoms: C_13  and  C_33
REMARK    5  A    between atoms: N_21  and  N_22
REMARK    6  A    between atoms: N_22  and  S_23
REMARK    7  A    between atoms: S_23  and  C_26
REMARK                            x       y       z     vdW  Elec       q    Type
REMARK                         _______ _______ _______ _____ _____    ______ ____
ROOT
ATOM      1  C   UNL     1       0.189   0.090  -4.841  0.00  0.00    +0.193 A 
ATOM      2  C   UNL     1       0.294  -0.462  -6.088  0.00  0.00    +0.009 A 
ATOM      3  C   UNL     1       0.356   0.609  -6.987  0.00  0.00    +0.042 A 
ATOM      4  C   UNL     1       0.288   1.769  -6.252  0.00  0.00    +0.115 A 
ATOM      5  O   UNL     1       0.181   1.436  -4.967  0.00  0.00    -0.454 OA
ATOM      6  C   UNL     1       0.331   3.140  -6.877  0.00  0.00    +0.075 C 
ATOM      7  C   UNL     1       0.958   3.044  -8.271  0.00  0.00    +0.014 C 
ATOM      8  C   UNL     1       0.242   1.983  -9.114  0.00  0.00    +0.058 C 
ATOM      9  C   UNL     1       0.470   0.626  -8.463  0.00  0.00    +0.071 C 
ATOM     10  N   UNL     1       0.745  -0.438  -9.152  0.00  0.00    -0.170 NA
ATOM     11  C   UNL     1       0.336  -1.930  -6.427  0.00  0.00    +0.048 C 
ENDROOT
BRANCH   1  13
ATOM     12  N   UNL     1      -0.010   0.011  -2.413  0.00  0.00    -0.279 N 
ATOM     13  C   UNL     1       0.095  -0.654  -3.580  0.00  0.00    +0.284 C 
ATOM     14  O   UNL     1       0.112  -1.871  -3.589  0.00  0.00    -0.266 OA
ATOM     15  H   UNL     1      -0.104   0.976  -2.411  0.00  0.00    +0.155 HD
BRANCH  12  18
ATOM     16  C   UNL     1      -1.264   1.189  -0.146  0.00  0.00    +0.047 C 
ATOM     17  C   UNL     1      -0.583  -0.153  -0.073  0.00  0.00    -0.011 A 
ATOM     18  C   UNL     1       0.017  -0.692  -1.204  0.00  0.00    +0.038 A 
ATOM     19  C   UNL     1       0.643  -1.929  -1.132  0.00  0.00    +0.023 A 
ATOM     20  C   UNL     1       0.667  -2.621   0.064  0.00  0.00    +0.003 A 
ATOM     21  C   UNL     1       0.069  -2.084   1.188  0.00  0.00    +0.020 A 
ATOM     22  C   UNL     1      -0.551  -0.848   1.122  0.00  0.00    +0.046 A 
ATOM     23 CL   UNL     1      -1.294  -0.173   2.538  0.00  0.00    -0.083 Cl
ENDBRANCH  12  18
ENDBRANCH   1  13
BRANCH  10  24
ATOM     24  N   UNL     1       0.841  -0.364 -10.547  0.00  0.00    -0.136 N 
ATOM     25  H   UNL     1       0.702   0.483 -10.999  0.00  0.00    +0.197 HD
BRANCH  24  26
ATOM     26  S   UNL     1       1.192  -1.723 -11.427  0.00  0.00    +0.086 S 
ATOM     27  O   UNL     1       1.077  -1.361 -12.796  0.00  0.00    -0.149 OA
ATOM     28  O   UNL     1       2.386  -2.264 -10.879  0.00  0.00    -0.149 OA
BRANCH  26  29
ATOM     29  C   UNL     1      -0.085  -2.894 -11.106  0.00  0.00    +0.110 A 
ATOM     30  C   UNL     1       0.041  -3.784 -10.056  0.00  0.00    +0.031 A 
ATOM     31  C   UNL     1      -0.959  -4.703  -9.803  0.00  0.00    +0.040 A 
ATOM     32  C   UNL     1      -2.089  -4.733 -10.603  0.00  0.00    +0.124 A 
ATOM     33  C   UNL     1      -2.215  -3.841 -11.655  0.00  0.00    +0.040 A 
ATOM     34  C   UNL     1      -1.215  -2.920 -11.903  0.00  0.00    +0.031 A 
ATOM     35  F   UNL     1      -3.068  -5.631 -10.358  0.00  0.00    -0.205 F 
ENDBRANCH  26  29
ENDBRANCH  24  26
ENDBRANCH  10  24
TORSDOF 5
