REMARK  Name = ZINC01436565
REMARK  9 active torsions:
REMARK  status: ('A' for Active; 'I' for Inactive)
REMARK    1  A    between atoms: C_1  and  C_2
REMARK    2  A    between atoms: C_2  and  O_3
REMARK    3  A    between atoms: O_3  and  C_4
REMARK    4  A    between atoms: C_8  and  C_11
REMARK    5  A    between atoms: C_9  and  O_10
REMARK    6  A    between atoms: N_12  and  N_13
REMARK    7  A    between atoms: C_14  and  C_16
REMARK    8  A    between atoms: C_17  and  C_27
REMARK    9  A    between atoms: C_20  and  C_21
REMARK                            x       y       z     vdW  Elec       q    Type
REMARK                         _______ _______ _______ _____ _____    ______ ____
ROOT
ATOM      1  N   UNL     1      -1.191   1.870   0.018  0.00  0.00    -0.203 N 
ATOM      2  C   UNL     1      -0.014   1.212   0.009  0.00  0.00    +0.269 C 
ATOM      3  O   UNL     1       0.002  -0.004   0.002  0.00  0.00    -0.268 OA
ATOM      4  H   UNL     1      -1.204   2.840   0.023  0.00  0.00    +0.178 HD
ENDROOT
BRANCH   2   5
ATOM      5  C   UNL     1       1.251   1.966   0.001  0.00  0.00    +0.108 A 
ATOM      6  C   UNL     1       1.993   2.403   1.069  0.00  0.00    +0.147 A 
ATOM      7  O   UNL     1       3.055   3.034   0.561  0.00  0.00    -0.359 OA
ATOM      8  N   UNL     1       3.068   3.055  -0.645  0.00  0.00    -0.077 NA
ATOM      9  C   UNL     1       2.031   2.444  -1.160  0.00  0.00    +0.126 A 
ATOM     10  C   UNL     1       1.674   2.207   2.529  0.00  0.00    +0.090 C 
BRANCH   9  11
ATOM     11  C   UNL     1       1.710   2.268  -2.597  0.00  0.00    +0.004 A 
ATOM     12  C   UNL     1       1.096   1.097  -3.038  0.00  0.00    +0.010 A 
ATOM     13  C   UNL     1       0.794   0.942  -4.376  0.00  0.00    +0.001 A 
ATOM     14  C   UNL     1       1.110   1.941  -5.280  0.00  0.00    +0.000 A 
ATOM     15  C   UNL     1       1.724   3.102  -4.848  0.00  0.00    +0.001 A 
ATOM     16  C   UNL     1       2.026   3.271  -3.512  0.00  0.00    +0.010 A 
ENDBRANCH   9  11
ENDBRANCH   2   5
BRANCH   1  18
ATOM     17  C   UNL     1      -3.527   1.787   0.029  0.00  0.00    +0.142 C 
ATOM     18  N   UNL     1      -2.394   1.153   0.020  0.00  0.00    -0.187 NA
BRANCH  17  23
ATOM     19  C   UNL     1      -5.978  -1.069   0.024  0.00  0.00    +0.163 A 
ATOM     20  C   UNL     1      -7.182  -0.383   0.034  0.00  0.00    +0.064 A 
ATOM     21  C   UNL     1      -7.198   1.002   0.041  0.00  0.00    +0.022 A 
ATOM     22  C   UNL     1      -6.015   1.712   0.040  0.00  0.00    +0.028 A 
ATOM     23  C   UNL     1      -4.793   1.033   0.030  0.00  0.00    +0.041 A 
ATOM     24  C   UNL     1      -4.778  -0.367   0.017  0.00  0.00    +0.167 A 
ATOM     25 BR   UNL     1      -8.849   1.924   0.054  0.00  0.00    -0.050 Br
BRANCH  24  26
ATOM     26  O   UNL     1      -3.596  -1.037   0.002  0.00  0.00    -0.503 OA
ATOM     27  H   UNL     1      -3.247  -1.239   0.881  0.00  0.00    +0.292 HD
ENDBRANCH  24  26
BRANCH  19  28
ATOM     28  O   UNL     1      -5.970  -2.429   0.017  0.00  0.00    -0.489 OA
BRANCH  28  30
ATOM     29  C   UNL     1      -7.030  -4.601   0.010  0.00  0.00    +0.048 C 
ATOM     30  C   UNL     1      -7.239  -3.085   0.019  0.00  0.00    +0.226 C 
ENDBRANCH  28  30
ENDBRANCH  19  28
ENDBRANCH  17  23
ENDBRANCH   1  18
TORSDOF 7
