REMARK  Name = ZINC09297981
REMARK  8 active torsions:
REMARK  status: ('A' for Active; 'I' for Inactive)
REMARK    1  A    between atoms: C_1  and  C_2
REMARK    2  A    between atoms: C_2  and  O_3
REMARK    3  A    between atoms: O_3  and  C_4
REMARK    4  A    between atoms: C_7  and  C_9
REMARK    5  A    between atoms: C_13  and  N_14
REMARK    6  A    between atoms: C_15  and  C_17
REMARK    7  A    between atoms: C_20  and  S_23
REMARK    8  A    between atoms: S_23  and  N_26
REMARK                            x       y       z     vdW  Elec       q    Type
REMARK                         _______ _______ _______ _____ _____    ______ ____
ROOT
ATOM      1  C   UNL     1      -3.563   5.856   7.261  0.00  0.00    +0.069 A 
ATOM      2  C   UNL     1      -4.432   6.006   8.416  0.00  0.00    -0.023 A 
ATOM      3  C   UNL     1      -5.219   4.942   8.686  0.00  0.00    -0.004 A 
ATOM      4  S   UNL     1      -4.826   3.757   7.430  0.00  0.00    -0.077 S 
ATOM      5  C   UNL     1      -3.633   4.660   6.557  0.00  0.00    +0.085 A 
ATOM      6  C   UNL     1      -6.203   4.808   9.807  0.00  0.00    +0.043 C 
ATOM      7  C   UNL     1      -5.922   5.915  10.833  0.00  0.00    +0.005 C 
ATOM      8  C   UNL     1      -5.776   7.248  10.093  0.00  0.00    +0.005 C 
ATOM      9  C   UNL     1      -4.477   7.256   9.286  0.00  0.00    +0.037 C 
ENDROOT
BRANCH   1  13
ATOM     10  C   UNL     1      -0.556   7.952   6.971  0.00  0.00    +0.407 C 
ATOM     11  O   UNL     1      -0.929   8.802   6.188  0.00  0.00    -0.226 OA
ATOM     12  N   UNL     1      -1.397   6.967   7.347  0.00  0.00    -0.217 N 
ATOM     13  C   UNL     1      -2.650   6.926   6.853  0.00  0.00    +0.255 C 
ATOM     14  O   UNL     1      -3.023   7.777   6.068  0.00  0.00    -0.270 OA
ATOM     15  H   UNL     1      -1.099   6.288   7.973  0.00  0.00    +0.161 HD
BRANCH  10  16
ATOM     16  O   UNL     1       0.695   7.993   7.465  0.00  0.00    -0.450 OA
BRANCH  16  18
ATOM     17  C   UNL     1       2.919   8.963   7.679  0.00  0.00    +0.048 C 
ATOM     18  C   UNL     1       1.545   9.082   7.016  0.00  0.00    +0.230 C 
ENDBRANCH  16  18
ENDBRANCH  10  16
ENDBRANCH   1  13
BRANCH   5  19
ATOM     19  N   UNL     1      -2.918   4.280   5.433  0.00  0.00    -0.275 N 
ATOM     20  C   UNL     1      -3.119   3.065   4.886  0.00  0.00    +0.249 C 
ATOM     21  O   UNL     1      -3.927   2.303   5.378  0.00  0.00    -0.270 OA
ATOM     22  H   UNL     1      -2.273   4.889   5.040  0.00  0.00    +0.156 HD
BRANCH  20  23
ATOM     23  C   UNL     1      -2.356   2.660   3.687  0.00  0.00    +0.037 A 
ATOM     24  C   UNL     1      -2.561   1.402   3.117  0.00  0.00    +0.015 A 
ATOM     25  C   UNL     1      -1.846   1.030   1.998  0.00  0.00    +0.029 A 
ATOM     26  C   UNL     1      -0.927   1.900   1.439  0.00  0.00    +0.106 A 
ATOM     27  C   UNL     1      -0.715   3.146   2.002  0.00  0.00    +0.029 A 
ATOM     28  C   UNL     1      -1.427   3.533   3.118  0.00  0.00    +0.015 A 
BRANCH  26  29
ATOM     29  S   UNL     1      -0.017   1.417   0.010  0.00  0.00    +0.061 S 
ATOM     30  O   UNL     1       0.002  -0.004   0.002  0.00  0.00    -0.153 OA
ATOM     31  O   UNL     1       1.172   2.195   0.003  0.00  0.00    -0.153 OA
BRANCH  29  32
ATOM     32  N   UNL     1      -0.897   1.885  -1.312  0.00  0.00    -0.177 NA
ATOM     33  C   UNL     1      -1.909   1.071  -2.000  0.00  0.00    +0.109 C 
ATOM     34  C   UNL     1      -2.444   1.906  -3.183  0.00  0.00    +0.018 C 
ATOM     35  C   UNL     1      -1.295   2.918  -3.438  0.00  0.00    +0.018 C 
ATOM     36  C   UNL     1      -0.792   3.186  -1.998  0.00  0.00    +0.109 C 
ENDBRANCH  29  32
ENDBRANCH  26  29
ENDBRANCH  20  23
ENDBRANCH   5  19
TORSDOF 7
