REMARK  Name = ZINC49469264
REMARK  9 active torsions:
REMARK  status: ('A' for Active; 'I' for Inactive)
REMARK    1  A    between atoms: C_1  and  C_2
REMARK    2  A    between atoms: C_5  and  N_9
REMARK    3  A    between atoms: C_6  and  C_8
REMARK    4  A    between atoms: N_12  and  C_13
REMARK    5  A    between atoms: C_13  and  C_14
REMARK    6  A    between atoms: C_14  and  N_15
REMARK    7  A    between atoms: C_20  and  C_22
REMARK    8  A    between atoms: C_23  and  C_32
REMARK    9  A    between atoms: C_25  and  C_27
REMARK                            x       y       z     vdW  Elec       q    Type
REMARK                         _______ _______ _______ _____ _____    ______ ____
ROOT
ATOM      1  N   UNL     1      -0.418  -9.140  -3.443  0.00  0.00    -0.227 N 
ATOM      2  C   UNL     1       0.706  -9.543  -4.064  0.00  0.00    +0.267 A 
ATOM      3  O   UNL     1       1.798  -9.303  -3.573  0.00  0.00    -0.266 OA
ATOM      4  C   UNL     1       0.614 -10.245  -5.286  0.00  0.00    +0.074 A 
ATOM      5  C   UNL     1      -0.628 -10.488  -5.792  0.00  0.00    +0.036 A 
ATOM      6  C   UNL     1      -1.750 -10.023  -5.063  0.00  0.00    +0.100 A 
ATOM      7  N   UNL     1      -1.582  -9.380  -3.928  0.00  0.00    -0.168 NA
ENDROOT
BRANCH   6   8
ATOM      8  C   UNL     1      -3.114 -10.266  -5.577  0.00  0.00    +0.062 A 
ATOM      9  C   UNL     1      -4.328  -9.905  -5.046  0.00  0.00    +0.055 A 
ATOM     10  N   UNL     1      -5.429 -10.226  -5.676  0.00  0.00    -0.243 NA
ATOM     11  C   UNL     1      -5.399 -10.897  -6.823  0.00  0.00    +0.116 A 
ATOM     12  S   UNL     1      -3.640 -11.104  -7.066  0.00  0.00    -0.065 S 
ATOM     13  C   UNL     1      -4.392  -9.145  -3.747  0.00  0.00    +0.067 C 
BRANCH  11  14
ATOM     14  C   UNL     1      -6.515 -11.344  -7.669  0.00  0.00    +0.044 A 
ATOM     15  C   UNL     1      -7.875 -11.171  -7.483  0.00  0.00    +0.018 A 
ATOM     16  C   UNL     1      -8.735 -11.686  -8.425  0.00  0.00    +0.008 A 
ATOM     17  C   UNL     1      -8.227 -12.342  -9.501  0.00  0.00    +0.046 A 
ATOM     18  S   UNL     1      -6.469 -12.245  -9.210  0.00  0.00    -0.095 S 
ENDBRANCH  11  14
ENDBRANCH   6   8
BRANCH   1  19
ATOM     19  C   UNL     1      -0.311  -8.413  -2.175  0.00  0.00    +0.166 C 
BRANCH  19  20
ATOM     20  C   UNL     1      -0.231  -6.911  -2.454  0.00  0.00    +0.129 C 
BRANCH  20  24
ATOM     21  N   UNL     1       0.058  -4.170  -0.021  0.00  0.00    -0.269 N 
ATOM     22  C   UNL     1      -0.041  -4.839  -1.187  0.00  0.00    +0.304 C 
ATOM     23  O   UNL     1      -0.054  -4.229  -2.239  0.00  0.00    -0.253 OA
ATOM     24  N   UNL     1      -0.124  -6.184  -1.187  0.00  0.00    -0.297 N 
ATOM     25  H   UNL     1       0.135  -4.659   0.814  0.00  0.00    +0.156 HD
ATOM     26  H   UNL     1      -0.114  -6.671  -0.348  0.00  0.00    +0.150 HD
BRANCH  21  31
ATOM     27  C   UNL     1       0.025   1.503   0.006  0.00  0.00    +0.044 C 
ATOM     28  C   UNL     1       0.034  -0.004  -0.001  0.00  0.00    -0.050 A 
ATOM     29  C   UNL     1       0.631  -0.685  -1.046  0.00  0.00    +0.005 A 
ATOM     30  C   UNL     1       0.641  -2.066  -1.055  0.00  0.00    +0.024 A 
ATOM     31  C   UNL     1       0.050  -2.771  -0.014  0.00  0.00    +0.038 A 
ATOM     32  C   UNL     1      -0.549  -2.083   1.033  0.00  0.00    -0.029 A 
ATOM     33  C   UNL     1      -0.551  -0.702   1.039  0.00  0.00    +0.008 A 
ATOM     34  C   UNL     1      -1.192  -2.844   2.164  0.00  0.00    +0.045 C 
ENDBRANCH  21  31
ENDBRANCH  20  24
ENDBRANCH  19  20
ENDBRANCH   1  19
TORSDOF 6
