REMARK  Name = ZINC09954779
REMARK  4 active torsions:
REMARK  status: ('A' for Active; 'I' for Inactive)
REMARK    1  A    between atoms: C_1  and  C_2
REMARK    2  A    between atoms: C_5  and  C_21
REMARK    3  A    between atoms: C_9  and  C_10
REMARK    4  A    between atoms: C_9  and  N_41
REMARK                            x       y       z     vdW  Elec       q    Type
REMARK                         _______ _______ _______ _____ _____    ______ ____
ROOT
ATOM      1  C   UNL     1       1.204  -4.291   1.073  0.00  0.00    +0.032 A 
ATOM      2  C   UNL     1       1.579  -3.138   1.734  0.00  0.00    +0.092 A 
ATOM      3  C   UNL     1       2.543  -3.221   2.745  0.00  0.00    +0.258 A 
ATOM      4  O   UNL     1       2.896  -2.221   3.349  0.00  0.00    -0.267 OA
ATOM      5  N   UNL     1       3.077  -4.426   3.042  0.00  0.00    -0.268 N 
ATOM      6  C   UNL     1       4.016  -4.523   4.024  0.00  0.00    +0.096 A 
ATOM      7  C   UNL     1       4.565  -5.717   4.339  0.00  0.00    +0.018 A 
ATOM      8  C   UNL     1       4.171  -6.876   3.655  0.00  0.00    +0.005 A 
ATOM      9  C   UNL     1       3.231  -6.790   2.672  0.00  0.00    +0.047 A 
ATOM     10  C   UNL     1       2.672  -5.537   2.358  0.00  0.00    +0.140 A 
ATOM     11  N   UNL     1       1.753  -5.451   1.397  0.00  0.00    -0.236 NA
ENDROOT
BRANCH   1  12
ATOM     12  C   UNL     1       0.167  -4.229  -0.019  0.00  0.00    -0.022 C 
BRANCH  12  20
ATOM     13  C   UNL     1       1.894  -7.849  -2.867  0.00  0.00    +0.005 C 
ATOM     14  C   UNL     1       1.580  -6.353  -2.789  0.00  0.00    -0.031 C 
ATOM     15  C   UNL     1       2.851  -5.548  -3.075  0.00  0.00    +0.003 C 
ATOM     16  C   UNL     1       2.543  -4.055  -2.935  0.00  0.00    -0.031 C 
ATOM     17  C   UNL     1       2.005  -3.780  -1.529  0.00  0.00    -0.075 C 
ATOM     18  C   UNL     1       1.070  -6.011  -1.387  0.00  0.00    -0.075 C 
ATOM     19  C   UNL     1       3.822  -3.246  -3.161  0.00  0.00    +0.005 C 
ATOM     20  N   UNL     1       0.768  -4.565  -1.326  0.00  0.00    +0.384 N 
ATOM     21  H   UNL     1       0.100  -4.332  -2.071  0.00  0.00    -0.081 HD
ENDBRANCH  12  20
ENDBRANCH   1  12
TORSDOF 2
