REMARK  Name = ZINC13139947
REMARK  8 active torsions:
REMARK  status: ('A' for Active; 'I' for Inactive)
REMARK    1  A    between atoms: C_1  and  C_2
REMARK    2  A    between atoms: C_2  and  O_3
REMARK    3  A    between atoms: O_3  and  C_4
REMARK    4  A    between atoms: C_9  and  S_10
REMARK    5  A    between atoms: S_10  and  N_13
REMARK    6  A    between atoms: N_13  and  C_14
REMARK    7  A    between atoms: C_18  and  S_20
REMARK    8  A    between atoms: S_20  and  N_23
REMARK                            x       y       z     vdW  Elec       q    Type
REMARK                         _______ _______ _______ _____ _____    ______ ____
ROOT
ATOM      1  C   UNL     1       0.076   0.294  -3.510  0.00  0.00    +0.050 A 
ATOM      2  C   UNL     1      -0.164  -0.001  -2.173  0.00  0.00    +0.024 A 
ATOM      3  C   UNL     1      -0.913   0.863  -1.401  0.00  0.00    +0.004 A 
ATOM      4  C   UNL     1      -1.425   2.023  -1.955  0.00  0.00    +0.029 A 
ATOM      5  C   UNL     1      -1.188   2.320  -3.284  0.00  0.00    +0.114 A 
ATOM      6  C   UNL     1      -0.434   1.462  -4.062  0.00  0.00    +0.053 A 
ENDROOT
BRANCH   5   7
ATOM      7  S   UNL     1      -1.843   3.797  -3.986  0.00  0.00    +0.100 S 
ATOM      8  O   UNL     1      -1.939   3.574  -5.386  0.00  0.00    -0.146 OA
ATOM      9  O   UNL     1      -2.966   4.160  -3.194  0.00  0.00    -0.146 OA
BRANCH   7  10
ATOM     10  N   UNL     1      -0.709   4.985  -3.773  0.00  0.00    -0.118 NA
ATOM     11  C   UNL     1      -0.940   6.184  -4.201  0.00  0.00    +0.117 C 
ATOM     12  N   UNL     1      -2.083   6.589  -4.838  0.00  0.00    -0.331 N 
ATOM     13  C   UNL     1      -2.200   8.053  -4.736  0.00  0.00    +0.103 C 
ATOM     14  C   UNL     1      -0.740   8.555  -4.687  0.00  0.00    +0.026 C 
ATOM     15  C   UNL     1       0.009   7.355  -4.070  0.00  0.00    +0.074 C 
ATOM     16  H   UNL     1      -2.714   6.004  -5.285  0.00  0.00    +0.147 HD
ENDBRANCH   7  10
ENDBRANCH   5   7
BRANCH   1  17
ATOM     17  N   UNL     1       0.834  -0.578  -4.294  0.00  0.00    -0.216 N 
ATOM     18  H   UNL     1       0.530  -0.820  -5.182  0.00  0.00    +0.174 HD
BRANCH  17  19
ATOM     19  S   UNL     1       2.253  -1.198  -3.708  0.00  0.00    +0.076 S 
ATOM     20  O   UNL     1       2.974  -0.107  -3.151  0.00  0.00    -0.150 OA
ATOM     21  O   UNL     1       2.791  -2.022  -4.733  0.00  0.00    -0.150 OA
BRANCH  19  27
ATOM     22  C   UNL     1       1.085  -3.405  -2.596  0.00  0.00    +0.147 A 
ATOM     23  C   UNL     1       0.767  -4.247  -1.540  0.00  0.00    +0.049 A 
ATOM     24  C   UNL     1       1.199  -3.946  -0.264  0.00  0.00    +0.019 A 
ATOM     25  C   UNL     1       1.949  -2.805  -0.037  0.00  0.00    +0.020 A 
ATOM     26  C   UNL     1       2.266  -1.964  -1.088  0.00  0.00    +0.047 A 
ATOM     27  C   UNL     1       1.841  -2.265  -2.368  0.00  0.00    +0.151 A 
ATOM     28 BR   UNL     1       2.539  -2.395   1.712  0.00  0.00    -0.050 Br
BRANCH  22  29
ATOM     29  O   UNL     1       0.661  -3.700  -3.853  0.00  0.00    -0.490 OA
BRANCH  29  31
ATOM     30  C   UNL     1      -0.477  -5.074  -5.484  0.00  0.00    +0.048 C 
ATOM     31  C   UNL     1      -0.202  -4.830  -3.999  0.00  0.00    +0.226 C 
ENDBRANCH  29  31
ENDBRANCH  22  29
ENDBRANCH  19  27
ENDBRANCH  17  19
ENDBRANCH   1  17
TORSDOF 7
