REMARK  Name = ZINC45626440
REMARK  4 active torsions:
REMARK  status: ('A' for Active; 'I' for Inactive)
REMARK    1  A    between atoms: C_4  and  C_8
REMARK    2  A    between atoms: C_6  and  N_7
REMARK    3  A    between atoms: N_12  and  C_13
REMARK    4  A    between atoms: N_17  and  C_19
REMARK                            x       y       z     vdW  Elec       q    Type
REMARK                         _______ _______ _______ _____ _____    ______ ____
ROOT
ATOM      1  C   UNL     1       3.701  -0.682  -0.072  0.00  0.00    +0.183 A 
ATOM      2  N   UNL     1       3.878  -1.983   0.020  0.00  0.00    -0.108 NA
ATOM      3  N   UNL     1       5.130  -2.268   0.019  0.00  0.00    -0.023 NA
ATOM      4  N   UNL     1       5.835  -1.194  -0.073  0.00  0.00    -0.043 NA
ATOM      5  N   UNL     1       4.932  -0.118  -0.141  0.00  0.00    -0.224 N 
ENDROOT
BRANCH   1   9
ATOM      6  C   UNL     1      -0.030   1.361  -0.150  0.00  0.00    +0.024 A 
ATOM      7  C   UNL     1       0.211   0.399   0.813  0.00  0.00    +0.018 A 
ATOM      8  C   UNL     1       1.420  -0.267   0.843  0.00  0.00    +0.029 A 
ATOM      9  C   UNL     1       2.404   0.030  -0.102  0.00  0.00    +0.036 A 
ATOM     10  C   UNL     1       2.161   1.000  -1.073  0.00  0.00    +0.035 A 
ATOM     11  C   UNL     1       0.944   1.664  -1.094  0.00  0.00    +0.025 A 
ATOM     12 BR   UNL     1       1.744  -1.582   2.163  0.00  0.00    -0.050 Br
BRANCH  11  13
ATOM     13  N   UNL     1       0.696   2.637  -2.066  0.00  0.00    -0.358 N 
ATOM     14  H   UNL     1      -0.156   3.101  -2.081  0.00  0.00    +0.142 HD
ATOM     15  H   UNL     1       1.375   2.848  -2.725  0.00  0.00    +0.142 HD
ENDBRANCH  11  13
ENDBRANCH   1   9
BRANCH   5  16
ATOM     16  C   UNL     1       5.253   1.307  -0.259  0.00  0.00    +0.093 C 
ATOM     17  C   UNL     1       6.296   1.712   0.807  0.00  0.00    +0.006 C 
ATOM     18  C   UNL     1       7.633   1.647   0.027  0.00  0.00    -0.076 C 
ATOM     19  N   UNL     1       7.266   2.155  -1.319  0.00  0.00    +0.383 N 
ATOM     20  C   UNL     1       5.928   1.592  -1.614  0.00  0.00    -0.051 C 
ATOM     21  H   UNL     1       7.224   3.163  -1.311  0.00  0.00    -0.081 HD
BRANCH  19  22
ATOM     22  C   UNL     1       8.241   1.694  -2.317  0.00  0.00    -0.069 C 
ATOM     23  C   UNL     1       9.131   2.751  -2.974  0.00  0.00    -0.017 C 
ATOM     24  C   UNL     1       8.003   2.097  -3.774  0.00  0.00    -0.017 C 
ENDBRANCH  19  22
ENDBRANCH   5  16
TORSDOF 4
