REMARK  Name = ZINC06301763
REMARK  7 active torsions:
REMARK  status: ('A' for Active; 'I' for Inactive)
REMARK    1  A    between atoms: C_1  and  C_2
REMARK    2  A    between atoms: C_4  and  C_37
REMARK    3  A    between atoms: C_7  and  C_14
REMARK    4  A    between atoms: C_14  and  C_16
REMARK    5  A    between atoms: C_14  and  N_64
REMARK    6  A    between atoms: N_20  and  C_21
REMARK    7  A    between atoms: C_21  and  C_22
REMARK                            x       y       z     vdW  Elec       q    Type
REMARK                         _______ _______ _______ _____ _____    ______ ____
ROOT
ATOM      1  C   UNL     1       1.762   6.624  -1.939  0.00  0.00    +0.039 C 
ENDROOT
BRANCH   1   8
ATOM      2  C   UNL     1      -5.687   5.085  -4.341  0.00  0.00    +0.044 C 
ATOM      3  C   UNL     1      -4.363   5.349  -3.671  0.00  0.00    -0.048 A 
ATOM      4  C   UNL     1      -4.275   5.311  -2.286  0.00  0.00    +0.007 A 
ATOM      5  C   UNL     1      -3.084   5.546  -1.658  0.00  0.00    -0.041 A 
ATOM      6  C   UNL     1      -1.944   5.828  -2.418  0.00  0.00    +0.002 A 
ATOM      7  C   UNL     1      -0.653   6.086  -1.778  0.00  0.00    +0.018 A 
ATOM      8  C   UNL     1       0.418   6.354  -2.565  0.00  0.00    +0.011 A 
ATOM      9  C   UNL     1       0.278   6.387  -3.969  0.00  0.00    +0.251 A 
ATOM     10  O   UNL     1       1.252   6.635  -4.658  0.00  0.00    -0.268 OA
ATOM     11  N   UNL     1      -0.903   6.146  -4.566  0.00  0.00    -0.322 N 
ATOM     12  H   UNL     1      -0.964   6.173  -5.534  0.00  0.00    +0.169 HD
ATOM     13  C   UNL     1      -2.030   5.867  -3.822  0.00  0.00    +0.050 A 
ATOM     14  C   UNL     1      -3.252   5.624  -4.439  0.00  0.00    +0.029 A 
ATOM     15  C   UNL     1      -3.000   5.503  -0.154  0.00  0.00    +0.044 C 
ENDBRANCH   1   8
BRANCH   1  25
ATOM     16  C   UNL     1       3.530   8.268  -1.735  0.00  0.00    -0.072 C 
ATOM     17  C   UNL     1       4.201   9.403  -2.511  0.00  0.00    +0.017 C 
ATOM     18  C   UNL     1       3.210  10.511  -2.760  0.00  0.00    -0.048 A 
ATOM     19  C   UNL     1       3.692  11.759  -3.127  0.00  0.00    +0.004 A 
ATOM     20  C   UNL     1       2.819  12.800  -3.368  0.00  0.00    +0.000 A 
ATOM     21  C   UNL     1       1.457  12.599  -3.243  0.00  0.00    +0.000 A 
ATOM     22  C   UNL     1       0.977  11.358  -2.876  0.00  0.00    +0.002 A 
ATOM     23  C   UNL     1       1.853  10.310  -2.632  0.00  0.00    -0.061 A 
ATOM     24  C   UNL     1       1.280   8.976  -2.230  0.00  0.00    -0.041 C 
ATOM     25  N   UNL     1       2.281   7.917  -2.440  0.00  0.00    +0.392 N 
ATOM     26  H   UNL     1       2.475   7.832  -3.445  0.00  0.00    -0.080 HD
ENDBRANCH   1  25
BRANCH   1  27
ATOM     27  C   UNL     1       2.724   5.529  -2.322  0.00  0.00    +0.143 A 
ATOM     28  N   UNL     1       3.171   5.265  -3.525  0.00  0.00    -0.115 NA
ATOM     29  N   UNL     1       3.970   4.258  -3.441  0.00  0.00    -0.023 NA
ATOM     30  N   UNL     1       4.048   3.875  -2.215  0.00  0.00    -0.044 NA
ATOM     31  N   UNL     1       3.289   4.630  -1.494  0.00  0.00    -0.226 N 
BRANCH  31  32
ATOM     32  C   UNL     1       3.087   4.532  -0.046  0.00  0.00    +0.182 C 
BRANCH  32  33
ATOM     33  C   UNL     1       2.032   3.495   0.244  0.00  0.00    -0.026 A 
ATOM     34  C   UNL     1       2.378   2.159   0.311  0.00  0.00    +0.005 A 
ATOM     35  C   UNL     1       1.411   1.207   0.578  0.00  0.00    +0.000 A 
ATOM     36  C   UNL     1       0.097   1.593   0.772  0.00  0.00    +0.000 A 
ATOM     37  C   UNL     1      -0.247   2.930   0.710  0.00  0.00    +0.000 A 
ATOM     38  C   UNL     1       0.720   3.881   0.444  0.00  0.00    +0.005 A 
ENDBRANCH  32  33
ENDBRANCH  31  32
ENDBRANCH   1  27
TORSDOF 5
