REMARK  Name = ZINC45356459
REMARK  10 active torsions:
REMARK  status: ('A' for Active; 'I' for Inactive)
REMARK    1  A    between atoms: C_1  and  C_2
REMARK    2  A    between atoms: C_2  and  C_4
REMARK    3  A    between atoms: C_2  and  N_14
REMARK    4  A    between atoms: C_7  and  S_10
REMARK    5  A    between atoms: S_10  and  N_13
REMARK    6  A    between atoms: N_14  and  C_15
REMARK    7  A    between atoms: N_14  and  C_16
REMARK    8  A    between atoms: C_16  and  C_17
REMARK    9  A    between atoms: C_20  and  C_30
REMARK   10  A    between atoms: C_23  and  C_25
REMARK                            x       y       z     vdW  Elec       q    Type
REMARK                         _______ _______ _______ _____ _____    ______ ____
ROOT
ATOM      1  C   UNL     1       0.025  -0.017   2.401  0.00  0.00    +0.021 C 
ENDROOT
BRANCH   1   2
ATOM      2  C   UNL     1       0.820  -0.412   3.618  0.00  0.00    +0.219 C 
ATOM      3  O   UNL     1       1.858  -1.027   3.492  0.00  0.00    -0.276 OA
ATOM      4  N   UNL     1       0.379  -0.081   4.848  0.00  0.00    -0.186 N 
ATOM      5  C   UNL     1       1.057  -0.397   6.115  0.00  0.00    +0.143 C 
ATOM      6  C   UNL     1       0.128   0.207   7.185  0.00  0.00    +0.090 C 
ATOM      7  C   UNL     1      -1.003   0.815   6.386  0.00  0.00    +0.104 C 
ATOM      8  N   UNL     1      -0.792   0.622   5.127  0.00  0.00    -0.178 NA
BRANCH   7   9
ATOM      9  C   UNL     1      -2.157   1.519   6.953  0.00  0.00    +0.150 A 
ATOM     10  C   UNL     1      -3.188   2.067   6.246  0.00  0.00    +0.051 A 
ATOM     11  C   UNL     1      -4.066   2.636   7.187  0.00  0.00    +0.042 A 
ATOM     12  C   UNL     1      -3.539   2.412   8.408  0.00  0.00    +0.196 A 
ATOM     13  O   UNL     1      -2.390   1.732   8.264  0.00  0.00    -0.462 OA
ENDBRANCH   7   9
BRANCH   5  14
ATOM     14  C   UNL     1       1.177  -1.889   6.293  0.00  0.00    +0.013 A 
ATOM     15  C   UNL     1       2.203  -2.607   6.812  0.00  0.00    +0.013 A 
ATOM     16  C   UNL     1       2.092  -3.983   6.879  0.00  0.00    +0.008 A 
ATOM     17  C   UNL     1       0.961  -4.574   6.424  0.00  0.00    +0.045 A 
ATOM     18  S   UNL     1       0.002  -3.168   5.884  0.00  0.00    -0.100 S 
ENDBRANCH   5  14
ENDBRANCH   1   2
BRANCH   1  19
ATOM     19  N   UNL     1       0.713  -0.491   1.192  0.00  0.00    +0.388 N 
ATOM     20  C   UNL     1       0.733  -1.960   1.184  0.00  0.00    -0.095 C 
ATOM     21  H   UNL     1       1.659  -0.141   1.185  0.00  0.00    -0.081 HD
BRANCH  19  23
ATOM     22  C   UNL     1      -0.019   1.526   0.010  0.00  0.00    -0.008 C 
ATOM     23  C   UNL     1       0.002  -0.004   0.002  0.00  0.00    -0.041 C 
BRANCH  23  24
ATOM     24  C   UNL     1       0.707  -0.490  -1.238  0.00  0.00    -0.061 A 
ATOM     25  C   UNL     1       2.089  -0.511  -1.284  0.00  0.00    +0.004 A 
ATOM     26  C   UNL     1       2.736  -0.957  -2.421  0.00  0.00    +0.029 A 
ATOM     27  C   UNL     1       2.002  -1.382  -3.512  0.00  0.00    +0.105 A 
ATOM     28  C   UNL     1       0.620  -1.362  -3.466  0.00  0.00    +0.029 A 
ATOM     29  C   UNL     1      -0.027  -0.920  -2.327  0.00  0.00    +0.004 A 
BRANCH  27  30
ATOM     30  S   UNL     1       2.826  -1.949  -4.962  0.00  0.00    +0.056 S 
ATOM     31  O   UNL     1       1.916  -1.778  -6.040  0.00  0.00    -0.153 OA
ATOM     32  O   UNL     1       4.117  -1.356  -4.954  0.00  0.00    -0.153 OA
BRANCH  30  33
ATOM     33  N   UNL     1       3.054  -3.580  -4.790  0.00  0.00    -0.204 NA
ATOM     34  H   UNL     1       2.745  -4.031  -3.989  0.00  0.00    +0.144 HD
ATOM     35  H   UNL     1       3.497  -4.085  -5.490  0.00  0.00    +0.144 HD
ENDBRANCH  30  33
ENDBRANCH  27  30
ENDBRANCH  23  24
ENDBRANCH  19  23
ENDBRANCH   1  19
TORSDOF 8
