REMARK  Name = ZINC39836535
REMARK  12 active torsions:
REMARK  status: ('A' for Active; 'I' for Inactive)
REMARK    1  A    between atoms: C_1  and  C_2
REMARK    2  A    between atoms: C_2  and  C_3
REMARK    3  A    between atoms: C_3  and  O_4
REMARK    4  A    between atoms: O_4  and  C_5
REMARK    5  A    between atoms: C_9  and  C_11
REMARK    6  A    between atoms: N_13  and  C_14
REMARK    7  A    between atoms: C_15  and  C_28
REMARK    8  A    between atoms: C_20  and  C_24
REMARK    9  A    between atoms: C_24  and  C_25
REMARK   10  A    between atoms: C_24  and  C_26
REMARK   11  A    between atoms: C_24  and  C_27
REMARK   12  A    between atoms: N_30  and  C_31
REMARK                            x       y       z     vdW  Elec       q    Type
REMARK                         _______ _______ _______ _____ _____    ______ ____
ROOT
ATOM      1  C   UNL     1      -5.229  -8.108   0.029  0.00  0.00    +0.085 A 
ATOM      2  C   UNL     1      -6.359  -8.911   0.032  0.00  0.00    +0.069 A 
ATOM      3  C   UNL     1      -6.152 -10.349   0.030  0.00  0.00    -0.023 A 
ATOM      4  C   UNL     1      -4.853 -10.720   0.027  0.00  0.00    -0.004 A 
ATOM      5  S   UNL     1      -3.951  -9.198   0.018  0.00  0.00    -0.077 S 
ATOM      6  C   UNL     1      -4.317 -12.118   0.027  0.00  0.00    +0.046 C 
ATOM      7  C   UNL     1      -5.458 -13.072   0.411  0.00  0.00    -0.000 C 
ATOM      8  C   UNL     1      -6.695 -12.726  -0.422  0.00  0.00    +0.009 C 
ATOM      9  C   UNL     1      -7.269 -11.382   0.032  0.00  0.00    +0.037 C 
ENDROOT
BRANCH   1  12
ATOM     10  C   UNL     1      -3.972  -6.102   0.020  0.00  0.00    +0.249 C 
ATOM     11  O   UNL     1      -2.947  -6.756   0.012  0.00  0.00    -0.270 OA
ATOM     12  N   UNL     1      -5.168  -6.724   0.029  0.00  0.00    -0.275 N 
ATOM     13  H   UNL     1      -5.985  -6.202   0.036  0.00  0.00    +0.156 HD
BRANCH  10  18
ATOM     14  C   UNL     1      -2.616  -2.596   0.013  0.00  0.00    +0.121 A 
ATOM     15  C   UNL     1      -3.791  -1.855   0.023  0.00  0.00    +0.046 A 
ATOM     16  C   UNL     1      -5.017  -2.494   0.031  0.00  0.00    +0.004 A 
ATOM     17  C   UNL     1      -5.082  -3.873   0.030  0.00  0.00    +0.013 A 
ATOM     18  C   UNL     1      -3.906  -4.626   0.021  0.00  0.00    +0.040 A 
ATOM     19  C   UNL     1      -2.670  -3.979   0.006  0.00  0.00    +0.058 A 
BRANCH  14  20
ATOM     20  O   UNL     1      -1.414  -1.962   0.005  0.00  0.00    -0.492 OA
BRANCH  20  21
ATOM     21  C   UNL     1      -1.433  -0.534   0.013  0.00  0.00    +0.229 C 
BRANCH  21  23
ATOM     22  C   UNL     1      -0.019   1.526   0.010  0.00  0.00    +0.007 C 
ATOM     23  C   UNL     1       0.002  -0.004   0.002  0.00  0.00    +0.038 C 
ENDBRANCH  21  23
ENDBRANCH  20  21
ENDBRANCH  14  20
ENDBRANCH  10  18
ENDBRANCH   1  12
BRANCH   7  24
ATOM     24  C   UNL     1      -5.035 -14.515   0.130  0.00  0.00    -0.035 C 
ATOM     25  C   UNL     1      -3.791 -14.852   0.954  0.00  0.00    +0.011 C 
ATOM     26  C   UNL     1      -6.173 -15.463   0.514  0.00  0.00    +0.011 C 
ATOM     27  C   UNL     1      -4.719 -14.674  -1.359  0.00  0.00    +0.011 C 
ENDBRANCH   7  24
BRANCH   2  28
ATOM     28  C   UNL     1      -7.706  -8.334   0.036  0.00  0.00    +0.247 C 
ATOM     29  O   UNL     1      -8.269  -8.094  -1.016  0.00  0.00    -0.270 OA
ATOM     30  N   UNL     1      -8.322  -8.069   1.205  0.00  0.00    -0.307 N 
ATOM     31  H   UNL     1      -7.874  -8.260   2.044  0.00  0.00    +0.149 HD
BRANCH  30  32
ATOM     32  C   UNL     1      -9.669  -7.492   1.210  0.00  0.00    +0.096 C 
ATOM     33  C   UNL     1      -9.578  -5.960   1.118  0.00  0.00    +0.046 C 
ATOM     34  C   UNL     1     -10.953  -5.329   1.442  0.00  0.00    +0.168 C 
ATOM     35  S   UNL     1     -11.713  -6.571   2.565  0.00  0.00    -0.029 S 
ATOM     36  O   UNL     1     -12.881  -7.097   1.950  0.00  0.00    -0.174 OA
ATOM     37  O   UNL     1     -11.798  -6.022   3.873  0.00  0.00    -0.174 OA
ATOM     38  C   UNL     1     -10.392  -7.855   2.538  0.00  0.00    +0.188 C 
ENDBRANCH  30  32
ENDBRANCH   2  28
TORSDOF 8
