REMARK  Name = ZINC00178947
REMARK  5 active torsions:
REMARK  status: ('A' for Active; 'I' for Inactive)
REMARK    1  A    between atoms: C_3  and  N_22
REMARK    2  A    between atoms: C_6  and  C_7
REMARK    3  A    between atoms: C_7  and  C_9
REMARK    4  A    between atoms: C_10  and  N_21
REMARK    5  A    between atoms: N_13  and  C_14
REMARK                            x       y       z     vdW  Elec       q    Type
REMARK                         _______ _______ _______ _____ _____    ______ ____
ROOT
ATOM      1  C   UNL     1      -3.505   1.225   0.887  0.00  0.00    +0.135 A 
ATOM      2  C   UNL     1      -4.471   0.297   0.510  0.00  0.00    +0.146 A 
ATOM      3  N   UNL     1      -3.975  -0.401  -0.518  0.00  0.00    -0.220 NA
ATOM      4  C   UNL     1      -2.775   0.028  -0.811  0.00  0.00    +0.206 A 
ATOM      5  N   UNL     1      -2.435   1.032   0.020  0.00  0.00    -0.294 N 
ENDROOT
BRANCH   5   6
ATOM      6  C   UNL     1      -1.227   1.744   0.017  0.00  0.00    +0.048 A 
ATOM      7  C   UNL     1      -0.018   1.061   0.008  0.00  0.00    +0.027 A 
ATOM      8  C   UNL     1       1.170   1.765  -0.001  0.00  0.00    +0.022 A 
ATOM      9  C   UNL     1       1.157   3.149   0.003  0.00  0.00    +0.041 A 
ATOM     10  C   UNL     1      -0.047   3.831   0.018  0.00  0.00    +0.022 A 
ATOM     11  C   UNL     1      -1.238   3.132   0.028  0.00  0.00    +0.027 A 
ATOM     12 CL   UNL     1       2.652   4.030  -0.009  0.00  0.00    -0.084 Cl
ENDBRANCH   5   6
BRANCH   2  13
ATOM     13  N   UNL     1      -5.715   0.123   1.095  0.00  0.00    -0.341 N 
ATOM     14  H   UNL     1      -6.346  -0.507   0.715  0.00  0.00    +0.144 HD
ATOM     15  H   UNL     1      -5.954   0.632   1.886  0.00  0.00    +0.144 HD
ENDBRANCH   2  13
BRANCH   1  16
ATOM     16  C   UNL     1      -3.594   2.171   1.933  0.00  0.00    +0.213 C 
ATOM     17  O   UNL     1      -4.131   3.247   1.737  0.00  0.00    -0.285 OA
BRANCH  16  23
ATOM     18  C   UNL     1      -2.330   0.667   3.466  0.00  0.00    +0.014 A 
ATOM     19  C   UNL     1      -1.808   0.380   4.711  0.00  0.00    +0.033 A 
ATOM     20  C   UNL     1      -1.991   1.261   5.761  0.00  0.00    +0.126 A 
ATOM     21  C   UNL     1      -2.695   2.438   5.571  0.00  0.00    +0.033 A 
ATOM     22  C   UNL     1      -3.218   2.739   4.330  0.00  0.00    +0.014 A 
ATOM     23  C   UNL     1      -3.036   1.854   3.266  0.00  0.00    +0.024 A 
BRANCH  20  24
ATOM     24  N   UNL     1      -1.433   0.945   7.095  0.00  0.00    +0.056 N 
ATOM     25  O   UNL     1      -1.592   1.719   8.021  0.00  0.00    -0.126 OA
ATOM     26  O   UNL     1      -0.813  -0.090   7.266  0.00  0.00    -0.126 OA
ENDBRANCH  20  24
ENDBRANCH  16  23
ENDBRANCH   1  16
TORSDOF 5
