REMARK  Name = ZINC63558259
REMARK  5 active torsions:
REMARK  status: ('A' for Active; 'I' for Inactive)
REMARK    1  A    between atoms: C_7  and  C_10
REMARK    2  A    between atoms: C_10  and  C_11
REMARK    3  A    between atoms: C_11  and  N_12
REMARK    4  A    between atoms: C_13  and  C_15
REMARK    5  A    between atoms: C_15  and  N_16
REMARK                            x       y       z     vdW  Elec       q    Type
REMARK                         _______ _______ _______ _____ _____    ______ ____
ROOT
ATOM      1  C   UNL     1      -1.752  -6.557  -2.622  0.00  0.00    +0.209 C 
ENDROOT
BRANCH   1   2
ATOM      2  N   UNL     1      -1.976  -7.005  -3.998  0.00  0.00    -0.255 N 
ATOM      3  C   UNL     1      -3.037  -6.421  -4.688  0.00  0.00    +0.080 A 
ATOM      4  C   UNL     1      -4.225  -6.172  -4.007  0.00  0.00    +0.027 A 
ATOM      5  C   UNL     1      -5.285  -5.569  -4.654  0.00  0.00    +0.002 A 
ATOM      6  C   UNL     1      -5.170  -5.206  -5.983  0.00  0.00    +0.004 A 
ATOM      7  C   UNL     1      -3.998  -5.458  -6.669  0.00  0.00    +0.048 A 
ATOM      8  C   UNL     1      -2.933  -6.077  -6.030  0.00  0.00    +0.152 A 
ATOM      9  O   UNL     1      -1.820  -6.370  -6.748  0.00  0.00    -0.435 OA
ATOM     10  C   UNL     1      -1.495  -7.668  -6.930  0.00  0.00    +0.233 A 
ATOM     11  C   UNL     1      -1.200  -8.483  -5.830  0.00  0.00    +0.099 A 
ATOM     12  C   UNL     1      -0.913  -9.836  -6.045  0.00  0.00    +0.020 A 
ATOM     13  C   UNL     1      -0.908 -10.309  -7.346  0.00  0.00    +0.021 A 
ATOM     14  C   UNL     1      -1.184  -9.438  -8.384  0.00  0.00    +0.114 A 
ATOM     15  N   UNL     1      -1.464  -8.169  -8.156  0.00  0.00    -0.220 NA
ATOM     16  C   UNL     1      -1.147  -7.925  -4.474  0.00  0.00    +0.257 C 
ATOM     17  O   UNL     1      -0.281  -8.341  -3.728  0.00  0.00    -0.269 OA
ENDBRANCH   1   2
BRANCH   1  19
ATOM     18  N   UNL     1      -0.458  -4.798  -1.460  0.00  0.00    -0.314 N 
ATOM     19  C   UNL     1      -0.811  -5.380  -2.623  0.00  0.00    +0.231 C 
ATOM     20  O   UNL     1      -0.371  -4.957  -3.671  0.00  0.00    -0.274 OA
ATOM     21  H   UNL     1      -0.810  -5.136  -0.622  0.00  0.00    +0.149 HD
BRANCH  18  22
ATOM     22  C   UNL     1       0.457  -3.653  -1.462  0.00  0.00    +0.108 C 
BRANCH  22  23
ATOM     23  C   UNL     1       0.691  -3.186  -0.024  0.00  0.00    +0.052 C 
BRANCH  23  30
ATOM     24  C   UNL     1      -0.016   1.348   0.009  0.00  0.00    +0.001 A 
ATOM     25  C   UNL     1       1.166   2.101   0.002  0.00  0.00    +0.002 A 
ATOM     26  C   UNL     1       2.391   1.535  -0.013  0.00  0.00    +0.026 A 
ATOM     27  C   UNL     1       2.529   0.120  -0.022  0.00  0.00    +0.043 A 
ATOM     28  N   UNL     1       3.587  -0.654  -0.037  0.00  0.00    -0.380 N 
ATOM     29  C   UNL     1       3.143  -2.053  -0.041  0.00  0.00    +0.144 C 
ATOM     30  C   UNL     1       1.631  -2.008  -0.025  0.00  0.00    -0.040 C 
ATOM     31  C   UNL     1       1.295  -0.698  -0.014  0.00  0.00    -0.001 A 
ATOM     32  C   UNL     1       0.002  -0.004   0.002  0.00  0.00    +0.010 A 
ATOM     33  H   UNL     1       4.509  -0.353  -0.045  0.00  0.00    +0.160 HD
ENDBRANCH  23  30
ENDBRANCH  22  23
ENDBRANCH  18  22
ENDBRANCH   1  19
TORSDOF 5
