REMARK  Name = ZINC58912666
REMARK  8 active torsions:
REMARK  status: ('A' for Active; 'I' for Inactive)
REMARK    1  A    between atoms: C_1  and  C_2
REMARK    2  A    between atoms: C_5  and  N_8
REMARK    3  A    between atoms: C_9  and  C_11
REMARK    4  A    between atoms: N_13  and  N_14
REMARK    5  A    between atoms: C_15  and  C_16
REMARK    6  A    between atoms: C_18  and  C_30
REMARK    7  A    between atoms: N_19  and  C_22
REMARK    8  A    between atoms: C_20  and  C_21
REMARK                            x       y       z     vdW  Elec       q    Type
REMARK                         _______ _______ _______ _____ _____    ______ ____
ROOT
ATOM      1  N   UNL     1       0.547  -8.405   2.265  0.00  0.00    -0.187 NA
ATOM      2  C   UNL     1       0.659  -9.060   3.382  0.00  0.00    +0.140 C 
ENDROOT
BRANCH   2   3
ATOM      3  C   UNL     1       0.789 -10.527   3.366  0.00  0.00    +0.016 A 
ATOM      4  C   UNL     1       0.918 -11.412   4.529  0.00  0.00    +0.032 A 
ATOM      5  C   UNL     1       1.010 -12.665   4.049  0.00  0.00    +0.022 A 
ATOM      6  N   UNL     1       0.948 -12.623   2.685  0.00  0.00    -0.316 N 
ATOM      7  C   UNL     1       0.809 -11.337   2.265  0.00  0.00    +0.030 A 
ATOM      8  C   UNL     1       0.699 -10.883   0.833  0.00  0.00    +0.064 C 
ATOM      9  C   UNL     1       1.156 -13.913   4.881  0.00  0.00    +0.064 C 
BRANCH   6  10
ATOM     10  C   UNL     1       1.012 -13.741   1.842  0.00  0.00    +0.065 A 
ATOM     11  C   UNL     1      -0.152 -14.400   1.470  0.00  0.00    +0.029 A 
ATOM     12  C   UNL     1      -0.086 -15.501   0.639  0.00  0.00    +0.022 A 
ATOM     13  C   UNL     1       1.140 -15.949   0.178  0.00  0.00    +0.042 A 
ATOM     14  C   UNL     1       2.302 -15.296   0.547  0.00  0.00    +0.042 A 
ATOM     15  C   UNL     1       2.241 -14.189   1.373  0.00  0.00    +0.066 A 
ATOM     16 CL   UNL     1       3.699 -13.364   1.830  0.00  0.00    -0.081 Cl
ATOM     17 CL   UNL     1       1.219 -17.334  -0.866  0.00  0.00    -0.083 Cl
ENDBRANCH   6  10
ENDBRANCH   2   3
BRANCH   1  20
ATOM     18  C   UNL     1       0.306  -6.331   1.121  0.00  0.00    +0.318 C 
ATOM     19  O   UNL     1       0.309  -6.929   0.064  0.00  0.00    -0.263 OA
ATOM     20  N   UNL     1       0.423  -7.010   2.280  0.00  0.00    -0.199 N 
ATOM     21  H   UNL     1       0.421  -6.532   3.124  0.00  0.00    +0.178 HD
BRANCH  18  23
ATOM     22  N   UNL     1       0.058  -4.168  -0.021  0.00  0.00    -0.278 N 
ATOM     23  C   UNL     1       0.174  -4.847   1.138  0.00  0.00    +0.305 C 
ATOM     24  O   UNL     1       0.172  -4.249   2.194  0.00  0.00    -0.265 OA
ATOM     25  H   UNL     1      -0.017  -4.649  -0.860  0.00  0.00    +0.155 HD
BRANCH  22  30
ATOM     26  C   UNL     1       0.006   1.503   0.009  0.00  0.00    +0.044 C 
ATOM     27  C   UNL     1       0.020  -0.004   0.001  0.00  0.00    -0.050 A 
ATOM     28  C   UNL     1      -0.724  -0.696  -0.937  0.00  0.00    +0.005 A 
ATOM     29  C   UNL     1      -0.714  -2.077  -0.948  0.00  0.00    +0.023 A 
ATOM     30  C   UNL     1       0.045  -2.771  -0.014  0.00  0.00    +0.034 A 
ATOM     31  C   UNL     1       0.791  -2.072   0.927  0.00  0.00    +0.023 A 
ATOM     32  C   UNL     1       0.781  -0.692   0.928  0.00  0.00    +0.005 A 
ENDBRANCH  22  30
ENDBRANCH  18  23
ENDBRANCH   1  20
TORSDOF 5
