REMARK  Name = ZINC02758662
REMARK  15 active torsions:
REMARK  status: ('A' for Active; 'I' for Inactive)
REMARK    1  A    between atoms: C_1  and  C_2
REMARK    2  A    between atoms: C_2  and  O_3
REMARK    3  A    between atoms: O_3  and  C_4
REMARK    4  A    between atoms: C_4  and  C_6
REMARK    5  A    between atoms: C_7  and  C_36
REMARK    6  A    between atoms: C_8  and  C_35
REMARK    7  A    between atoms: C_10  and  N_11
REMARK    8  A    between atoms: C_12  and  C_14
REMARK    9  A    between atoms: C_14  and  S_15
REMARK   10  A    between atoms: S_15  and  C_16
REMARK   11  A    between atoms: C_19  and  C_28
REMARK   12  A    between atoms: N_20  and  C_21
REMARK   13  A    between atoms: C_24  and  C_27
REMARK   14  A    between atoms: C_30  and  C_34
REMARK   15  A    between atoms: N_32  and  C_33
REMARK                            x       y       z     vdW  Elec       q    Type
REMARK                         _______ _______ _______ _____ _____    ______ ____
ROOT
ATOM      1  C   UNL     1       0.511  -0.826   0.970  0.00  0.00    +0.197 A 
ATOM      2  N   UNL     1       0.334  -2.062   0.557  0.00  0.00    -0.122 NA
ATOM      3  N   UNL     1      -0.299  -2.070  -0.561  0.00  0.00    -0.126 NA
ATOM      4  C   UNL     1      -0.572  -0.839  -0.932  0.00  0.00    +0.187 A 
ATOM      5  N   UNL     1      -0.055  -0.002   0.035  0.00  0.00    -0.269 N 
ENDROOT
BRANCH   5   6
ATOM      6  C   UNL     1      -0.105   1.399   0.059  0.00  0.00    +0.051 A 
ATOM      7  C   UNL     1      -1.319   2.048   0.234  0.00  0.00    +0.026 A 
ATOM      8  C   UNL     1      -1.364   3.429   0.262  0.00  0.00    +0.005 A 
ATOM      9  C   UNL     1      -0.203   4.163   0.106  0.00  0.00    -0.050 A 
ATOM     10  C   UNL     1       1.007   3.519  -0.073  0.00  0.00    +0.005 A 
ATOM     11  C   UNL     1       1.059   2.139  -0.097  0.00  0.00    +0.026 A 
ATOM     12  C   UNL     1      -0.257   5.669   0.131  0.00  0.00    +0.044 C 
ENDBRANCH   5   6
BRANCH   4  13
ATOM     13  C   UNL     1      -1.290  -0.430  -2.151  0.00  0.00    +0.106 A 
ATOM     14  C   UNL     1      -1.464   0.861  -2.606  0.00  0.00    +0.055 A 
ATOM     15  C   UNL     1      -2.196   0.796  -3.791  0.00  0.00    +0.061 A 
ATOM     16  N   UNL     1      -2.466  -0.458  -4.050  0.00  0.00    -0.176 NA
ATOM     17  N   UNL     1      -1.912  -1.256  -3.042  0.00  0.00    -0.263 N 
ATOM     18  C   UNL     1      -1.988  -2.717  -2.957  0.00  0.00    +0.173 C 
ATOM     19  C   UNL     1      -2.612   1.976  -4.631  0.00  0.00    +0.067 C 
ENDBRANCH   4  13
BRANCH   1  20
ATOM     20  S   UNL     1       1.327  -0.325   2.449  0.00  0.00    -0.076 S 
BRANCH  20  21
ATOM     21  C   UNL     1       1.781  -1.942   3.122  0.00  0.00    +0.173 C 
BRANCH  21  23
ATOM     22  N   UNL     1       2.949  -2.831   5.113  0.00  0.00    -0.279 N 
ATOM     23  C   UNL     1       2.511  -1.757   4.426  0.00  0.00    +0.228 C 
ATOM     24  O   UNL     1       2.706  -0.640   4.859  0.00  0.00    -0.275 OA
ATOM     25  H   UNL     1       2.793  -3.724   4.767  0.00  0.00    +0.155 HD
BRANCH  22  30
ATOM     26  C   UNL     1       4.143  -3.635   7.157  0.00  0.00    +0.091 A 
ATOM     27  C   UNL     1       4.801  -3.170   8.355  0.00  0.00    -0.025 A 
ATOM     28  C   UNL     1       4.852  -1.840   8.552  0.00  0.00    -0.008 A 
ATOM     29  S   UNL     1       4.021  -1.182   7.121  0.00  0.00    -0.078 S 
ATOM     30  C   UNL     1       3.621  -2.660   6.313  0.00  0.00    +0.086 A 
ATOM     31  C   UNL     1       5.470  -1.088   9.702  0.00  0.00    +0.052 C 
ATOM     32  C   UNL     1       5.404  -4.133   9.345  0.00  0.00    +0.045 C 
BRANCH  26  33
ATOM     33  C   UNL     1       4.030  -5.061   6.846  0.00  0.00    +0.342 C 
ATOM     34  O   UNL     1       4.900  -5.613   6.199  0.00  0.00    -0.245 OA
BRANCH  33  35
ATOM     35  O   UNL     1       2.963  -5.763   7.278  0.00  0.00    -0.461 OA
BRANCH  35  37
ATOM     36  C   UNL     1       1.643  -7.798   7.505  0.00  0.00    +0.048 C 
ATOM     37  C   UNL     1       2.918  -7.173   6.933  0.00  0.00    +0.229 C 
ENDBRANCH  35  37
ENDBRANCH  33  35
ENDBRANCH  26  33
ENDBRANCH  22  30
ENDBRANCH  21  23
ENDBRANCH  20  21
ENDBRANCH   1  20
TORSDOF 9
