REMARK  Name = ZINC06136285
REMARK  11 active torsions:
REMARK  status: ('A' for Active; 'I' for Inactive)
REMARK    1  A    between atoms: C_1  and  O_2
REMARK    2  A    between atoms: O_2  and  C_3
REMARK    3  A    between atoms: C_3  and  C_4
REMARK    4  A    between atoms: C_4  and  N_5
REMARK    5  A    between atoms: C_6  and  C_10
REMARK    6  A    between atoms: C_10  and  C_12
REMARK    7  A    between atoms: C_10  and  N_66
REMARK    8  A    between atoms: C_16  and  O_24
REMARK    9  A    between atoms: O_24  and  C_25
REMARK   10  A    between atoms: N_28  and  C_31
REMARK   11  A    between atoms: C_34  and  N_37
REMARK                            x       y       z     vdW  Elec       q    Type
REMARK                         _______ _______ _______ _____ _____    ______ ____
ROOT
ATOM      1  C   UNL     1       1.383   3.500  -0.069  0.00  0.00    +0.039 C 
ENDROOT
BRANCH   1   2
ATOM      2  C   UNL     1       2.804   3.987   0.046  0.00  0.00    +0.011 A 
ATOM      3  C   UNL     1       3.133   4.893   1.000  0.00  0.00    +0.017 A 
ATOM      4  C   UNL     1       4.524   5.343   1.088  0.00  0.00    +0.002 A 
ATOM      5  C   UNL     1       4.922   6.272   2.055  0.00  0.00    +0.055 A 
ATOM      6  C   UNL     1       6.240   6.678   2.108  0.00  0.00    +0.121 A 
ATOM      7  C   UNL     1       7.170   6.167   1.205  0.00  0.00    +0.047 A 
ATOM      8  C   UNL     1       6.790   5.253   0.248  0.00  0.00    +0.030 A 
ATOM      9  C   UNL     1       5.466   4.829   0.178  0.00  0.00    +0.049 A 
ATOM     10  N   UNL     1       5.066   3.913  -0.773  0.00  0.00    -0.322 N 
ATOM     11  H   UNL     1       5.736   3.549  -1.419  0.00  0.00    +0.169 HD
ATOM     12  C   UNL     1       3.788   3.502  -0.843  0.00  0.00    +0.251 A 
ATOM     13  O   UNL     1       3.470   2.691  -1.696  0.00  0.00    -0.268 OA
BRANCH   6  14
ATOM     14  O   UNL     1       6.633   7.581   3.045  0.00  0.00    -0.495 OA
ATOM     15  C   UNL     1       8.011   7.959   3.044  0.00  0.00    +0.277 C 
ENDBRANCH   6  14
ENDBRANCH   1   2
BRANCH   1  21
ATOM     16  C   UNL     1      -0.019   1.526   0.010  0.00  0.00    -0.058 C 
ATOM     17  C   UNL     1       0.002  -0.004   0.002  0.00  0.00    +0.086 C 
ATOM     18  N   UNL     1       0.746  -0.488   1.173  0.00  0.00    -0.333 N 
ATOM     19  C   UNL     1       2.126   0.018   1.163  0.00  0.00    +0.086 C 
ATOM     20  C   UNL     1       2.105   1.549   1.171  0.00  0.00    -0.058 C 
ATOM     21  N   UNL     1       1.373   2.022  -0.023  0.00  0.00    +0.391 N 
ATOM     22  H   UNL     1       1.837   1.659  -0.864  0.00  0.00    -0.080 HD
BRANCH  18  23
ATOM     23  C   UNL     1       0.725  -1.883   1.238  0.00  0.00    +0.030 A 
ATOM     24  C   UNL     1       0.051  -2.615   0.270  0.00  0.00    +0.025 A 
ATOM     25  C   UNL     1       0.037  -3.994   0.334  0.00  0.00    +0.034 A 
ATOM     26  C   UNL     1       0.684  -4.646   1.368  0.00  0.00    +0.126 A 
ATOM     27  C   UNL     1       1.351  -3.921   2.337  0.00  0.00    +0.034 A 
ATOM     28  C   UNL     1       1.374  -2.541   2.276  0.00  0.00    +0.025 A 
BRANCH  26  29
ATOM     29  N   UNL     1       0.662  -6.125   1.437  0.00  0.00    +0.056 N 
ATOM     30  O   UNL     1       1.232  -6.700   2.346  0.00  0.00    -0.126 OA
ATOM     31  O   UNL     1       0.075  -6.766   0.583  0.00  0.00    -0.126 OA
ENDBRANCH  26  29
ENDBRANCH  18  23
ENDBRANCH   1  21
BRANCH   1  33
ATOM     32  N   UNL     1      -0.090   4.940  -1.573  0.00  0.00    -0.228 N 
ATOM     33  C   UNL     1       0.802   3.950  -1.385  0.00  0.00    +0.143 A 
ATOM     34  N   UNL     1       1.064   3.450  -2.567  0.00  0.00    -0.115 NA
ATOM     35  N   UNL     1       0.373   4.102  -3.437  0.00  0.00    -0.023 NA
ATOM     36  N   UNL     1      -0.323   5.005  -2.840  0.00  0.00    -0.044 NA
BRANCH  32  37
ATOM     37  C   UNL     1      -0.682   5.786  -0.534  0.00  0.00    +0.175 C 
BRANCH  37  38
ATOM     38  C   UNL     1       0.191   7.025  -0.326  0.00  0.00    +0.183 C 
BRANCH  38  40
ATOM     39  C   UNL     1       0.355   9.041   0.960  0.00  0.00    +0.194 C 
ATOM     40  O   UNL     1      -0.387   7.851   0.687  0.00  0.00    -0.381 OA
ENDBRANCH  38  40
ENDBRANCH  37  38
ENDBRANCH  32  37
ENDBRANCH   1  33
TORSDOF 9
