REMARK  Name = ZINC20978460
REMARK  4 active torsions:
REMARK  status: ('A' for Active; 'I' for Inactive)
REMARK    1  A    between atoms: C_1  and  C_2
REMARK    2  A    between atoms: C_4  and  C_7
REMARK    3  A    between atoms: C_10  and  S_12
REMARK    4  A    between atoms: S_12  and  N_15
REMARK                            x       y       z     vdW  Elec       q    Type
REMARK                         _______ _______ _______ _____ _____    ______ ____
ROOT
ATOM      1  C   UNL     1      -3.818   4.519   3.685  0.00  0.00    +0.059 A 
ATOM      2  C   UNL     1      -3.083   5.678   3.851  0.00  0.00    +0.021 A 
ATOM      3  C   UNL     1      -2.391   6.174   2.771  0.00  0.00    +0.037 A 
ATOM      4  C   UNL     1      -2.459   5.521   1.581  0.00  0.00    +0.150 A 
ATOM      5  S   UNL     1      -3.522   4.140   1.966  0.00  0.00    -0.065 S 
ENDROOT
BRANCH   1   9
ATOM      6  C   UNL     1      -6.833   1.208   6.049  0.00  0.00    +0.069 C 
ATOM      7  C   UNL     1      -5.933   2.368   5.707  0.00  0.00    +0.081 A 
ATOM      8  C   UNL     1      -5.347   2.637   4.456  0.00  0.00    +0.076 A 
ATOM      9  C   UNL     1      -4.632   3.789   4.668  0.00  0.00    +0.174 A 
ATOM     10  O   UNL     1      -4.822   4.112   5.961  0.00  0.00    -0.354 OA
ATOM     11  N   UNL     1      -5.547   3.317   6.513  0.00  0.00    -0.083 NA
ENDBRANCH   1   9
BRANCH   4  12
ATOM     12  S   UNL     1      -1.688   5.930   0.050  0.00  0.00    +0.107 S 
ATOM     13  O   UNL     1      -1.437   7.328   0.082  0.00  0.00    -0.146 OA
ATOM     14  O   UNL     1      -2.464   5.318  -0.971  0.00  0.00    -0.146 OA
BRANCH  12  15
ATOM     15  N   UNL     1      -0.210   5.183   0.032  0.00  0.00    -0.110 NA
ATOM     16  C   UNL     1      -0.132   3.796   0.024  0.00  0.00    +0.153 A 
ATOM     17  C   UNL     1       1.114   3.175   0.009  0.00  0.00    +0.048 A 
ATOM     18  C   UNL     1       1.176   1.794   0.001  0.00  0.00    +0.005 A 
ATOM     19  C   UNL     1      -0.013   1.076   0.008  0.00  0.00    +0.018 A 
ATOM     20  C   UNL     1      -1.213   1.757   0.017  0.00  0.00    +0.084 A 
ATOM     21  N   UNL     1      -1.243   3.076   0.030  0.00  0.00    -0.345 N 
ATOM     22  H   UNL     1      -2.222   3.577   0.046  0.00  0.00    +0.167 HD
ENDBRANCH  12  15
ENDBRANCH   4  12
TORSDOF 3
