REMARK  Name = ZINC39670722
REMARK  6 active torsions:
REMARK  status: ('A' for Active; 'I' for Inactive)
REMARK    1  A    between atoms: C_1  and  C_2
REMARK    2  A    between atoms: C_9  and  C_11
REMARK    3  A    between atoms: C_11  and  N_12
REMARK    4  A    between atoms: C_13  and  C_15
REMARK    5  A    between atoms: C_26  and  C_28
REMARK    6  A    between atoms: C_28  and  C_34
REMARK                            x       y       z     vdW  Elec       q    Type
REMARK                         _______ _______ _______ _____ _____    ______ ____
ROOT
ATOM      1  C   UNL     1      -2.954  -1.790   7.111  0.00  0.00    +0.100 C 
ATOM      2  C   UNL     1      -3.773  -0.517   6.801  0.00  0.00    +0.121 C 
ATOM      3  N   UNL     1      -4.636  -0.327   7.990  0.00  0.00    -0.300 N 
ATOM      4  C   UNL     1      -3.766  -0.680   9.137  0.00  0.00    +0.115 C 
ATOM      5  C   UNL     1      -2.951  -1.893   8.646  0.00  0.00    -0.004 C 
ATOM      6  C   UNL     1      -1.524  -1.820   9.178  0.00  0.00    -0.010 C 
ATOM      7  C   UNL     1      -1.542  -1.983  10.700  0.00  0.00    -0.082 C 
ATOM      8  N   UNL     1      -2.149  -3.273  11.049  0.00  0.00    +0.379 N 
ATOM      9  C   UNL     1      -3.551  -3.299  10.616  0.00  0.00    -0.082 C 
ATOM     10  C   UNL     1      -3.618  -3.191   9.089  0.00  0.00    -0.010 C 
ATOM     11  C   UNL     1      -5.922   0.075   8.021  0.00  0.00    +0.222 C 
ATOM     12  O   UNL     1      -6.473   0.263   9.086  0.00  0.00    -0.275 OA
ATOM     13  H   UNL     1      -1.643  -4.016  10.591  0.00  0.00    -0.086 HD
ATOM     14  H   UNL     1      -2.105  -3.405  12.048  0.00  0.00    -0.086 HD
ENDROOT
BRANCH  11  15
ATOM     15  C   UNL     1      -6.676   0.290   6.734  0.00  0.00    +0.044 C 
ATOM     16  C   UNL     1      -5.911   1.280   5.854  0.00  0.00    +0.016 C 
ATOM     17  C   UNL     1      -5.769   2.614   6.591  0.00  0.00    +0.001 C 
ATOM     18  C   UNL     1      -7.157   3.175   6.902  0.00  0.00    +0.000 C 
ATOM     19  C   UNL     1      -7.923   2.185   7.782  0.00  0.00    +0.001 C 
ATOM     20  C   UNL     1      -8.065   0.852   7.045  0.00  0.00    +0.016 C 
ATOM     21  C   UNL     1      -6.818  -1.043   5.997  0.00  0.00    +0.021 C 
ENDBRANCH  11  15
BRANCH   1  23
ATOM     22  N   UNL     1      -0.795  -2.746   6.375  0.00  0.00    -0.309 N 
ATOM     23  C   UNL     1      -1.547  -1.649   6.592  0.00  0.00    +0.219 C 
ATOM     24  O   UNL     1      -1.090  -0.547   6.370  0.00  0.00    -0.275 OA
ATOM     25  H   UNL     1      -1.160  -3.627   6.554  0.00  0.00    +0.149 HD
BRANCH  22  26
ATOM     26  C   UNL     1       0.573  -2.609   5.871  0.00  0.00    +0.159 C 
BRANCH  26  35
ATOM     27  C   UNL     1       1.792  -6.998   2.651  0.00  0.00    +0.064 C 
ATOM     28  C   UNL     1       2.185  -6.963   4.105  0.00  0.00    +0.022 A 
ATOM     29  C   UNL     1       2.849  -8.007   4.644  0.00  0.00    +0.021 A 
ATOM     30  C   UNL     1       3.221  -7.987   5.998  0.00  0.00    +0.005 A 
ATOM     31  C   UNL     1       2.910  -6.909   6.767  0.00  0.00    +0.045 A 
ATOM     32  C   UNL     1       2.216  -5.826   6.189  0.00  0.00    +0.116 A 
ATOM     33  N   UNL     1       1.870  -5.872   4.864  0.00  0.00    -0.305 N 
ATOM     34  C   UNL     1       1.222  -4.702   4.578  0.00  0.00    +0.115 A 
ATOM     35  C   UNL     1       1.191  -3.975   5.716  0.00  0.00    +0.051 A 
ATOM     36  N   UNL     1       1.790  -4.673   6.685  0.00  0.00    -0.342 N 
ATOM     37  H   UNL     1       1.904  -4.378   7.602  0.00  0.00    +0.167 HD
ENDBRANCH  26  35
ENDBRANCH  22  26
ENDBRANCH   1  23
TORSDOF 4
