REMARK  Name = ZINC03182067
REMARK  10 active torsions:
REMARK  status: ('A' for Active; 'I' for Inactive)
REMARK    1  A    between atoms: C_3  and  N_25
REMARK    2  A    between atoms: C_6  and  C_7
REMARK    3  A    between atoms: C_7  and  C_8
REMARK    4  A    between atoms: C_11  and  N_14
REMARK    5  A    between atoms: N_14  and  S_15
REMARK    6  A    between atoms: S_15  and  C_16
REMARK    7  A    between atoms: C_19  and  N_22
REMARK    8  A    between atoms: N_25  and  S_26
REMARK    9  A    between atoms: S_26  and  C_27
REMARK   10  A    between atoms: C_30  and  N_33
REMARK                            x       y       z     vdW  Elec       q    Type
REMARK                         _______ _______ _______ _____ _____    ______ ____
ROOT
ATOM      1  C   UNL     1       4.783  -7.923  -0.806  0.00  0.00    +0.070 C 
ENDROOT
BRANCH   1   7
ATOM      2  C   UNL     1       7.249  -7.805  -0.384  0.00  0.00    +0.006 A 
ATOM      3  C   UNL     1       8.349  -7.969   0.429  0.00  0.00    +0.024 A 
ATOM      4  C   UNL     1       8.186  -8.458   1.731  0.00  0.00    +0.037 A 
ATOM      5  C   UNL     1       6.903  -8.771   2.198  0.00  0.00    +0.024 A 
ATOM      6  C   UNL     1       5.813  -8.597   1.375  0.00  0.00    +0.006 A 
ATOM      7  C   UNL     1       5.982  -8.112   0.088  0.00  0.00    -0.043 A 
BRANCH   4   8
ATOM      8  N   UNL     1       9.275  -8.628   2.544  0.00  0.00    -0.285 N 
ATOM      9  H   UNL     1       9.244  -8.330   3.466  0.00  0.00    +0.160 HD
BRANCH   8  10
ATOM     10  S   UNL     1      10.567  -9.302   1.986  0.00  0.00    -0.025 S 
BRANCH  10  11
ATOM     11  C   UNL     1      11.503  -9.383   3.417  0.00  0.00    +0.027 A 
ATOM     12  C   UNL     1      11.040  -8.779   4.599  0.00  0.00    +0.018 A 
ATOM     13  C   UNL     1      11.794  -8.852   5.742  0.00  0.00    +0.034 A 
ATOM     14  C   UNL     1      13.016  -9.511   5.731  0.00  0.00    +0.126 A 
ATOM     15  C   UNL     1      13.483 -10.106   4.568  0.00  0.00    +0.034 A 
ATOM     16  C   UNL     1      12.741 -10.047   3.417  0.00  0.00    +0.018 A 
BRANCH  14  17
ATOM     17  N   UNL     1      13.825  -9.580   6.969  0.00  0.00    +0.056 N 
ATOM     18  O   UNL     1      14.985 -10.204   6.963  0.00  0.00    -0.126 OA
ATOM     19  O   UNL     1      13.386  -9.017   8.075  0.00  0.00    -0.126 OA
ENDBRANCH  14  17
ENDBRANCH  10  11
ENDBRANCH   8  10
ENDBRANCH   4   8
ENDBRANCH   1   7
BRANCH   1  20
ATOM     20  C   UNL     1       4.234  -6.532  -0.623  0.00  0.00    -0.043 A 
ATOM     21  C   UNL     1       4.700  -5.497  -1.418  0.00  0.00    +0.006 A 
ATOM     22  C   UNL     1       4.203  -4.222  -1.257  0.00  0.00    +0.024 A 
ATOM     23  C   UNL     1       3.224  -3.974  -0.287  0.00  0.00    +0.037 A 
ATOM     24  C   UNL     1       2.761  -5.024   0.516  0.00  0.00    +0.024 A 
ATOM     25  C   UNL     1       3.265  -6.295   0.339  0.00  0.00    +0.006 A 
BRANCH  23  26
ATOM     26  N   UNL     1       2.724  -2.709  -0.121  0.00  0.00    -0.285 N 
ATOM     27  H   UNL     1       3.327  -1.949  -0.097  0.00  0.00    +0.160 HD
BRANCH  26  28
ATOM     28  S   UNL     1       1.187  -2.491   0.029  0.00  0.00    -0.025 S 
BRANCH  28  29
ATOM     29  C   UNL     1       1.131  -0.780   0.054  0.00  0.00    +0.027 A 
ATOM     30  C   UNL     1       2.321  -0.034   0.074  0.00  0.00    +0.018 A 
ATOM     31  C   UNL     1       2.266   1.336   0.093  0.00  0.00    +0.034 A 
ATOM     32  C   UNL     1       1.039   1.986   0.094  0.00  0.00    +0.126 A 
ATOM     33  C   UNL     1      -0.142   1.257   0.074  0.00  0.00    +0.034 A 
ATOM     34  C   UNL     1      -0.106  -0.113   0.055  0.00  0.00    +0.018 A 
BRANCH  32  35
ATOM     35  N   UNL     1       0.991   3.465   0.115  0.00  0.00    +0.056 N 
ATOM     36  O   UNL     1       2.109   4.161   0.133  0.00  0.00    -0.126 OA
ATOM     37  O   UNL     1      -0.171   4.086   0.115  0.00  0.00    -0.126 OA
ENDBRANCH  32  35
ENDBRANCH  28  29
ENDBRANCH  26  28
ENDBRANCH  23  26
ENDBRANCH   1  20
TORSDOF 10
