REMARK  Name = ZINC27791530
REMARK  7 active torsions:
REMARK  status: ('A' for Active; 'I' for Inactive)
REMARK    1  A    between atoms: C_6  and  C_7
REMARK    2  A    between atoms: C_7  and  N_8
REMARK    3  A    between atoms: N_10  and  C_29
REMARK    4  A    between atoms: C_13  and  C_16
REMARK    5  A    between atoms: C_16  and  C_17
REMARK    6  A    between atoms: N_19  and  C_20
REMARK    7  A    between atoms: C_23  and  C_27
REMARK                            x       y       z     vdW  Elec       q    Type
REMARK                         _______ _______ _______ _____ _____    ______ ____
ROOT
ATOM      1  N   UNL     1      -4.387   6.383   1.614  0.00  0.00    -0.258 NA
ATOM      2  C   UNL     1      -4.781   6.051   2.811  0.00  0.00    +0.159 C 
ATOM      3  N   UNL     1      -6.024   5.596   3.204  0.00  0.00    -0.247 N 
ATOM      4  C   UNL     1      -6.300   5.291   4.460  0.00  0.00    +0.235 C 
ATOM      5  O   UNL     1      -7.393   4.891   4.801  0.00  0.00    -0.274 OA
ATOM      6  C   UNL     1      -5.162   5.472   5.451  0.00  0.00    +0.149 C 
ATOM      7  S   UNL     1      -3.838   6.071   4.328  0.00  0.00    -0.077 S 
ENDROOT
BRANCH   3   8
ATOM      8  C   UNL     1      -7.074   5.446   2.193  0.00  0.00    +0.083 C 
ATOM      9  C   UNL     1      -6.617   4.448   1.127  0.00  0.00    +0.023 C 
ATOM     10  C   UNL     1      -7.713   4.291   0.072  0.00  0.00    +0.002 C 
ATOM     11  C   UNL     1      -7.989   5.646  -0.583  0.00  0.00    +0.000 C 
ATOM     12  C   UNL     1      -8.446   6.644   0.483  0.00  0.00    +0.002 C 
ATOM     13  C   UNL     1      -7.349   6.801   1.538  0.00  0.00    +0.023 C 
ENDBRANCH   3   8
BRANCH   1  14
ATOM     14  C   UNL     1      -3.014   6.847   1.397  0.00  0.00    +0.179 C 
BRANCH  14  20
ATOM     15  C   UNL     1      -2.303   6.005  -0.849  0.00  0.00    +0.009 A 
ATOM     16  C   UNL     1      -1.632   5.103  -1.653  0.00  0.00    +0.050 A 
ATOM     17  C   UNL     1      -0.936   4.049  -1.082  0.00  0.00    +0.166 A 
ATOM     18  C   UNL     1      -0.915   3.903   0.303  0.00  0.00    +0.167 A 
ATOM     19  C   UNL     1      -1.590   4.811   1.102  0.00  0.00    +0.055 A 
ATOM     20  C   UNL     1      -2.282   5.860   0.525  0.00  0.00    -0.022 A 
ATOM     21  O   UNL     1      -0.168   2.801   0.616  0.00  0.00    -0.453 OA
ATOM     22  C   UNL     1       0.599   2.512  -0.568  0.00  0.00    +0.466 C 
ATOM     23  O   UNL     1      -0.206   3.039  -1.639  0.00  0.00    -0.453 OA
ENDBRANCH  14  20
ENDBRANCH   1  14
BRANCH   6  24
ATOM     24  C   UNL     1      -5.511   6.517   6.512  0.00  0.00    +0.120 C 
BRANCH  24  25
ATOM     25  C   UNL     1      -4.411   6.576   7.541  0.00  0.00    +0.219 C 
ATOM     26  O   UNL     1      -3.443   5.854   7.435  0.00  0.00    -0.275 OA
ATOM     27  N   UNL     1      -4.504   7.432   8.578  0.00  0.00    -0.285 N 
ATOM     28  H   UNL     1      -5.338   8.147   8.628  0.00  0.00    +0.155 HD
BRANCH  27  29
ATOM     29  C   UNL     1      -3.541   7.410   9.588  0.00  0.00    +0.035 A 
ATOM     30  C   UNL     1      -2.948   6.207   9.956  0.00  0.00    +0.024 A 
ATOM     31  C   UNL     1      -1.994   6.181  10.948  0.00  0.00    +0.022 A 
ATOM     32  C   UNL     1      -1.629   7.366  11.595  0.00  0.00    +0.070 A 
ATOM     33  C   UNL     1      -2.231   8.573  11.227  0.00  0.00    +0.060 A 
ATOM     34  C   UNL     1      -3.182   8.591  10.229  0.00  0.00    +0.044 A 
ATOM     35 CL   UNL     1      -1.782  10.048  12.026  0.00  0.00    -0.082 Cl
BRANCH  32  36
ATOM     36  C   UNL     1      -0.642   7.342  12.632  0.00  0.00    +0.101 C 
ATOM     37  N   UNL     1       0.141   7.324  13.454  0.00  0.00    -0.191 NA
ENDBRANCH  32  36
ENDBRANCH  27  29
ENDBRANCH  24  25
ENDBRANCH   6  24
TORSDOF 7
