REMARK  Name = ZINC55064371
REMARK  8 active torsions:
REMARK  status: ('A' for Active; 'I' for Inactive)
REMARK    1  A    between atoms: C_1  and  C_2
REMARK    2  A    between atoms: C_2  and  C_3
REMARK    3  A    between atoms: C_3  and  C_5
REMARK    4  A    between atoms: C_3  and  N_6
REMARK    5  A    between atoms: N_9  and  C_12
REMARK    6  A    between atoms: C_12  and  C_14
REMARK    7  A    between atoms: C_12  and  C_16
REMARK    8  A    between atoms: C_14  and  N_15
REMARK                            x       y       z     vdW  Elec       q    Type
REMARK                         _______ _______ _______ _____ _____    ______ ____
ROOT
ATOM      1  C   UNL     1      -4.790   2.113  -3.493  0.00  0.00    +0.105 C 
ENDROOT
BRANCH   1   5
ATOM      2  N   UNL     1      -2.562  -0.608  -1.147  0.00  0.00    +0.383 N 
ATOM      3  C   UNL     1      -4.001  -0.854  -1.310  0.00  0.00    -0.063 C 
ATOM      4  C   UNL     1      -4.512  -0.095  -2.536  0.00  0.00    +0.066 C 
ATOM      5  N   UNL     1      -4.261   1.342  -2.359  0.00  0.00    -0.298 NA
ATOM      6  C   UNL     1      -2.827   1.602  -2.169  0.00  0.00    +0.066 C 
ATOM      7  C   UNL     1      -2.329   0.828  -0.946  0.00  0.00    -0.063 C 
ATOM      8  H   UNL     1      -2.072  -0.916  -1.973  0.00  0.00    -0.081 HD
BRANCH   2   9
ATOM      9  C   UNL     1      -2.068  -1.351   0.020  0.00  0.00    -0.072 C 
ATOM     10  C   UNL     1      -2.873  -0.952   1.258  0.00  0.00    -0.013 C 
BRANCH   9  12
ATOM     11  C   UNL     1      -1.396  -3.258  -1.448  0.00  0.00    +0.002 C 
ATOM     12  C   UNL     1      -2.225  -2.853  -0.228  0.00  0.00    -0.019 C 
ENDBRANCH   9  12
ENDBRANCH   2   9
ENDBRANCH   1   5
BRANCH   1  13
ATOM     13  C   UNL     1      -4.147   1.634  -4.769  0.00  0.00    +0.123 A 
ATOM     14  C   UNL     1      -4.795   1.318  -5.905  0.00  0.00    +0.062 A 
ATOM     15  C   UNL     1      -3.812   0.922  -6.841  0.00  0.00    +0.070 A 
ATOM     16  C   UNL     1      -2.620   1.019  -6.220  0.00  0.00    +0.184 A 
ATOM     17  O   UNL     1      -2.830   1.456  -4.966  0.00  0.00    -0.450 OA
ATOM     18 BR   UNL     1      -0.938   0.616  -6.983  0.00  0.00    -0.007 Br
ATOM     19 BR   UNL     1      -4.112   0.362  -8.622  0.00  0.00    -0.046 Br
ENDBRANCH   1  13
BRANCH   1  20
ATOM     20  C   UNL     1      -4.478   3.597  -3.290  0.00  0.00    -0.059 C 
BRANCH  20  21
ATOM     21  N   UNL     1      -5.001   4.034  -1.989  0.00  0.00    +0.379 N 
ATOM     22  H   UNL     1      -4.795   5.013  -1.855  0.00  0.00    -0.090 HD
ATOM     23  H   UNL     1      -6.000   3.894  -1.964  0.00  0.00    -0.090 HD
ATOM     24  H   UNL     1      -4.568   3.496  -1.254  0.00  0.00    -0.090 HD
ENDBRANCH  20  21
ENDBRANCH   1  20
TORSDOF 6
