REMARK  Name = ZINC35198409
REMARK  9 active torsions:
REMARK  status: ('A' for Active; 'I' for Inactive)
REMARK    1  A    between atoms: C_1  and  C_2
REMARK    2  A    between atoms: C_2  and  C_4
REMARK    3  A    between atoms: C_2  and  N_26
REMARK    4  A    between atoms: C_7  and  S_18
REMARK    5  A    between atoms: N_8  and  C_9
REMARK    6  A    between atoms: C_12  and  N_15
REMARK    7  A    between atoms: S_18  and  C_19
REMARK    8  A    between atoms: C_19  and  C_20
REMARK    9  A    between atoms: C_27  and  C_29
REMARK                            x       y       z     vdW  Elec       q    Type
REMARK                         _______ _______ _______ _____ _____    ______ ____
ROOT
ATOM      1  C   UNL     1      -1.406  -0.566  -0.007  0.00  0.00    +0.159 A 
ATOM      2  N   UNL     1      -2.222  -0.599   1.008  0.00  0.00    -0.131 NA
ATOM      3  N   UNL     1      -3.341  -1.126   0.659  0.00  0.00    -0.122 NA
ATOM      4  C   UNL     1      -3.301  -1.462  -0.610  0.00  0.00    +0.196 A 
ATOM      5  N   UNL     1      -2.065  -1.109  -1.078  0.00  0.00    -0.273 N 
ENDROOT
BRANCH   5   6
ATOM      6  C   UNL     1      -1.573  -1.273  -2.381  0.00  0.00    +0.050 A 
ATOM      7  C   UNL     1      -1.262  -0.161  -3.152  0.00  0.00    +0.028 A 
ATOM      8  C   UNL     1      -0.779  -0.326  -4.436  0.00  0.00    +0.035 A 
ATOM      9  C   UNL     1      -0.604  -1.596  -4.953  0.00  0.00    +0.126 A 
ATOM     10  C   UNL     1      -0.913  -2.705  -4.187  0.00  0.00    +0.035 A 
ATOM     11  C   UNL     1      -1.392  -2.547  -2.901  0.00  0.00    +0.028 A 
BRANCH   9  12
ATOM     12  N   UNL     1      -0.086  -1.769  -6.328  0.00  0.00    +0.056 N 
ATOM     13  O   UNL     1       0.184  -0.800  -6.999  0.00  0.00    -0.126 OA
ATOM     14  O   UNL     1       0.066  -2.879  -6.782  0.00  0.00    -0.126 OA
ENDBRANCH   9  12
ENDBRANCH   5   6
BRANCH   1  16
ATOM     15  C   UNL     1      -0.042   1.506   0.016  0.00  0.00    +0.036 C 
ATOM     16  C   UNL     1       0.001  -0.024  -0.005  0.00  0.00    +0.139 C 
BRANCH  16  17
ATOM     17  N   UNL     1       0.709  -0.509   1.182  0.00  0.00    -0.302 N 
ATOM     18  C   UNL     1       2.054  -0.600   1.174  0.00  0.00    +0.245 C 
ATOM     19  O   UNL     1       2.679  -0.279   0.181  0.00  0.00    -0.270 OA
ATOM     20  H   UNL     1       0.210  -0.765   1.974  0.00  0.00    +0.150 HD
BRANCH  18  21
ATOM     21  C   UNL     1       2.767  -1.088   2.368  0.00  0.00    +0.044 A 
ATOM     22  C   UNL     1       2.076  -1.338   3.545  0.00  0.00    +0.013 A 
ATOM     23  C   UNL     1       2.742  -1.798   4.673  0.00  0.00    +0.001 A 
ATOM     24  C   UNL     1       4.087  -2.017   4.659  0.00  0.00    +0.008 A 
ATOM     25  C   UNL     1       4.828  -1.778   3.489  0.00  0.00    -0.017 A 
ATOM     26  C   UNL     1       4.166  -1.314   2.326  0.00  0.00    -0.006 A 
ATOM     27  C   UNL     1       4.905  -1.080   1.158  0.00  0.00    +0.009 A 
ATOM     28  C   UNL     1       6.248  -1.307   1.153  0.00  0.00    +0.001 A 
ATOM     29  C   UNL     1       6.901  -1.769   2.294  0.00  0.00    +0.001 A 
ATOM     30  C   UNL     1       6.216  -1.995   3.449  0.00  0.00    +0.008 A 
ENDBRANCH  18  21
ENDBRANCH  16  17
ENDBRANCH   1  16
BRANCH   4  31
ATOM     31  S   UNL     1      -4.596  -2.217  -1.536  0.00  0.00    -0.081 S 
BRANCH  31  32
ATOM     32  C   UNL     1      -5.943  -2.402  -0.335  0.00  0.00    +0.112 C 
BRANCH  32  33
ATOM     33  C   UNL     1      -7.129  -3.045  -1.007  0.00  0.00    -0.037 A 
ATOM     34  C   UNL     1      -8.086  -2.258  -1.620  0.00  0.00    +0.004 A 
ATOM     35  C   UNL     1      -9.175  -2.848  -2.236  0.00  0.00    +0.000 A 
ATOM     36  C   UNL     1      -9.305  -4.224  -2.239  0.00  0.00    +0.000 A 
ATOM     37  C   UNL     1      -8.348  -5.011  -1.627  0.00  0.00    +0.000 A 
ATOM     38  C   UNL     1      -7.257  -4.421  -1.015  0.00  0.00    +0.004 A 
ENDBRANCH  32  33
ENDBRANCH  31  32
ENDBRANCH   4  31
TORSDOF 8
