REMARK  Name = ZINC19500652
REMARK  12 active torsions:
REMARK  status: ('A' for Active; 'I' for Inactive)
REMARK    1  A    between atoms: C_1  and  C_2
REMARK    2  A    between atoms: C_2  and  C_3
REMARK    3  A    between atoms: C_3  and  C_5
REMARK    4  A    between atoms: C_3  and  N_18
REMARK    5  A    between atoms: N_9  and  C_10
REMARK    6  A    between atoms: C_10  and  C_11
REMARK    7  A    between atoms: C_11  and  C_12
REMARK    8  A    between atoms: N_18  and  C_19
REMARK    9  A    between atoms: N_18  and  C_25
REMARK   10  A    between atoms: C_19  and  C_20
REMARK   11  A    between atoms: C_25  and  C_26
REMARK   12  A    between atoms: C_32  and  C_38
REMARK                            x       y       z     vdW  Elec       q    Type
REMARK                         _______ _______ _______ _____ _____    ______ ____
ROOT
ATOM      1  N   UNL     1      -0.639   0.039  -2.666  0.00  0.00    +0.394 N 
ATOM      2  H   UNL     1      -1.453  -0.557  -2.681  0.00  0.00    -0.080 HD
ENDROOT
BRANCH   1   3
ATOM      3  C   UNL     1       0.071  -0.134  -1.392  0.00  0.00    +0.003 C 
BRANCH   3   4
ATOM      4  C   UNL     1       1.204   0.856  -1.311  0.00  0.00    +0.138 A 
ATOM      5  N   UNL     1       2.113   1.083  -2.228  0.00  0.00    -0.115 NA
ATOM      6  N   UNL     1       2.905   1.998  -1.786  0.00  0.00    -0.023 NA
ATOM      7  N   UNL     1       2.525   2.361  -0.611  0.00  0.00    -0.044 NA
ATOM      8  N   UNL     1       1.476   1.684  -0.285  0.00  0.00    -0.231 N 
BRANCH   8   9
ATOM      9  C   UNL     1       0.724   1.793   0.968  0.00  0.00    +0.152 C 
BRANCH   9  10
ATOM     10  C   UNL     1       1.304   0.821   1.997  0.00  0.00    +0.058 C 
BRANCH  10  11
ATOM     11  C   UNL     1       0.530   0.933   3.285  0.00  0.00    -0.046 A 
ATOM     12  C   UNL     1       0.926   1.838   4.252  0.00  0.00    +0.004 A 
ATOM     13  C   UNL     1       0.217   1.941   5.434  0.00  0.00    +0.000 A 
ATOM     14  C   UNL     1      -0.888   1.139   5.649  0.00  0.00    +0.000 A 
ATOM     15  C   UNL     1      -1.285   0.235   4.682  0.00  0.00    +0.000 A 
ATOM     16  C   UNL     1      -0.578   0.135   3.498  0.00  0.00    +0.004 A 
ENDBRANCH  10  11
ENDBRANCH   9  10
ENDBRANCH   8   9
ENDBRANCH   3   4
BRANCH   3  18
ATOM     17  C   UNL     1      -0.526  -2.559  -1.322  0.00  0.00    +0.002 C 
ATOM     18  C   UNL     1       0.629  -1.556  -1.308  0.00  0.00    -0.011 C 
ENDBRANCH   3  18
ENDBRANCH   1   3
BRANCH   1  19
ATOM     19  C   UNL     1       0.252  -0.322  -3.777  0.00  0.00    -0.002 C 
BRANCH  19  20
ATOM     20  C   UNL     1       0.184  -1.809  -4.013  0.00  0.00    +0.089 A 
ATOM     21  C   UNL     1      -0.827  -2.466  -4.610  0.00  0.00    +0.042 A 
ATOM     22  C   UNL     1      -0.477  -3.835  -4.620  0.00  0.00    +0.041 A 
ATOM     23  C   UNL     1       0.727  -3.934  -4.027  0.00  0.00    +0.195 A 
ATOM     24  O   UNL     1       1.125  -2.703  -3.667  0.00  0.00    -0.470 OA
ENDBRANCH  19  20
ENDBRANCH   1  19
BRANCH   1  25
ATOM     25  C   UNL     1      -1.056   1.440  -2.809  0.00  0.00    -0.036 C 
BRANCH  25  26
ATOM     26  C   UNL     1      -1.894   1.591  -4.052  0.00  0.00    +0.001 A 
ATOM     27  C   UNL     1      -3.246   1.541  -3.966  0.00  0.00    +0.017 A 
ATOM     28  C   UNL     1      -4.031   1.691  -5.193  0.00  0.00    -0.001 A 
ATOM     29  C   UNL     1      -5.429   1.649  -5.167  0.00  0.00    +0.010 A 
ATOM     30  C   UNL     1      -6.132   1.793  -6.329  0.00  0.00    +0.001 A 
ATOM     31  C   UNL     1      -5.472   1.981  -7.536  0.00  0.00    +0.005 A 
ATOM     32  C   UNL     1      -4.096   2.026  -7.585  0.00  0.00    -0.026 A 
ATOM     33  C   UNL     1      -3.358   1.883  -6.414  0.00  0.00    +0.052 A 
ATOM     34  N   UNL     1      -1.980   1.925  -6.434  0.00  0.00    -0.322 N 
ATOM     35  H   UNL     1      -1.518   2.056  -7.277  0.00  0.00    +0.169 HD
ATOM     36  C   UNL     1      -1.268   1.790  -5.302  0.00  0.00    +0.251 A 
ATOM     37  O   UNL     1      -0.051   1.838  -5.356  0.00  0.00    -0.268 OA
ATOM     38  C   UNL     1      -3.392   2.230  -8.902  0.00  0.00    +0.046 C 
ENDBRANCH  25  26
ENDBRANCH   1  25
TORSDOF 10
