REMARK  Name = ZINC08986509
REMARK  9 active torsions:
REMARK  status: ('A' for Active; 'I' for Inactive)
REMARK    1  A    between atoms: C_1  and  C_2
REMARK    2  A    between atoms: C_4  and  O_9
REMARK    3  A    between atoms: O_9  and  C_10
REMARK    4  A    between atoms: C_10  and  C_11
REMARK    5  A    between atoms: C_11  and  N_12
REMARK    6  A    between atoms: C_14  and  C_21
REMARK    7  A    between atoms: C_31  and  C_33
REMARK    8  A    between atoms: C_33  and  C_34
REMARK    9  A    between atoms: C_33  and  C_35
REMARK                            x       y       z     vdW  Elec       q    Type
REMARK                         _______ _______ _______ _____ _____    ______ ____
ROOT
ATOM      1  N   UNL     1       0.086  -6.234  -3.837  0.00  0.00    -0.343 N 
ATOM      2  C   UNL     1       1.193  -7.000  -3.886  0.00  0.00    +0.095 A 
ATOM      3  C   UNL     1       0.853  -8.320  -3.659  0.00  0.00    +0.001 A 
ATOM      4  C   UNL     1      -0.609  -8.337  -3.454  0.00  0.00    +0.007 A 
ATOM      5  C   UNL     1      -1.029  -7.003  -3.572  0.00  0.00    +0.050 A 
ATOM      6  C   UNL     1      -2.378  -6.698  -3.421  0.00  0.00    +0.026 A 
ATOM      7  C   UNL     1      -3.284  -7.701  -3.153  0.00  0.00    +0.002 A 
ATOM      8  C   UNL     1      -2.866  -9.018  -3.033  0.00  0.00    +0.001 A 
ATOM      9  C   UNL     1      -1.535  -9.341  -3.188  0.00  0.00    +0.010 A 
ENDROOT
BRANCH   3  10
ATOM     10  C   UNL     1       1.728  -9.429  -3.628  0.00  0.00    +0.026 C 
ATOM     11  C   UNL     1       3.048  -9.258  -3.252  0.00  0.00    +0.081 C 
ATOM     12  C   UNL     1       3.547  -7.966  -2.709  0.00  0.00    +0.152 C 
ATOM     13  N   UNL     1       2.816  -7.163  -1.981  0.00  0.00    -0.283 NA
ATOM     14  N   UNL     1       4.887  -7.692  -3.056  0.00  0.00    -0.152 N 
ATOM     15  C   UNL     1       5.693  -8.764  -3.377  0.00  0.00    +0.181 C 
ATOM     16  N   UNL     1       5.340 -10.019  -3.494  0.00  0.00    -0.152 NA
ATOM     17  C   UNL     1       4.039 -10.354  -3.362  0.00  0.00    +0.273 C 
ATOM     18  O   UNL     1       3.687 -11.523  -3.340  0.00  0.00    -0.268 OA
ATOM     19  S   UNL     1       7.271  -7.988  -3.601  0.00  0.00    -0.038 S 
ATOM     20  C   UNL     1       6.739  -6.300  -3.355  0.00  0.00    +0.102 C 
ATOM     21  N   UNL     1       5.472  -6.445  -3.092  0.00  0.00    -0.169 NA
ATOM     22  H   UNL     1       3.168  -6.303  -1.704  0.00  0.00    +0.188 HD
BRANCH  20  23
ATOM     23  C   UNL     1       7.550  -5.032  -3.433  0.00  0.00    +0.040 C 
ATOM     24  C   UNL     1       7.623  -4.561  -4.887  0.00  0.00    +0.014 C 
ATOM     25  C   UNL     1       6.887  -3.949  -2.579  0.00  0.00    +0.014 C 
ENDBRANCH  20  23
ENDBRANCH   3  10
BRANCH   1  26
ATOM     26  C   UNL     1       0.069  -4.782  -4.033  0.00  0.00    +0.163 C 
BRANCH  26  27
ATOM     27  C   UNL     1       0.141  -4.083  -2.674  0.00  0.00    +0.250 C 
BRANCH  27  28
ATOM     28  O   UNL     1       0.123  -2.667  -2.864  0.00  0.00    -0.490 OA
BRANCH  28  32
ATOM     29  C   UNL     1       0.214   1.776  -0.845  0.00  0.00    +0.045 C 
ATOM     30  C   UNL     1       0.228   0.273  -0.724  0.00  0.00    -0.029 A 
ATOM     31  C   UNL     1       0.169  -0.511  -1.860  0.00  0.00    +0.050 A 
ATOM     32  C   UNL     1       0.182  -1.894  -1.748  0.00  0.00    +0.121 A 
ATOM     33  C   UNL     1       0.253  -2.486  -0.495  0.00  0.00    +0.047 A 
ATOM     34  C   UNL     1       0.312  -1.698   0.638  0.00  0.00    +0.024 A 
ATOM     35  C   UNL     1       0.305  -0.319   0.524  0.00  0.00    +0.044 A 
ATOM     36 CL   UNL     1       0.386   0.669   1.949  0.00  0.00    -0.083 Cl
ENDBRANCH  28  32
ENDBRANCH  27  28
ENDBRANCH  26  27
ENDBRANCH   1  26
TORSDOF 6
