REMARK  Name = ZINC63478290
REMARK  6 active torsions:
REMARK  status: ('A' for Active; 'I' for Inactive)
REMARK    1  A    between atoms: C_1  and  C_2
REMARK    2  A    between atoms: C_2  and  C_3
REMARK    3  A    between atoms: C_3  and  C_5
REMARK    4  A    between atoms: C_3  and  N_6
REMARK    5  A    between atoms: C_11  and  C_29
REMARK    6  A    between atoms: C_29  and  C_30
REMARK                            x       y       z     vdW  Elec       q    Type
REMARK                         _______ _______ _______ _____ _____    ______ ____
ROOT
ATOM      1  N   UNL     1       2.148  -0.104   1.172  0.00  0.00    -0.239 N 
ATOM      2  C   UNL     1       2.959  -0.473   0.174  0.00  0.00    +0.227 C 
ATOM      3  O   UNL     1       2.640  -1.168  -0.767  0.00  0.00    -0.275 OA
ATOM      4  C   UNL     1       4.334   0.113   0.401  0.00  0.00    +0.107 C 
ATOM      5  C   UNL     1       5.324  -1.028   0.720  0.00  0.00    +0.072 C 
ATOM      6  N   UNL     1       6.098  -0.544   1.894  0.00  0.00    -0.295 NA
ATOM      7  C   UNL     1       5.098   0.156   2.722  0.00  0.00    +0.136 C 
ATOM      8  C   UNL     1       4.171   0.902   1.730  0.00  0.00    +0.122 C 
ATOM      9  C   UNL     1       2.723   0.672   2.098  0.00  0.00    +0.228 C 
ATOM     10  O   UNL     1       2.170   1.118   3.080  0.00  0.00    -0.275 OA
ATOM     11  C   UNL     1       4.335  -0.804   3.589  0.00  0.00    +0.006 A 
ATOM     12  C   UNL     1       3.539  -1.896   3.322  0.00  0.00    +0.046 A 
ATOM     13  C   UNL     1       2.959  -2.603   4.363  0.00  0.00    +0.124 A 
ATOM     14  C   UNL     1       3.182  -2.207   5.671  0.00  0.00    +0.040 A 
ATOM     15  C   UNL     1       3.978  -1.113   5.941  0.00  0.00    +0.026 A 
ATOM     16  C   UNL     1       4.564  -0.398   4.900  0.00  0.00    +0.039 A 
ATOM     17  N   UNL     1       5.395   0.726   4.919  0.00  0.00    -0.283 N 
ATOM     18  C   UNL     1       5.752   1.114   3.680  0.00  0.00    +0.243 C 
ATOM     19  O   UNL     1       6.464   2.053   3.392  0.00  0.00    -0.273 OA
ATOM     20  F   UNL     1       2.178  -3.674   4.102  0.00  0.00    -0.205 F 
ATOM     21  H   UNL     1       6.511  -1.314   2.398  0.00  0.00    +0.124 HD
ATOM     22  H   UNL     1       5.681   1.174   5.730  0.00  0.00    +0.155 HD
ENDROOT
BRANCH   1  23
ATOM     23  C   UNL     1       0.742  -0.511   1.242  0.00  0.00    +0.081 C 
ATOM     24  C   UNL     1       0.655  -2.037   1.299  0.00  0.00    +0.028 C 
BRANCH  23  26
ATOM     25  C   UNL     1      -0.019   1.526   0.010  0.00  0.00    +0.006 C 
ATOM     26  C   UNL     1       0.002  -0.004   0.002  0.00  0.00    +0.019 C 
ENDBRANCH  23  26
ENDBRANCH   1  23
BRANCH   5  27
ATOM     27  C   UNL     1       6.254  -1.275  -0.469  0.00  0.00    +0.052 C 
BRANCH  27  28
ATOM     28  C   UNL     1       7.128  -2.469  -0.185  0.00  0.00    -0.040 C 
ATOM     29  C   UNL     1       6.904  -3.748  -0.564  0.00  0.00    -0.001 A 
ATOM     30  C   UNL     1       5.823  -4.386  -1.324  0.00  0.00    +0.010 A 
ATOM     31  C   UNL     1       5.876  -5.718  -1.549  0.00  0.00    +0.001 A 
ATOM     32  C   UNL     1       6.936  -6.504  -1.076  0.00  0.00    +0.002 A 
ATOM     33  C   UNL     1       7.966  -5.990  -0.371  0.00  0.00    +0.026 A 
ATOM     34  C   UNL     1       8.013  -4.600  -0.076  0.00  0.00    +0.043 A 
ATOM     35  N   UNL     1       8.887  -3.875   0.579  0.00  0.00    -0.380 N 
ATOM     36  C   UNL     1       8.434  -2.479   0.576  0.00  0.00    +0.144 C 
ATOM     37  H   UNL     1       9.699  -4.206   0.994  0.00  0.00    +0.160 HD
ENDBRANCH  27  28
ENDBRANCH   5  27
TORSDOF 4
