REMARK  Name = ZINC43607835
REMARK  10 active torsions:
REMARK  status: ('A' for Active; 'I' for Inactive)
REMARK    1  A    between atoms: C_1  and  C_2
REMARK    2  A    between atoms: C_2  and  C_35
REMARK    3  A    between atoms: C_7  and  C_11
REMARK    4  A    between atoms: C_11  and  N_12
REMARK    5  A    between atoms: C_15  and  C_18
REMARK    6  A    between atoms: C_18  and  C_26
REMARK    7  A    between atoms: N_21  and  C_25
REMARK    8  A    between atoms: C_26  and  C_27
REMARK    9  A    between atoms: C_31  and  O_33
REMARK   10  A    between atoms: O_33  and  C_34
REMARK                            x       y       z     vdW  Elec       q    Type
REMARK                         _______ _______ _______ _____ _____    ______ ____
ROOT
ATOM      1  C   UNL     1       4.436  -3.519   6.225  0.00  0.00    +0.119 C 
ATOM      2  C   UNL     1       5.301  -2.304   6.498  0.00  0.00    +0.247 C 
ATOM      3  O   UNL     1       5.043  -1.371   7.229  0.00  0.00    -0.273 OA
ATOM      4  N   UNL     1       6.416  -2.477   5.761  0.00  0.00    -0.227 N 
ATOM      5  C   UNL     1       6.376  -3.620   5.068  0.00  0.00    +0.309 C 
ATOM      6  O   UNL     1       7.268  -3.994   4.331  0.00  0.00    -0.252 OA
ATOM      7  N   UNL     1       5.240  -4.309   5.277  0.00  0.00    -0.284 N 
ATOM      8  C   UNL     1       7.532  -1.529   5.724  0.00  0.00    +0.143 C 
ATOM      9  H   UNL     1       4.997  -5.161   4.881  0.00  0.00    +0.151 HD
ENDROOT
BRANCH   1  13
ATOM     10  N   UNL     1       1.353  -3.159   3.285  0.00  0.00    +0.382 N 
ATOM     11  C   UNL     1       2.052  -1.924   3.659  0.00  0.00    -0.078 C 
ATOM     12  C   UNL     1       3.381  -2.269   4.333  0.00  0.00    -0.013 C 
ATOM     13  C   UNL     1       3.108  -3.103   5.589  0.00  0.00    +0.018 C 
ATOM     14  C   UNL     1       2.314  -4.352   5.198  0.00  0.00    -0.013 C 
ATOM     15  C   UNL     1       1.025  -3.929   4.491  0.00  0.00    -0.078 C 
ATOM     16  H   UNL     1       1.948  -3.712   2.686  0.00  0.00    -0.081 HD
BRANCH  10  17
ATOM     17  C   UNL     1       0.116  -2.822   2.569  0.00  0.00    -0.047 C 
BRANCH  17  23
ATOM     18  C   UNL     1      -0.019   1.526   0.010  0.00  0.00    +0.012 C 
ATOM     19  C   UNL     1       0.002  -0.004   0.002  0.00  0.00    -0.025 C 
ATOM     20  C   UNL     1       1.147  -0.608  -0.837  0.00  0.00    -0.000 C 
ATOM     21  C   UNL     1       0.881  -2.091  -1.135  0.00  0.00    +0.031 C 
ATOM     22  C   UNL     1       0.545  -2.814   0.146  0.00  0.00    -0.029 C 
ATOM     23  C   UNL     1       0.457  -2.139   1.270  0.00  0.00    -0.086 C 
ATOM     24  C   UNL     1       0.726  -0.624   1.211  0.00  0.00    +0.019 C 
ATOM     25  C   UNL     1       2.024  -0.376   0.405  0.00  0.00    +0.012 C 
ATOM     26  C   UNL     1      -1.369  -0.620  -0.281  0.00  0.00    +0.012 C 
ENDBRANCH  17  23
ENDBRANCH  10  17
ENDBRANCH   1  13
BRANCH   1  27
ATOM     27  C   UNL     1       4.190  -4.309   7.512  0.00  0.00    +0.070 C 
BRANCH  27  28
ATOM     28  C   UNL     1       5.512  -4.706   8.118  0.00  0.00    -0.041 A 
ATOM     29  C   UNL     1       6.103  -5.905   7.762  0.00  0.00    +0.004 A 
ATOM     30  C   UNL     1       7.315  -6.272   8.316  0.00  0.00    +0.004 A 
ATOM     31  C   UNL     1       7.939  -5.442   9.227  0.00  0.00    +0.045 A 
ATOM     32  C   UNL     1       7.348  -4.239   9.586  0.00  0.00    +0.120 A 
ATOM     33  C   UNL     1       6.135  -3.870   9.024  0.00  0.00    +0.049 A 
BRANCH  32  34
ATOM     34  O   UNL     1       7.961  -3.421  10.482  0.00  0.00    -0.495 OA
ATOM     35  C   UNL     1       9.211  -3.863  11.015  0.00  0.00    +0.277 C 
ENDBRANCH  32  34
ENDBRANCH  27  28
ENDBRANCH   1  27
TORSDOF 6
