REMARK  Name = ZINC08956922
REMARK  12 active torsions:
REMARK  status: ('A' for Active; 'I' for Inactive)
REMARK    1  A    between atoms: C_1  and  C_2
REMARK    2  A    between atoms: C_2  and  N_3
REMARK    3  A    between atoms: N_3  and  C_4
REMARK    4  A    between atoms: N_3  and  S_6
REMARK    5  A    between atoms: C_4  and  C_5
REMARK    6  A    between atoms: S_6  and  C_9
REMARK    7  A    between atoms: C_12  and  C_15
REMARK    8  A    between atoms: C_15  and  N_17
REMARK    9  A    between atoms: N_19  and  C_29
REMARK   10  A    between atoms: C_21  and  C_28
REMARK   11  A    between atoms: C_23  and  C_27
REMARK   12  A    between atoms: C_29  and  C_30
REMARK                            x       y       z     vdW  Elec       q    Type
REMARK                         _______ _______ _______ _____ _____    ______ ____
ROOT
ATOM      1  C   UNL     1       1.630  -2.312   3.309  0.00  0.00    +0.269 C 
ATOM      2  O   UNL     1       0.843  -2.645   4.178  0.00  0.00    -0.268 OA
ENDROOT
BRANCH   1   3
ATOM      3  N   UNL     1       1.182  -1.756   2.179  0.00  0.00    -0.152 NA
ATOM      4  C   UNL     1      -0.121  -1.566   2.004  0.00  0.00    +0.167 A 
ATOM      5  N   UNL     1      -0.757  -1.020   0.932  0.00  0.00    -0.317 N 
ATOM      6  C   UNL     1      -2.135  -0.908   0.927  0.00  0.00    +0.061 A 
ATOM      7  C   UNL     1      -2.962  -0.383  -0.078  0.00  0.00    -0.026 A 
ATOM      8  C   UNL     1      -4.327  -0.347   0.083  0.00  0.00    +0.008 A 
ATOM      9  C   UNL     1      -4.927  -0.826   1.236  0.00  0.00    -0.049 A 
ATOM     10  C   UNL     1      -4.135  -1.349   2.243  0.00  0.00    +0.020 A 
ATOM     11  C   UNL     1      -2.770  -1.385   2.083  0.00  0.00    +0.039 A 
ATOM     12  S   UNL     1      -1.420  -1.951   3.086  0.00  0.00    -0.052 S 
ATOM     13  C   UNL     1      -6.425  -0.776   1.392  0.00  0.00    +0.044 C 
ATOM     14  C   UNL     1      -2.348   0.148  -1.347  0.00  0.00    +0.046 C 
BRANCH   5  15
ATOM     15  C   UNL     1       0.019  -0.556  -0.221  0.00  0.00    +0.151 C 
BRANCH  15  16
ATOM     16  C   UNL     1       0.329   0.910  -0.061  0.00  0.00    -0.013 C 
ATOM     17  C   UNL     1       1.569   1.327  -0.115  0.00  0.00    +0.005 C 
ENDBRANCH  15  16
ENDBRANCH   5  15
ENDBRANCH   1   3
BRANCH   1  21
ATOM     18  C   UNL     1       5.799  -2.921   3.872  0.00  0.00    +0.106 A 
ATOM     19  C   UNL     1       4.908  -3.300   4.860  0.00  0.00    +0.029 A 
ATOM     20  C   UNL     1       3.553  -3.105   4.683  0.00  0.00    +0.015 A 
ATOM     21  C   UNL     1       3.083  -2.524   3.505  0.00  0.00    +0.039 A 
ATOM     22  C   UNL     1       3.986  -2.150   2.510  0.00  0.00    +0.015 A 
ATOM     23  C   UNL     1       5.338  -2.345   2.701  0.00  0.00    +0.029 A 
BRANCH  18  24
ATOM     24  S   UNL     1       7.527  -3.174   4.104  0.00  0.00    +0.061 S 
ATOM     25  O   UNL     1       8.191  -2.237   3.267  0.00  0.00    -0.153 OA
ATOM     26  O   UNL     1       7.744  -3.228   5.508  0.00  0.00    -0.153 OA
BRANCH  24  27
ATOM     27  N   UNL     1       7.886  -4.677   3.511  0.00  0.00    -0.177 NA
BRANCH  27  29
ATOM     28  C   UNL     1       9.799  -4.829   1.994  0.00  0.00    +0.022 C 
ATOM     29  C   UNL     1       8.273  -4.837   2.107  0.00  0.00    +0.106 C 
ENDBRANCH  27  29
BRANCH  27  30
ATOM     30  C   UNL     1       7.817  -5.847   4.390  0.00  0.00    +0.106 C 
ATOM     31  C   UNL     1       6.450  -6.517   4.242  0.00  0.00    +0.022 C 
ENDBRANCH  27  30
ENDBRANCH  24  27
ENDBRANCH  18  24
ENDBRANCH   1  21
TORSDOF 8
