REMARK  Name = ZINC20294268
REMARK  10 active torsions:
REMARK  status: ('A' for Active; 'I' for Inactive)
REMARK    1  A    between atoms: C_1  and  C_2
REMARK    2  A    between atoms: C_4  and  C_29
REMARK    3  A    between atoms: N_5  and  C_7
REMARK    4  A    between atoms: C_7  and  C_8
REMARK    5  A    between atoms: C_8  and  O_10
REMARK    6  A    between atoms: O_10  and  N_11
REMARK    7  A    between atoms: C_12  and  C_13
REMARK    8  A    between atoms: C_16  and  O_19
REMARK    9  A    between atoms: O_19  and  C_20
REMARK   10  A    between atoms: C_20  and  C_21
REMARK                            x       y       z     vdW  Elec       q    Type
REMARK                         _______ _______ _______ _____ _____    ______ ____
ROOT
ATOM      1  N   UNL     1      -0.857   1.669   3.424  0.00  0.00    -0.059 NA
ATOM      2  C   UNL     1      -0.448   1.390   4.629  0.00  0.00    +0.163 C 
ATOM      3  N   UNL     1       0.683   0.614   4.812  0.00  0.00    -0.340 N 
ATOM      4  H   UNL     1       1.028   0.378   5.830  0.00  0.00    +0.144 HD
ATOM      5  H   UNL     1       1.236   0.233   3.942  0.00  0.00    +0.144 HD
ENDROOT
BRANCH   2   6
ATOM      6  C   UNL     1      -1.191   1.902   5.800  0.00  0.00    +0.018 A 
ATOM      7  C   UNL     1      -2.329   2.690   5.616  0.00  0.00    +0.015 A 
ATOM      8  C   UNL     1      -3.022   3.162   6.710  0.00  0.00    +0.046 A 
ATOM      9  C   UNL     1      -2.584   2.863   7.994  0.00  0.00    +0.121 A 
ATOM     10  C   UNL     1      -1.450   2.083   8.180  0.00  0.00    +0.046 A 
ATOM     11  C   UNL     1      -0.754   1.604   7.091  0.00  0.00    +0.015 A 
BRANCH   9  12
ATOM     12  O   UNL     1      -3.267   3.333   9.069  0.00  0.00    -0.487 OA
BRANCH  12  13
ATOM     13  C   UNL     1      -4.425   4.129   8.805  0.00  0.00    +0.264 C 
BRANCH  13  14
ATOM     14  C   UNL     1      -5.047   4.558  10.109  0.00  0.00    -0.010 A 
ATOM     15  C   UNL     1      -6.015   3.771  10.705  0.00  0.00    +0.008 A 
ATOM     16  C   UNL     1      -6.582   4.161  11.903  0.00  0.00    +0.020 A 
ATOM     17  C   UNL     1      -6.189   5.345  12.501  0.00  0.00    +0.041 A 
ATOM     18  C   UNL     1      -5.225   6.135  11.901  0.00  0.00    +0.020 A 
ATOM     19  C   UNL     1      -4.654   5.741  10.706  0.00  0.00    +0.008 A 
ATOM     20 CL   UNL     1      -6.906   5.839  14.003  0.00  0.00    -0.084 Cl
ENDBRANCH  13  14
ENDBRANCH  12  13
ENDBRANCH   9  12
ENDBRANCH   2   6
BRANCH   1  21
ATOM     21  O   UNL     1      -0.244   1.248   2.460  0.00  0.00    -0.314 OA
BRANCH  21  22
ATOM     22  C   UNL     1      -0.718   1.572   1.248  0.00  0.00    +0.357 C 
ATOM     23  O   UNL     1      -1.714   2.256   1.150  0.00  0.00    -0.246 OA
BRANCH  22  24
ATOM     24  C   UNL     1      -0.013   1.086   0.008  0.00  0.00    +0.266 C 
BRANCH  24  29
ATOM     25  C   UNL     1      -3.228   1.319  -3.840  0.00  0.00    +0.068 C 
ATOM     26  C   UNL     1      -2.136   1.652  -2.856  0.00  0.00    +0.074 A 
ATOM     27  C   UNL     1      -1.349   2.809  -2.865  0.00  0.00    +0.061 A 
ATOM     28  C   UNL     1      -0.487   2.734  -1.823  0.00  0.00    +0.051 A 
ATOM     29  N   UNL     1      -0.721   1.571  -1.179  0.00  0.00    -0.256 N 
ATOM     30  N   UNL     1      -1.757   0.908  -1.849  0.00  0.00    -0.175 NA
ATOM     31  C   UNL     1       0.548   3.764  -1.451  0.00  0.00    +0.066 C 
ATOM     32 BR   UNL     1      -1.468   4.227  -4.110  0.00  0.00    -0.047 Br
ENDBRANCH  24  29
ENDBRANCH  22  24
ENDBRANCH  21  22
ENDBRANCH   1  21
TORSDOF 8
