REMARK  Name = ZINC09291118
REMARK  10 active torsions:
REMARK  status: ('A' for Active; 'I' for Inactive)
REMARK    1  A    between atoms: C_1  and  C_2
REMARK    2  A    between atoms: C_2  and  C_3
REMARK    3  A    between atoms: C_6  and  N_9
REMARK    4  A    between atoms: C_24  and  C_26
REMARK    5  A    between atoms: C_28  and  O_36
REMARK    6  A    between atoms: C_29  and  O_34
REMARK    7  A    between atoms: C_31  and  O_32
REMARK    8  A    between atoms: O_32  and  C_33
REMARK    9  A    between atoms: O_34  and  C_35
REMARK   10  A    between atoms: O_36  and  C_37
REMARK                            x       y       z     vdW  Elec       q    Type
REMARK                         _______ _______ _______ _____ _____    ______ ____
ROOT
ATOM      1  N   UNL     1       3.321   3.163   0.111  0.00  0.00    -0.202 N 
ATOM      2  C   UNL     1       3.435   2.158  -0.766  0.00  0.00    +0.257 C 
ATOM      3  O   UNL     1       4.393   1.969  -1.491  0.00  0.00    -0.269 OA
ATOM      4  C   UNL     1       2.265   1.340  -0.725  0.00  0.00    +0.058 C 
ATOM      5  C   UNL     1       1.395   1.927   0.122  0.00  0.00    +0.086 C 
ATOM      6  C   UNL     1       2.120   3.098   0.711  0.00  0.00    +0.265 C 
ATOM      7  O   UNL     1       1.701   3.848   1.568  0.00  0.00    -0.269 OA
ATOM      8  S   UNL     1      -0.262   1.507   0.524  0.00  0.00    -0.082 S 
ATOM      9  C   UNL     1      -0.165  -0.239   0.724  0.00  0.00    +0.034 A 
ATOM     10  C   UNL     1      -0.500  -0.821   1.938  0.00  0.00    +0.017 A 
ATOM     11  C   UNL     1      -0.478  -2.196   2.072  0.00  0.00    +0.001 A 
ATOM     12  C   UNL     1      -0.136  -2.988   0.990  0.00  0.00    +0.002 A 
ATOM     13  C   UNL     1       0.219  -2.412  -0.214  0.00  0.00    +0.024 A 
ATOM     14  C   UNL     1       0.241  -1.025  -0.348  0.00  0.00    +0.042 A 
ATOM     15  N   UNL     1       0.797  -0.478  -1.491  0.00  0.00    -0.332 N 
ATOM     16  C   UNL     1       2.134   0.066  -1.510  0.00  0.00    +0.141 C 
ATOM     17  H   UNL     1       0.271  -0.460  -2.306  0.00  0.00    +0.147 HD
ENDROOT
BRANCH   1  21
ATOM     18  C   UNL     1       6.235   6.046   0.865  0.00  0.00    -0.048 A 
ATOM     19  C   UNL     1       5.034   6.084   1.549  0.00  0.00    +0.005 A 
ATOM     20  C   UNL     1       4.066   5.130   1.301  0.00  0.00    +0.024 A 
ATOM     21  C   UNL     1       4.301   4.133   0.365  0.00  0.00    +0.045 A 
ATOM     22  C   UNL     1       5.510   4.094  -0.316  0.00  0.00    +0.024 A 
ATOM     23  C   UNL     1       6.472   5.054  -0.069  0.00  0.00    +0.005 A 
BRANCH  18  25
ATOM     24  C   UNL     1       8.207   6.604   2.262  0.00  0.00    +0.009 C 
ATOM     25  C   UNL     1       7.289   7.088   1.137  0.00  0.00    +0.032 C 
ENDBRANCH  18  25
ENDBRANCH   1  21
BRANCH  16  26
ATOM     26  C   UNL     1       3.081  -0.956  -0.936  0.00  0.00    +0.023 A 
ATOM     27  C   UNL     1       3.556  -0.808   0.354  0.00  0.00    +0.058 A 
ATOM     28  C   UNL     1       4.427  -1.746   0.884  0.00  0.00    +0.162 A 
ATOM     29  C   UNL     1       4.823  -2.838   0.117  0.00  0.00    +0.165 A 
ATOM     30  C   UNL     1       4.346  -2.984  -1.175  0.00  0.00    +0.095 A 
ATOM     31  C   UNL     1       3.470  -2.045  -1.700  0.00  0.00    +0.129 A 
BRANCH  31  32
ATOM     32  O   UNL     1       2.996  -2.191  -2.966  0.00  0.00    -0.495 OA
ATOM     33  C   UNL     1       3.439  -3.337  -3.696  0.00  0.00    +0.277 C 
ENDBRANCH  31  32
BRANCH  29  34
ATOM     34  O   UNL     1       5.678  -3.760   0.635  0.00  0.00    -0.491 OA
ATOM     35  C   UNL     1       6.042  -4.854  -0.209  0.00  0.00    +0.277 C 
ENDBRANCH  29  34
BRANCH  28  36
ATOM     36  O   UNL     1       4.894  -1.601   2.154  0.00  0.00    -0.491 OA
ATOM     37  C   UNL     1       4.359  -0.521   2.922  0.00  0.00    +0.277 C 
ENDBRANCH  28  36
ENDBRANCH  16  26
TORSDOF 6
