REMARK  Name = ZINC10100465
REMARK  11 active torsions:
REMARK  status: ('A' for Active; 'I' for Inactive)
REMARK    1  A    between atoms: C_1  and  N_60
REMARK    2  A    between atoms: C_2  and  N_60
REMARK    3  A    between atoms: C_3  and  C_4
REMARK    4  A    between atoms: C_3  and  N_60
REMARK    5  A    between atoms: C_4  and  C_5
REMARK    6  A    between atoms: C_5  and  N_6
REMARK    7  A    between atoms: C_17  and  C_19
REMARK    8  A    between atoms: C_22  and  S_25
REMARK    9  A    between atoms: S_25  and  N_28
REMARK   10  A    between atoms: N_28  and  C_29
REMARK   11  A    between atoms: N_28  and  C_30
REMARK                            x       y       z     vdW  Elec       q    Type
REMARK                         _______ _______ _______ _____ _____    ______ ____
ROOT
ATOM      1  N   UNL     1       3.603  -0.293  -0.198  0.00  0.00    -0.246 N 
ATOM      2  C   UNL     1       2.319   0.053   0.190  0.00  0.00    +0.168 A 
ATOM      3  N   UNL     1       1.330  -0.729   0.554  0.00  0.00    -0.223 NA
ATOM      4  C   UNL     1       0.119  -0.250   0.911  0.00  0.00    +0.099 A 
ATOM      5  C   UNL     1      -0.020   1.157   0.869  0.00  0.00    +0.042 A 
ATOM      6  S   UNL     1       1.589   1.679   0.323  0.00  0.00    -0.052 S 
ATOM      7  C   UNL     1      -1.186   1.797   1.207  0.00  0.00    +0.017 A 
ATOM      8  C   UNL     1      -2.284   1.053   1.599  0.00  0.00    +0.003 A 
ATOM      9  C   UNL     1      -2.185  -0.329   1.652  0.00  0.00    +0.022 A 
ATOM     10  C   UNL     1      -1.023  -0.978   1.320  0.00  0.00    +0.067 A 
ATOM     11 CL   UNL     1      -0.952  -2.710   1.404  0.00  0.00    -0.081 Cl
ATOM     12  C   UNL     1       3.969  -1.589  -0.235  0.00  0.00    +0.252 C 
ATOM     13  O   UNL     1       3.212  -2.446   0.178  0.00  0.00    -0.270 OA
ENDROOT
BRANCH  12  14
ATOM     14  C   UNL     1       5.290  -1.969  -0.777  0.00  0.00    +0.037 A 
ATOM     15  C   UNL     1       6.437  -1.284  -0.372  0.00  0.00    +0.015 A 
ATOM     16  C   UNL     1       7.668  -1.647  -0.877  0.00  0.00    +0.029 A 
ATOM     17  C   UNL     1       7.766  -2.680  -1.794  0.00  0.00    +0.106 A 
ATOM     18  C   UNL     1       6.633  -3.358  -2.204  0.00  0.00    +0.029 A 
ATOM     19  C   UNL     1       5.396  -3.009  -1.702  0.00  0.00    +0.015 A 
BRANCH  17  20
ATOM     20  S   UNL     1       9.342  -3.132  -2.440  0.00  0.00    +0.061 S 
ATOM     21  O   UNL     1      10.308  -2.708  -1.489  0.00  0.00    -0.153 OA
ATOM     22  O   UNL     1       9.233  -4.484  -2.865  0.00  0.00    -0.153 OA
BRANCH  20  23
ATOM     23  N   UNL     1       9.590  -2.225  -3.804  0.00  0.00    -0.177 NA
ATOM     24  C   UNL     1      10.247  -0.920  -3.706  0.00  0.00    +0.132 C 
BRANCH  23  25
ATOM     25  C   UNL     1       9.152  -2.729  -5.108  0.00  0.00    +0.080 C 
ATOM     26  C   UNL     1       9.586  -1.946  -6.349  0.00  0.00    +0.022 C 
ATOM     27  C   UNL     1       8.130  -1.893  -5.881  0.00  0.00    +0.022 C 
ENDBRANCH  23  25
ENDBRANCH  20  23
ENDBRANCH  17  20
ENDBRANCH  12  14
BRANCH   1  28
ATOM     28  C   UNL     1       4.562   0.750  -0.568  0.00  0.00    +0.114 C 
BRANCH  28  29
ATOM     29  C   UNL     1       5.179   1.348   0.698  0.00  0.00    +0.001 C 
BRANCH  29  30
ATOM     30  C   UNL     1       6.282   2.336   0.310  0.00  0.00    -0.078 C 
BRANCH  30  33
ATOM     31  C   UNL     1       8.086   3.677   1.208  0.00  0.00    -0.097 C 
ATOM     32  C   UNL     1       5.899   3.740   2.245  0.00  0.00    -0.097 C 
ATOM     33  N   UNL     1       6.882   2.888   1.542  0.00  0.00    +0.376 N 
ATOM     34  H   UNL     1       7.152   2.112   2.159  0.00  0.00    -0.083 HD
ENDBRANCH  30  33
ENDBRANCH  29  30
ENDBRANCH  28  29
ENDBRANCH   1  28
TORSDOF 8
