REMARK  Name = ZINC39943746
REMARK  9 active torsions:
REMARK  status: ('A' for Active; 'I' for Inactive)
REMARK    1  A    between atoms: C_1  and  N_2
REMARK    2  A    between atoms: C_5  and  C_15
REMARK    3  A    between atoms: N_11  and  C_14
REMARK    4  A    between atoms: C_15  and  C_33
REMARK    5  A    between atoms: N_16  and  C_17
REMARK    6  A    between atoms: C_22  and  N_23
REMARK    7  A    between atoms: C_24  and  C_25
REMARK    8  A    between atoms: C_28  and  O_31
REMARK    9  A    between atoms: O_31  and  C_32
REMARK                            x       y       z     vdW  Elec       q    Type
REMARK                         _______ _______ _______ _____ _____    ______ ____
ROOT
ATOM      1  C   UNL     1      -9.098   0.551   1.162  0.00  0.00    +0.184 C 
ATOM      2  N   UNL     1      -8.058   0.479   1.961  0.00  0.00    -0.231 NA
ENDROOT
BRANCH   1   7
ATOM      3  C   UNL     1      -5.563  -0.039  -3.166  0.00  0.00    +0.141 C 
ATOM      4  N   UNL     1      -6.993  -0.357  -3.150  0.00  0.00    -0.244 N 
ATOM      5  C   UNL     1      -7.833   0.085  -2.167  0.00  0.00    +0.141 C 
ATOM      6  N   UNL     1      -7.709   0.266  -0.900  0.00  0.00    -0.212 NA
ATOM      7  C   UNL     1      -8.915   0.441  -0.303  0.00  0.00    +0.187 C 
ATOM      8  N   UNL     1      -9.900   0.504  -1.165  0.00  0.00    -0.243 NA
ATOM      9  C   UNL     1      -9.286   0.434  -2.491  0.00  0.00    +0.257 C 
ATOM     10  C   UNL     1      -9.790  -0.720  -3.322  0.00  0.00    +0.255 C 
ATOM     11  O   UNL     1     -10.956  -1.052  -3.290  0.00  0.00    -0.272 OA
ATOM     12  N   UNL     1      -8.900  -1.370  -4.104  0.00  0.00    -0.227 N 
ATOM     13  C   UNL     1      -7.585  -1.110  -4.115  0.00  0.00    +0.316 C 
ATOM     14  O   UNL     1      -6.901  -1.563  -5.011  0.00  0.00    -0.252 OA
ATOM     15  C   UNL     1      -9.404  -2.417  -4.997  0.00  0.00    +0.143 C 
ENDBRANCH   1   7
BRANCH   2  16
ATOM     16  C   UNL     1      -8.236   0.444   3.298  0.00  0.00    +0.091 A 
ATOM     17  C   UNL     1      -9.340  -0.221   3.847  0.00  0.00    +0.030 A 
ATOM     18  C   UNL     1      -9.514  -0.254   5.212  0.00  0.00    +0.002 A 
ATOM     19  C   UNL     1      -8.604   0.368   6.054  0.00  0.00    +0.002 A 
ATOM     20  C   UNL     1      -7.509   1.029   5.540  0.00  0.00    +0.030 A 
ATOM     21  C   UNL     1      -7.304   1.072   4.159  0.00  0.00    +0.089 A 
BRANCH  21  22
ATOM     22  N   UNL     1      -6.221   1.718   3.645  0.00  0.00    -0.253 NA
ATOM     23  C   UNL     1      -5.022   1.428   4.076  0.00  0.00    +0.119 C 
BRANCH  23  24
ATOM     24  C   UNL     1      -4.846   0.434   5.144  0.00  0.00    -0.007 A 
ATOM     25  C   UNL     1      -5.552  -0.774   5.103  0.00  0.00    +0.013 A 
ATOM     26  C   UNL     1      -5.383  -1.701   6.106  0.00  0.00    +0.046 A 
ATOM     27  C   UNL     1      -4.513  -1.439   7.159  0.00  0.00    +0.120 A 
ATOM     28  C   UNL     1      -3.811  -0.241   7.205  0.00  0.00    +0.046 A 
ATOM     29  C   UNL     1      -3.968   0.691   6.204  0.00  0.00    +0.013 A 
BRANCH  27  30
ATOM     30  O   UNL     1      -4.351  -2.357   8.146  0.00  0.00    -0.495 OA
ATOM     31  C   UNL     1      -3.442  -2.024   9.198  0.00  0.00    +0.277 C 
ENDBRANCH  27  30
ENDBRANCH  23  24
ENDBRANCH  21  22
ENDBRANCH   2  16
BRANCH   1  32
ATOM     32  C   UNL     1     -10.409   0.736   1.708  0.00  0.00    +0.123 C 
ATOM     33  N   UNL     1     -11.449   0.882   2.142  0.00  0.00    -0.189 NA
ENDBRANCH   1  32
TORSDOF 6
