REMARK  Name = ZINC00746136
REMARK  17 active torsions:
REMARK  status: ('A' for Active; 'I' for Inactive)
REMARK    1  A    between atoms: C_1  and  C_2
REMARK    2  A    between atoms: C_2  and  C_3
REMARK    3  A    between atoms: C_2  and  C_4
REMARK    4  A    between atoms: C_2  and  C_5
REMARK    5  A    between atoms: C_8  and  C_11
REMARK    6  A    between atoms: C_14  and  C_18
REMARK    7  A    between atoms: N_20  and  C_21
REMARK    8  A    between atoms: C_21  and  C_22
REMARK    9  A    between atoms: C_21  and  C_23
REMARK   10  A    between atoms: C_21  and  C_24
REMARK   11  A    between atoms: C_25  and  C_27
REMARK   12  A    between atoms: C_29  and  O_37
REMARK   13  A    between atoms: C_30  and  O_35
REMARK   14  A    between atoms: C_31  and  O_33
REMARK   15  A    between atoms: O_33  and  C_34
REMARK   16  A    between atoms: O_35  and  C_36
REMARK   17  A    between atoms: O_37  and  C_38
REMARK                            x       y       z     vdW  Elec       q    Type
REMARK                         _______ _______ _______ _____ _____    ______ ____
ROOT
ATOM      1  C   UNL     1       3.626  -1.508  -3.531  0.00  0.00    +0.166 C 
ATOM      2  N   UNL     1       5.026  -1.750  -3.929  0.00  0.00    -0.269 N 
ATOM      3  C   UNL     1       5.409  -1.264  -5.252  0.00  0.00    +0.173 C 
ATOM      4  C   UNL     1       4.202  -1.320  -6.234  0.00  0.00    +0.103 C 
ATOM      5  S   UNL     1       2.868  -0.804  -5.056  0.00  0.00    -0.131 S 
ATOM      6  C   UNL     1       5.899  -2.381  -3.119  0.00  0.00    +0.249 C 
ATOM      7  O   UNL     1       7.070  -2.463  -3.436  0.00  0.00    -0.270 OA
ENDROOT
BRANCH   1  11
ATOM      8  C   UNL     1       3.435   1.295  -0.313  0.00  0.00    -0.042 A 
ATOM      9  C   UNL     1       2.711   0.119  -0.249  0.00  0.00    +0.004 A 
ATOM     10  C   UNL     1       2.772  -0.788  -1.291  0.00  0.00    +0.006 A 
ATOM     11  C   UNL     1       3.558  -0.519  -2.396  0.00  0.00    -0.017 A 
ATOM     12  C   UNL     1       4.281   0.657  -2.461  0.00  0.00    +0.006 A 
ATOM     13  C   UNL     1       4.216   1.566  -1.421  0.00  0.00    +0.004 A 
BRANCH   8  15
ATOM     14  C   UNL     1       2.825   3.618   0.305  0.00  0.00    +0.015 C 
ATOM     15  C   UNL     1       3.368   2.284   0.822  0.00  0.00    -0.013 C 
ATOM     16  C   UNL     1       4.769   2.493   1.400  0.00  0.00    +0.015 C 
ATOM     17  C   UNL     1       2.441   1.745   1.913  0.00  0.00    +0.015 C 
ENDBRANCH   8  15
ENDBRANCH   1  11
BRANCH   6  18
ATOM     18  C   UNL     1       5.434  -2.971  -1.849  0.00  0.00    +0.044 A 
ATOM     19  C   UNL     1       4.225  -3.669  -1.803  0.00  0.00    +0.062 A 
ATOM     20  C   UNL     1       3.792  -4.222  -0.613  0.00  0.00    +0.166 A 
ATOM     21  C   UNL     1       4.559  -4.083   0.541  0.00  0.00    +0.204 A 
ATOM     22  C   UNL     1       5.765  -3.387   0.498  0.00  0.00    +0.166 A 
ATOM     23  C   UNL     1       6.205  -2.838  -0.692  0.00  0.00    +0.062 A 
BRANCH  22  24
ATOM     24  O   UNL     1       6.512  -3.253   1.626  0.00  0.00    -0.491 OA
ATOM     25  C   UNL     1       7.738  -2.527   1.510  0.00  0.00    +0.277 C 
ENDBRANCH  22  24
BRANCH  21  26
ATOM     26  O   UNL     1       4.131  -4.627   1.710  0.00  0.00    -0.488 OA
ATOM     27  C   UNL     1       4.540  -5.967   1.990  0.00  0.00    +0.277 C 
ENDBRANCH  21  26
BRANCH  20  28
ATOM     28  O   UNL     1       2.615  -4.901  -0.567  0.00  0.00    -0.491 OA
ATOM     29  C   UNL     1       1.939  -5.113  -1.809  0.00  0.00    +0.277 C 
ENDBRANCH  20  28
ENDBRANCH   6  18
BRANCH   3  30
ATOM     30  C   UNL     1       6.525  -2.122  -5.791  0.00  0.00    +0.235 C 
ATOM     31  O   UNL     1       6.540  -3.312  -5.560  0.00  0.00    -0.274 OA
ATOM     32  N   UNL     1       7.506  -1.566  -6.529  0.00  0.00    -0.309 N 
ATOM     33  H   UNL     1       7.494  -0.613  -6.713  0.00  0.00    +0.149 HD
BRANCH  32  34
ATOM     34  C   UNL     1       8.590  -2.400  -7.053  0.00  0.00    +0.026 C 
ATOM     35  C   UNL     1       8.007  -3.480  -7.966  0.00  0.00    +0.031 C 
ATOM     36  C   UNL     1       9.564  -1.529  -7.850  0.00  0.00    +0.031 C 
ATOM     37  C   UNL     1       9.332  -3.061  -5.890  0.00  0.00    +0.031 C 
ENDBRANCH  32  34
ENDBRANCH   3  30
TORSDOF 8
