REMARK  Name = ZINC03198096
REMARK  7 active torsions:
REMARK  status: ('A' for Active; 'I' for Inactive)
REMARK    1  A    between atoms: C_1  and  C_2
REMARK    2  A    between atoms: C_4  and  C_33
REMARK    3  A    between atoms: N_6  and  C_8
REMARK    4  A    between atoms: C_9  and  N_20
REMARK    5  A    between atoms: N_20  and  S_21
REMARK    6  A    between atoms: S_21  and  C_24
REMARK    7  A    between atoms: C_27  and  N_30
REMARK                            x       y       z     vdW  Elec       q    Type
REMARK                         _______ _______ _______ _____ _____    ______ ____
ROOT
ATOM      1  C   UNL     1       1.592  -2.139   0.451  0.00  0.00    +0.120 C 
ATOM      2  C   UNL     1       2.109  -2.227   1.722  0.00  0.00    +0.123 C 
ATOM      3  C   UNL     1       1.679  -3.310   2.632  0.00  0.00    +0.211 C 
ATOM      4  O   UNL     1       2.139  -3.382   3.754  0.00  0.00    -0.285 OA
ATOM      5  C   UNL     1       0.687  -4.306   2.172  0.00  0.00    +0.034 A 
ATOM      6  C   UNL     1       0.272  -5.332   3.014  0.00  0.00    +0.012 A 
ATOM      7  C   UNL     1      -0.659  -6.256   2.567  0.00  0.00    +0.001 A 
ATOM      8  C   UNL     1      -1.176  -6.166   1.289  0.00  0.00    +0.001 A 
ATOM      9  C   UNL     1      -0.771  -5.149   0.438  0.00  0.00    +0.012 A 
ATOM     10  C   UNL     1       0.161  -4.214   0.872  0.00  0.00    +0.035 A 
ATOM     11  C   UNL     1       0.600  -3.119  -0.021  0.00  0.00    +0.212 C 
ATOM     12  O   UNL     1       0.145  -3.030  -1.145  0.00  0.00    -0.285 OA
ENDROOT
BRANCH   1  18
ATOM     13  C   UNL     1       1.641   2.579  -0.598  0.00  0.00    +0.045 C 
ATOM     14  C   UNL     1       2.043   1.163  -0.921  0.00  0.00    -0.034 A 
ATOM     15  C   UNL     1       2.814   0.891  -2.043  0.00  0.00    +0.009 A 
ATOM     16  C   UNL     1       3.163  -0.427  -2.304  0.00  0.00    -0.034 A 
ATOM     17  C   UNL     1       2.736  -1.420  -1.448  0.00  0.00    +0.094 A 
ATOM     18  N   UNL     1       2.000  -1.126  -0.383  0.00  0.00    -0.318 N 
ATOM     19  C   UNL     1       1.655   0.124  -0.101  0.00  0.00    +0.094 A 
ATOM     20  C   UNL     1       3.998  -0.769  -3.512  0.00  0.00    +0.045 C 
ENDBRANCH   1  18
BRANCH   2  21
ATOM     21  N   UNL     1       3.034  -1.298   2.151  0.00  0.00    -0.210 N 
ATOM     22  H   UNL     1       3.273  -0.552   1.579  0.00  0.00    +0.174 HD
BRANCH  21  23
ATOM     23  S   UNL     1       3.736  -1.456   3.643  0.00  0.00    +0.073 S 
ATOM     24  O   UNL     1       4.777  -0.492   3.706  0.00  0.00    -0.150 OA
ATOM     25  O   UNL     1       2.675  -1.496   4.588  0.00  0.00    -0.150 OA
BRANCH  23  26
ATOM     26  C   UNL     1       4.511  -3.038   3.688  0.00  0.00    +0.109 A 
ATOM     27  C   UNL     1       4.131  -3.967   4.639  0.00  0.00    +0.031 A 
ATOM     28  C   UNL     1       4.739  -5.208   4.675  0.00  0.00    +0.034 A 
ATOM     29  C   UNL     1       5.727  -5.520   3.760  0.00  0.00    +0.126 A 
ATOM     30  C   UNL     1       6.106  -4.591   2.808  0.00  0.00    +0.034 A 
ATOM     31  C   UNL     1       5.495  -3.352   2.770  0.00  0.00    +0.031 A 
BRANCH  29  32
ATOM     32  N   UNL     1       6.379  -6.848   3.799  0.00  0.00    +0.056 N 
ATOM     33  O   UNL     1       6.048  -7.660   4.631  0.00  0.00    -0.126 OA
ATOM     34  O   UNL     1       7.243  -7.121   2.998  0.00  0.00    -0.126 OA
ENDBRANCH  29  32
ENDBRANCH  23  26
ENDBRANCH  21  23
ENDBRANCH   2  21
TORSDOF 5
