REMARK  Name = ZINC01785390
REMARK  10 active torsions:
REMARK  status: ('A' for Active; 'I' for Inactive)
REMARK    1  A    between atoms: C_1  and  C_2
REMARK    2  A    between atoms: C_2  and  C_4
REMARK    3  A    between atoms: C_2  and  O_16
REMARK    4  A    between atoms: N_6  and  N_7
REMARK    5  A    between atoms: C_8  and  C_9
REMARK    6  A    between atoms: C_12  and  O_15
REMARK    7  A    between atoms: O_16  and  C_17
REMARK    8  A    between atoms: C_20  and  C_23
REMARK    9  A    between atoms: N_25  and  C_26
REMARK   10  A    between atoms: C_27  and  C_35
REMARK                            x       y       z     vdW  Elec       q    Type
REMARK                         _______ _______ _______ _____ _____    ______ ____
ROOT
ATOM      1  C   UNL     1      -0.492  -0.043   2.987  0.00  0.00    +0.122 A 
ATOM      2  C   UNL     1      -1.520  -0.753   2.377  0.00  0.00    +0.046 A 
ATOM      3  C   UNL     1      -1.980  -1.922   2.942  0.00  0.00    +0.016 A 
ATOM      4  C   UNL     1      -1.420  -2.388   4.135  0.00  0.00    +0.037 A 
ATOM      5  C   UNL     1      -0.391  -1.667   4.747  0.00  0.00    +0.016 A 
ATOM      6  C   UNL     1       0.068  -0.502   4.173  0.00  0.00    +0.046 A 
ENDROOT
BRANCH   4   7
ATOM      7  C   UNL     1      -1.914  -3.637   4.745  0.00  0.00    +0.249 C 
ATOM      8  O   UNL     1      -1.425  -4.041   5.783  0.00  0.00    -0.270 OA
ATOM      9  N   UNL     1      -2.907  -4.330   4.154  0.00  0.00    -0.275 N 
ATOM     10  H   UNL     1      -3.297  -4.007   3.326  0.00  0.00    +0.156 HD
BRANCH   9  11
ATOM     11  C   UNL     1      -3.370  -5.503   4.727  0.00  0.00    +0.085 A 
ATOM     12  C   UNL     1      -4.378  -6.344   4.276  0.00  0.00    +0.068 A 
ATOM     13  C   UNL     1      -4.671  -7.526   5.069  0.00  0.00    -0.023 A 
ATOM     14  C   UNL     1      -3.923  -7.671   6.184  0.00  0.00    -0.004 A 
ATOM     15  S   UNL     1      -2.838  -6.271   6.186  0.00  0.00    -0.077 S 
ATOM     16  C   UNL     1      -4.004  -8.778   7.189  0.00  0.00    +0.043 C 
ATOM     17  C   UNL     1      -5.321  -9.536   6.967  0.00  0.00    +0.005 C 
ATOM     18  C   UNL     1      -5.470  -9.841   5.474  0.00  0.00    +0.005 C 
ATOM     19  C   UNL     1      -5.741  -8.547   4.704  0.00  0.00    +0.037 C 
BRANCH  12  20
ATOM     20  C   UNL     1      -5.115  -6.053   3.043  0.00  0.00    +0.244 C 
ATOM     21  O   UNL     1      -4.714  -6.484   1.977  0.00  0.00    -0.270 OA
ATOM     22  N   UNL     1      -6.238  -5.309   3.089  0.00  0.00    -0.325 N 
ATOM     23  H   UNL     1      -6.558  -4.966   3.938  0.00  0.00    +0.145 HD
ATOM     24  H   UNL     1      -6.727  -5.117   2.273  0.00  0.00    +0.145 HD
ENDBRANCH  12  20
ENDBRANCH   9  11
ENDBRANCH   4   7
BRANCH   1  25
ATOM     25  O   UNL     1      -0.038   1.106   2.425  0.00  0.00    -0.480 OA
BRANCH  25  27
ATOM     26  C   UNL     1      -0.189   0.888   0.022  0.00  0.00    +0.062 C 
ATOM     27  C   UNL     1      -0.734   1.583   1.272  0.00  0.00    +0.257 C 
BRANCH  27  28
ATOM     28  C   UNL     1      -0.534   3.072   1.145  0.00  0.00    +0.273 C 
ATOM     29  O   UNL     1       0.210   3.651   1.908  0.00  0.00    -0.270 OA
ATOM     30  N   UNL     1      -1.183   3.760   0.184  0.00  0.00    -0.204 N 
ATOM     31  H   UNL     1      -1.779   3.296  -0.425  0.00  0.00    +0.177 HD
BRANCH  30  32
ATOM     32  N   UNL     1      -0.998   5.143   0.067  0.00  0.00    -0.188 NA
ATOM     33  C   UNL     1      -1.623   5.805  -0.858  0.00  0.00    +0.138 C 
BRANCH  33  34
ATOM     34  C   UNL     1      -1.427   7.261  -0.982  0.00  0.00    -0.005 A 
ATOM     35  C   UNL     1      -0.574   7.931  -0.101  0.00  0.00    +0.013 A 
ATOM     36  C   UNL     1      -0.391   9.292  -0.223  0.00  0.00    +0.046 A 
ATOM     37  C   UNL     1      -1.061   9.998  -1.214  0.00  0.00    +0.117 A 
ATOM     38  C   UNL     1      -1.914   9.337  -2.088  0.00  0.00    +0.046 A 
ATOM     39  C   UNL     1      -2.099   7.976  -1.977  0.00  0.00    +0.013 A 
BRANCH  37  40
ATOM     40  O   UNL     1      -0.882  11.340  -1.327  0.00  0.00    -0.507 OA
ATOM     41  H   UNL     1      -1.504  11.866  -0.806  0.00  0.00    +0.292 HD
ENDBRANCH  37  40
ENDBRANCH  33  34
ENDBRANCH  30  32
ENDBRANCH  27  28
ENDBRANCH  25  27
ENDBRANCH   1  25
TORSDOF 9
