REMARK  Name = ZINC13506348
REMARK  10 active torsions:
REMARK  status: ('A' for Active; 'I' for Inactive)
REMARK    1  A    between atoms: C_1  and  C_2
REMARK    2  A    between atoms: C_2  and  C_3
REMARK    3  A    between atoms: C_8  and  N_9
REMARK    4  A    between atoms: N_9  and  C_10
REMARK    5  A    between atoms: C_10  and  C_12
REMARK    6  A    between atoms: C_10  and  C_18
REMARK    7  A    between atoms: N_20  and  C_21
REMARK    8  A    between atoms: C_26  and  C_28
REMARK    9  A    between atoms: C_28  and  N_29
REMARK   10  A    between atoms: C_30  and  C_32
REMARK                            x       y       z     vdW  Elec       q    Type
REMARK                         _______ _______ _______ _____ _____    ______ ____
ROOT
ATOM      1  N   UNL     1      -6.239   3.033   0.156  0.00  0.00    -0.254 N 
ATOM      2  C   UNL     1      -5.086   2.349   0.296  0.00  0.00    +0.238 C 
ATOM      3  O   UNL     1      -5.110   1.149   0.472  0.00  0.00    -0.274 OA
ENDROOT
BRANCH   1   9
ATOM      4  C   UNL     1      -6.084   4.805  -1.478  0.00  0.00    -0.026 A 
ATOM      5  C   UNL     1      -6.061   6.152  -1.784  0.00  0.00    +0.005 A 
ATOM      6  C   UNL     1      -6.151   7.093  -0.775  0.00  0.00    +0.000 A 
ATOM      7  C   UNL     1      -6.270   6.690   0.542  0.00  0.00    +0.002 A 
ATOM      8  C   UNL     1      -6.299   5.345   0.854  0.00  0.00    +0.024 A 
ATOM      9  C   UNL     1      -6.209   4.397  -0.157  0.00  0.00    +0.041 A 
BRANCH   4  11
ATOM     10  C   UNL     1      -7.383   3.358  -3.016  0.00  0.00    +0.009 C 
ATOM     11  C   UNL     1      -5.979   3.780  -2.578  0.00  0.00    +0.033 C 
ENDBRANCH   4  11
ENDBRANCH   1   9
BRANCH   1  12
ATOM     12  C   UNL     1      -7.522   2.349   0.330  0.00  0.00    +0.199 C 
BRANCH  12  13
ATOM     13  C   UNL     1      -7.633   1.842   1.745  0.00  0.00    +0.000 A 
ATOM     14  C   UNL     1      -8.066   0.549   1.995  0.00  0.00    +0.009 A 
ATOM     15  C   UNL     1      -8.148   0.124   3.312  0.00  0.00    +0.020 A 
ATOM     16  C   UNL     1      -7.808   1.001   4.325  0.00  0.00    +0.111 A 
ATOM     17  N   UNL     1      -7.406   2.226   4.050  0.00  0.00    -0.263 NA
ATOM     18  C   UNL     1      -7.311   2.662   2.809  0.00  0.00    +0.116 A 
ENDBRANCH  12  13
BRANCH  12  19
ATOM     19  C   UNL     1      -8.647   3.313   0.052  0.00  0.00    +0.239 C 
ATOM     20  O   UNL     1      -8.400   4.449  -0.293  0.00  0.00    -0.273 OA
ATOM     21  N   UNL     1      -9.927   2.913   0.187  0.00  0.00    -0.311 N 
ATOM     22  H   UNL     1     -10.124   2.004   0.463  0.00  0.00    +0.149 HD
BRANCH  21  23
ATOM     23  C   UNL     1     -11.020   3.850  -0.083  0.00  0.00    +0.073 C 
ATOM     24  C   UNL     1     -11.362   4.645   1.194  0.00  0.00    +0.022 C 
ATOM     25  C   UNL     1     -12.903   4.796   1.146  0.00  0.00    +0.002 C 
ATOM     26  C   UNL     1     -13.363   3.430   0.579  0.00  0.00    +0.002 C 
ATOM     27  C   UNL     1     -12.292   3.077  -0.474  0.00  0.00    +0.022 C 
ENDBRANCH  21  23
ENDBRANCH  12  19
ENDBRANCH   1  12
BRANCH   2  28
ATOM     28  C   UNL     1      -3.767   3.075   0.236  0.00  0.00    +0.201 C 
BRANCH  28  29
ATOM     29  N   UNL     1      -2.680   2.139   0.536  0.00  0.00    -0.302 N 
ATOM     30  C   UNL     1      -1.403   2.568   0.540  0.00  0.00    +0.251 C 
ATOM     31  O   UNL     1      -1.151   3.734   0.294  0.00  0.00    -0.270 OA
ATOM     32  H   UNL     1      -2.880   1.210   0.732  0.00  0.00    +0.150 HD
BRANCH  30  33
ATOM     33  C   UNL     1      -0.316   1.632   0.841  0.00  0.00    +0.074 A 
ATOM     34  C   UNL     1       1.050   1.866   0.890  0.00  0.00    +0.021 A 
ATOM     35  C   UNL     1       1.856   0.797   1.195  0.00  0.00    +0.008 A 
ATOM     36  C   UNL     1       1.290  -0.416   1.428  0.00  0.00    +0.046 A 
ATOM     37  S   UNL     1      -0.405  -0.107   1.230  0.00  0.00    -0.092 S 
ENDBRANCH  30  33
ENDBRANCH  28  29
ENDBRANCH   2  28
TORSDOF 9
