REMARK  Name = ZINC09605883
REMARK  7 active torsions:
REMARK  status: ('A' for Active; 'I' for Inactive)
REMARK    1  A    between atoms: C_1  and  C_2
REMARK    2  A    between atoms: C_3  and  N_11
REMARK    3  A    between atoms: C_7  and  N_8
REMARK    4  A    between atoms: C_12  and  C_14
REMARK    5  A    between atoms: C_14  and  O_15
REMARK    6  A    between atoms: O_15  and  C_16
REMARK    7  A    between atoms: C_16  and  C_18
REMARK                            x       y       z     vdW  Elec       q    Type
REMARK                         _______ _______ _______ _____ _____    ______ ____
ROOT
ATOM      1  N   UNL     1       8.057   1.520   0.367  0.00  0.00    -0.282 N 
ATOM      2  C   UNL     1       6.791   1.968   0.482  0.00  0.00    +0.255 C 
ATOM      3  O   UNL     1       6.556   3.154   0.393  0.00  0.00    -0.272 OA
ATOM      4  H   UNL     1       8.255   0.582   0.512  0.00  0.00    +0.155 HD
ENDROOT
BRANCH   1   7
ATOM      5  C   UNL     1      10.732   0.767   0.980  0.00  0.00    +0.048 C 
ATOM      6  C   UNL     1      10.406   2.082   0.320  0.00  0.00    +0.001 A 
ATOM      7  C   UNL     1       9.086   2.410   0.038  0.00  0.00    +0.039 A 
ATOM      8  C   UNL     1       8.789   3.624  -0.565  0.00  0.00    +0.024 A 
ATOM      9  C   UNL     1       9.807   4.500  -0.889  0.00  0.00    +0.004 A 
ATOM     10  C   UNL     1      11.120   4.168  -0.612  0.00  0.00    +0.033 A 
ATOM     11  C   UNL     1      11.419   2.959  -0.011  0.00  0.00    +0.131 A 
BRANCH  11  12
ATOM     12  N   UNL     1      12.827   2.608   0.284  0.00  0.00    +0.057 N 
ATOM     13  O   UNL     1      13.707   3.434   0.125  0.00  0.00    -0.126 OA
ATOM     14  O   UNL     1      13.104   1.492   0.686  0.00  0.00    -0.126 OA
ENDBRANCH  11  12
ENDBRANCH   1   7
BRANCH   2  15
ATOM     15  C   UNL     1       5.666   0.994   0.722  0.00  0.00    +0.328 C 
BRANCH  15  16
ATOM     16  O   UNL     1       4.430   1.705   0.807  0.00  0.00    -0.451 OA
BRANCH  16  17
ATOM     17  C   UNL     1       3.316   0.974   1.021  0.00  0.00    +0.346 C 
ATOM     18  O   UNL     1       3.394  -0.235   1.133  0.00  0.00    -0.244 OA
BRANCH  17  19
ATOM     19  C   UNL     1       2.015   1.635   1.120  0.00  0.00    +0.097 A 
ATOM     20  C   UNL     1       0.763   1.075   1.334  0.00  0.00    +0.024 A 
ATOM     21  C   UNL     1      -0.305   1.934   1.383  0.00  0.00    +0.024 A 
ATOM     22  C   UNL     1      -0.092   3.268   1.222  0.00  0.00    +0.056 A 
ATOM     23  S   UNL     1       1.623   3.371   0.995  0.00  0.00    -0.075 S 
ATOM     24 BR   UNL     1      -1.361   4.670   1.235  0.00  0.00    -0.043 Br
ENDBRANCH  17  19
ENDBRANCH  16  17
ENDBRANCH  15  16
ENDBRANCH   2  15
TORSDOF 6
