REMARK  Name = ZINC26507237
REMARK  10 active torsions:
REMARK  status: ('A' for Active; 'I' for Inactive)
REMARK    1  A    between atoms: C_1  and  O_2
REMARK    2  A    between atoms: O_2  and  C_3
REMARK    3  A    between atoms: C_6  and  C_9
REMARK    4  A    between atoms: C_17  and  C_29
REMARK    5  A    between atoms: N_18  and  N_19
REMARK    6  A    between atoms: N_19  and  C_20
REMARK    7  A    between atoms: C_23  and  N_26
REMARK    8  A    between atoms: C_29  and  C_31
REMARK    9  A    between atoms: C_34  and  O_37
REMARK   10  A    between atoms: O_37  and  C_38
REMARK                            x       y       z     vdW  Elec       q    Type
REMARK                         _______ _______ _______ _____ _____    ______ ____
ROOT
ATOM      1  C   UNL     1       1.992  -3.475  -4.879  0.00  0.00    +0.067 A 
ATOM      2  C   UNL     1       2.438  -3.476  -6.161  0.00  0.00    +0.120 A 
ATOM      3  N   UNL     1       3.622  -2.843  -6.187  0.00  0.00    -0.284 N 
ATOM      4  C   UNL     1       3.933  -2.448  -4.969  0.00  0.00    +0.096 A 
ATOM      5  N   UNL     1       2.943  -2.813  -4.128  0.00  0.00    -0.329 N 
ATOM      6  C   UNL     1       3.230  -2.385  -2.752  0.00  0.00    +0.124 C 
ATOM      7  C   UNL     1       4.741  -2.068  -2.724  0.00  0.00    +0.029 C 
ATOM      8  C   UNL     1       5.021  -1.723  -4.201  0.00  0.00    +0.075 C 
ATOM      9  C   UNL     1       4.393  -2.638  -7.313  0.00  0.00    +0.204 C 
ATOM     10  N   UNL     1       4.911  -3.662  -7.948  0.00  0.00    -0.160 NA
ENDROOT
BRANCH   1  14
ATOM     11  C   UNL     1      -1.637  -5.165  -3.453  0.00  0.00    +0.120 A 
ATOM     12  C   UNL     1      -1.265  -5.342  -4.779  0.00  0.00    +0.046 A 
ATOM     13  C   UNL     1      -0.089  -4.795  -5.245  0.00  0.00    +0.013 A 
ATOM     14  C   UNL     1       0.729  -4.063  -4.383  0.00  0.00    +0.000 A 
ATOM     15  C   UNL     1       0.351  -3.888  -3.050  0.00  0.00    +0.013 A 
ATOM     16  C   UNL     1      -0.830  -4.433  -2.593  0.00  0.00    +0.046 A 
BRANCH  11  18
ATOM     17  C   UNL     1      -3.581  -6.447  -3.935  0.00  0.00    +0.277 C 
ATOM     18  O   UNL     1      -2.798  -5.706  -2.997  0.00  0.00    -0.495 OA
ENDBRANCH  11  18
ENDBRANCH   1  14
BRANCH  10  19
ATOM     19  N   UNL     1       4.601  -4.967  -7.544  0.00  0.00    -0.236 N 
ATOM     20  H   UNL     1       4.060  -5.114  -6.752  0.00  0.00    +0.174 HD
BRANCH  19  21
ATOM     21  C   UNL     1       5.069  -6.056  -8.280  0.00  0.00    +0.048 A 
ATOM     22  C   UNL     1       5.849  -5.847  -9.412  0.00  0.00    +0.027 A 
ATOM     23  C   UNL     1       6.312  -6.927 -10.137  0.00  0.00    +0.034 A 
ATOM     24  C   UNL     1       6.000  -8.214  -9.740  0.00  0.00    +0.126 A 
ATOM     25  C   UNL     1       5.223  -8.426  -8.615  0.00  0.00    +0.034 A 
ATOM     26  C   UNL     1       4.762  -7.351  -7.880  0.00  0.00    +0.027 A 
BRANCH  24  27
ATOM     27  N   UNL     1       6.497  -9.369 -10.521  0.00  0.00    +0.056 N 
ATOM     28  O   UNL     1       7.175  -9.187 -11.505  0.00  0.00    -0.126 OA
ATOM     29  O   UNL     1       6.225 -10.495 -10.175  0.00  0.00    -0.126 OA
ENDBRANCH  24  27
ENDBRANCH  19  21
ENDBRANCH  10  19
BRANCH   9  30
ATOM     30  C   UNL     1       4.634  -1.274  -7.800  0.00  0.00    +0.230 C 
ATOM     31  O   UNL     1       4.258  -0.319  -7.146  0.00  0.00    -0.283 OA
BRANCH  30  32
ATOM     32  C   UNL     1       5.331  -1.061  -9.083  0.00  0.00    +0.026 A 
ATOM     33  C   UNL     1       5.617  -2.148  -9.915  0.00  0.00    +0.015 A 
ATOM     34  C   UNL     1       6.268  -1.944 -11.111  0.00  0.00    +0.046 A 
ATOM     35  C   UNL     1       6.641  -0.661 -11.492  0.00  0.00    +0.120 A 
ATOM     36  C   UNL     1       6.358   0.423 -10.668  0.00  0.00    +0.046 A 
ATOM     37  C   UNL     1       5.702   0.229  -9.473  0.00  0.00    +0.015 A 
BRANCH  35  38
ATOM     38  O   UNL     1       7.283  -0.465 -12.672  0.00  0.00    -0.495 OA
ATOM     39  C   UNL     1       7.637   0.880 -13.002  0.00  0.00    +0.277 C 
ENDBRANCH  35  38
ENDBRANCH  30  32
ENDBRANCH   9  30
TORSDOF 8
