REMARK  Name = ZINC09694701
REMARK  7 active torsions:
REMARK  status: ('A' for Active; 'I' for Inactive)
REMARK    1  A    between atoms: C_1  and  O_2
REMARK    2  A    between atoms: O_2  and  C_3
REMARK    3  A    between atoms: C_4  and  C_14
REMARK    4  A    between atoms: C_7  and  O_11
REMARK    5  A    between atoms: C_8  and  O_9
REMARK    6  A    between atoms: O_9  and  C_10
REMARK    7  A    between atoms: O_11  and  C_12
REMARK                            x       y       z     vdW  Elec       q    Type
REMARK                         _______ _______ _______ _____ _____    ______ ____
ROOT
ATOM      1  C   UNL     1      -3.113   2.601   0.245  0.00  0.00    +0.005 A 
ATOM      2  C   UNL     1      -3.103   2.307  -1.118  0.00  0.00    -0.017 A 
ATOM      3  C   UNL     1      -4.093   1.500  -1.657  0.00  0.00    +0.047 A 
ATOM      4  N   UNL     1      -5.056   1.002  -0.902  0.00  0.00    -0.232 NA
ATOM      5  C   UNL     1      -5.129   1.244   0.405  0.00  0.00    +0.166 A 
ATOM      6  C   UNL     1      -4.149   2.052   1.030  0.00  0.00    +0.067 A 
ATOM      7  C   UNL     1      -4.255   2.292   2.416  0.00  0.00    +0.129 A 
ATOM      8  N   UNL     1      -5.269   1.739   3.073  0.00  0.00    -0.220 NA
ATOM      9  C   UNL     1      -6.162   0.987   2.450  0.00  0.00    +0.225 A 
ATOM     10  N   UNL     1      -6.113   0.735   1.164  0.00  0.00    -0.216 NA
ATOM     11  N   UNL     1      -3.329   3.074   3.073  0.00  0.00    -0.343 N 
ATOM     12  C   UNL     1      -3.854   1.335  -3.145  0.00  0.00    +0.056 C 
ATOM     13  C   UNL     1      -2.883   2.470  -3.530  0.00  0.00    +0.011 C 
ATOM     14  C   UNL     1      -2.139   2.735  -2.203  0.00  0.00    +0.038 C 
ATOM     15  H   UNL     1      -3.068   2.857   3.981  0.00  0.00    +0.144 HD
ATOM     16  H   UNL     1      -2.938   3.841   2.626  0.00  0.00    +0.144 HD
ENDROOT
BRANCH   1  18
ATOM     17  C   UNL     1      -0.896   2.883   1.353  0.00  0.00    +0.173 A 
ATOM     18  C   UNL     1      -2.070   3.457   0.849  0.00  0.00    +0.030 A 
ATOM     19  C   UNL     1      -2.252   4.839   0.919  0.00  0.00    +0.031 A 
ATOM     20  C   UNL     1      -1.277   5.636   1.484  0.00  0.00    +0.064 A 
ATOM     21  C   UNL     1      -0.112   5.067   1.985  0.00  0.00    +0.179 A 
ATOM     22  C   UNL     1       0.076   3.691   1.925  0.00  0.00    +0.205 A 
ATOM     23 BR   UNL     1      -1.528   7.508   1.577  0.00  0.00    -0.046 Br
BRANCH  17  25
ATOM     24  C   UNL     1      -1.059   0.779   2.449  0.00  0.00    +0.277 C 
ATOM     25  O   UNL     1      -0.713   1.538   1.288  0.00  0.00    -0.491 OA
ENDBRANCH  17  25
BRANCH  22  26
ATOM     26  O   UNL     1       1.216   3.138   2.422  0.00  0.00    -0.488 OA
ATOM     27  C   UNL     1       2.296   2.945   1.506  0.00  0.00    +0.277 C 
ENDBRANCH  22  26
BRANCH  21  28
ATOM     28  O   UNL     1       0.843   5.859   2.539  0.00  0.00    -0.490 OA
ATOM     29  C   UNL     1       0.746   6.106   3.943  0.00  0.00    +0.277 C 
ENDBRANCH  21  28
ENDBRANCH   1  18
TORSDOF 4
