REMARK  Name = ZINC39035107
REMARK  7 active torsions:
REMARK  status: ('A' for Active; 'I' for Inactive)
REMARK    1  A    between atoms: C_1  and  C_2
REMARK    2  A    between atoms: C_2  and  C_3
REMARK    3  A    between atoms: C_2  and  C_4
REMARK    4  A    between atoms: C_2  and  C_5
REMARK    5  A    between atoms: C_8  and  C_11
REMARK    6  A    between atoms: N_16  and  C_17
REMARK    7  A    between atoms: C_17  and  C_19
REMARK                            x       y       z     vdW  Elec       q    Type
REMARK                         _______ _______ _______ _____ _____    ______ ____
ROOT
ATOM      1  C   UNL     1       2.707  -1.868  -4.752  0.00  0.00    +0.193 C 
ATOM      2  N   UNL     1       3.814  -0.962  -5.137  0.00  0.00    -0.289 N 
ATOM      3  N   UNL     1       4.943  -1.398  -5.135  0.00  0.00    -0.153 NA
ATOM      4  C   UNL     1       5.282  -2.690  -4.798  0.00  0.00    +0.202 C 
ATOM      5  N   UNL     1       6.475  -3.257  -4.765  0.00  0.00    -0.149 NA
ATOM      6  S   UNL     1       3.680  -3.399  -4.417  0.00  0.00    -0.056 S 
ATOM      7  H   UNL     1       3.638  -0.040  -5.384  0.00  0.00    +0.184 HD
ENDROOT
BRANCH   1  11
ATOM      8  C   UNL     1       0.707  -0.490  -1.238  0.00  0.00    -0.042 A 
ATOM      9  C   UNL     1       0.036  -1.284  -2.148  0.00  0.00    +0.004 A 
ATOM     10  C   UNL     1       0.683  -1.730  -3.286  0.00  0.00    +0.007 A 
ATOM     11  C   UNL     1       2.001  -1.381  -3.513  0.00  0.00    -0.013 A 
ATOM     12  C   UNL     1       2.672  -0.586  -2.603  0.00  0.00    +0.007 A 
ATOM     13  C   UNL     1       2.024  -0.137  -1.467  0.00  0.00    +0.004 A 
BRANCH   8  15
ATOM     14  C   UNL     1      -0.019   1.526   0.010  0.00  0.00    +0.015 C 
ATOM     15  C   UNL     1       0.002  -0.004   0.002  0.00  0.00    -0.013 C 
ATOM     16  C   UNL     1       0.742  -0.511   1.242  0.00  0.00    +0.015 C 
ATOM     17  C   UNL     1      -1.433  -0.534   0.013  0.00  0.00    +0.015 C 
ENDBRANCH   8  15
ENDBRANCH   1  11
BRANCH   5  18
ATOM     18  C   UNL     1       6.596  -4.546  -4.405  0.00  0.00    +0.271 C 
ATOM     19  O   UNL     1       5.606  -5.191  -4.109  0.00  0.00    -0.268 OA
BRANCH  18  20
ATOM     20  C   UNL     1       7.932  -5.181  -4.367  0.00  0.00    +0.057 A 
ATOM     21  C   UNL     1       9.069  -4.444  -4.700  0.00  0.00    +0.014 A 
ATOM     22  C   UNL     1      10.311  -5.042  -4.663  0.00  0.00    +0.001 A 
ATOM     23  C   UNL     1      10.432  -6.371  -4.297  0.00  0.00    +0.001 A 
ATOM     24  C   UNL     1       9.311  -7.109  -3.966  0.00  0.00    +0.021 A 
ATOM     25  C   UNL     1       8.061  -6.521  -3.994  0.00  0.00    +0.053 A 
ATOM     26 CL   UNL     1       6.654  -7.446  -3.571  0.00  0.00    -0.083 Cl
ENDBRANCH  18  20
ENDBRANCH   5  18
TORSDOF 4
