REMARK  Name = ZINC09044718
REMARK  6 active torsions:
REMARK  status: ('A' for Active; 'I' for Inactive)
REMARK    1  A    between atoms: C_3  and  C_10
REMARK    2  A    between atoms: C_5  and  N_7
REMARK    3  A    between atoms: N_11  and  N_12
REMARK    4  A    between atoms: C_13  and  C_15
REMARK    5  A    between atoms: C_15  and  O_16
REMARK    6  A    between atoms: O_16  and  C_17
REMARK                            x       y       z     vdW  Elec       q    Type
REMARK                         _______ _______ _______ _____ _____    ______ ____
ROOT
ATOM      1  N   UNL     1      -1.222   7.354   0.051  0.00  0.00    -0.204 N 
ATOM      2  C   UNL     1      -2.398   8.012   0.066  0.00  0.00    +0.270 C 
ATOM      3  O   UNL     1      -3.440   7.391   0.073  0.00  0.00    -0.270 OA
ATOM      4  H   UNL     1      -0.388   7.850   0.045  0.00  0.00    +0.177 HD
ENDROOT
BRANCH   1   6
ATOM      5  C   UNL     1      -0.070   5.320   0.030  0.00  0.00    +0.138 C 
ATOM      6  N   UNL     1      -1.202   5.953   0.044  0.00  0.00    -0.188 NA
BRANCH   5   9
ATOM      7  C   UNL     1      -1.222   1.748   0.017  0.00  0.00    +0.003 A 
ATOM      8  C   UNL     1      -1.248   3.127   0.031  0.00  0.00    +0.009 A 
ATOM      9  C   UNL     1      -0.050   3.845   0.023  0.00  0.00    -0.003 A 
ATOM     10  C   UNL     1       1.167   3.160   0.007  0.00  0.00    +0.042 A 
ATOM     11  C   UNL     1       1.178   1.781   0.000  0.00  0.00    +0.127 A 
ATOM     12  C   UNL     1      -0.013   1.076   0.008  0.00  0.00    +0.033 A 
BRANCH  11  13
ATOM     13  N   UNL     1       2.467   1.053  -0.016  0.00  0.00    +0.056 N 
ATOM     14  O   UNL     1       2.479  -0.165  -0.022  0.00  0.00    -0.126 OA
ATOM     15  O   UNL     1       3.516   1.672  -0.022  0.00  0.00    -0.126 OA
ENDBRANCH  11  13
ENDBRANCH   5   9
ENDBRANCH   1   6
BRANCH   2  16
ATOM     16  C   UNL     1      -2.418   9.519   0.073  0.00  0.00    +0.326 C 
BRANCH  16  17
ATOM     17  O   UNL     1      -3.772   9.977   0.088  0.00  0.00    -0.479 OA
BRANCH  17  18
ATOM     18  C   UNL     1      -3.968  11.321   0.097  0.00  0.00    +0.161 A 
ATOM     19  C   UNL     1      -4.062  12.001   1.290  0.00  0.00    +0.063 A 
ATOM     20  C   UNL     1      -4.257  13.380   1.314  0.00  0.00    +0.035 A 
ATOM     21  C   UNL     1      -4.372  14.090   0.157  0.00  0.00    +0.028 A 
ATOM     22  C   UNL     1      -4.287  13.431  -1.080  0.00  0.00    +0.018 A 
ATOM     23  C   UNL     1      -4.082  12.030  -1.117  0.00  0.00    +0.115 A 
ATOM     24  N   UNL     1      -4.002  11.399  -2.293  0.00  0.00    -0.251 NA
ATOM     25  C   UNL     1      -4.108  12.052  -3.425  0.00  0.00    +0.111 A 
ATOM     26  C   UNL     1      -4.309  13.430  -3.459  0.00  0.00    +0.020 A 
ATOM     27  C   UNL     1      -4.401  14.135  -2.293  0.00  0.00    +0.013 A 
ATOM     28 BR   UNL     1      -4.645  15.961   0.217  0.00  0.00    -0.050 Br
ATOM     29 BR   UNL     1      -3.916  11.051   2.919  0.00  0.00    -0.046 Br
ENDBRANCH  17  18
ENDBRANCH  16  17
ENDBRANCH   2  16
TORSDOF 6
