REMARK  Name = ZINC34719637
REMARK  5 active torsions:
REMARK  status: ('A' for Active; 'I' for Inactive)
REMARK    1  A    between atoms: C_1  and  C_2
REMARK    2  A    between atoms: C_4  and  C_35
REMARK    3  A    between atoms: N_21  and  C_24
REMARK    4  A    between atoms: C_27  and  O_30
REMARK    5  A    between atoms: O_30  and  C_31
REMARK                            x       y       z     vdW  Elec       q    Type
REMARK                         _______ _______ _______ _____ _____    ______ ____
ROOT
ATOM      1  C   UNL     1      -0.175   1.537   0.014  0.00  0.00    +0.044 C 
ATOM      2  C   UNL     1      -0.338   0.040  -0.035  0.00  0.00    -0.050 A 
ATOM      3  C   UNL     1      -0.617  -0.589  -1.235  0.00  0.00    +0.008 A 
ATOM      4  C   UNL     1      -0.767  -1.959  -1.285  0.00  0.00    -0.029 A 
ATOM      5  C   UNL     1      -0.638  -2.721  -0.126  0.00  0.00    +0.039 A 
ATOM      6  C   UNL     1      -0.357  -2.078   1.076  0.00  0.00    -0.027 A 
ATOM      7  C   UNL     1      -0.202  -0.710   1.120  0.00  0.00    +0.008 A 
ATOM      8  C   UNL     1      -0.284  -3.161   2.115  0.00  0.00    +0.053 C 
ATOM      9  C   UNL     1      -1.319  -2.945   3.225  0.00  0.00    +0.089 C 
ATOM     10  C   UNL     1      -0.520  -2.299   4.389  0.00  0.00    +0.074 C 
ATOM     11  C   UNL     1       0.923  -2.170   3.867  0.00  0.00    -0.054 C 
ATOM     12  N   UNL     1       1.032  -3.191   2.775  0.00  0.00    +0.395 N 
ATOM     13  C   UNL     1       1.198  -4.489   3.471  0.00  0.00    -0.076 C 
ATOM     14  C   UNL     1       2.089  -4.182   4.691  0.00  0.00    -0.020 C 
ATOM     15  C   UNL     1       1.902  -2.637   4.960  0.00  0.00    -0.016 C 
ATOM     16  C   UNL     1      -0.582  -3.346   5.479  0.00  0.00    +0.228 C 
ATOM     17  O   UNL     1      -0.076  -3.246   6.576  0.00  0.00    -0.275 OA
ATOM     18  N   UNL     1      -1.283  -4.399   5.043  0.00  0.00    -0.210 N 
ATOM     19  C   UNL     1      -1.757  -4.281   3.782  0.00  0.00    +0.229 C 
ATOM     20  O   UNL     1      -2.419  -5.104   3.188  0.00  0.00    -0.275 OA
ATOM     21  C   UNL     1      -0.549  -4.439   1.365  0.00  0.00    +0.212 C 
ATOM     22  O   UNL     1      -0.581  -5.559   1.830  0.00  0.00    -0.277 OA
ATOM     23  N   UNL     1      -0.744  -4.098   0.077  0.00  0.00    -0.286 N 
ATOM     24  C   UNL     1      -1.072  -2.634  -2.597  0.00  0.00    +0.045 C 
ATOM     25  H   UNL     1      -0.935  -4.736  -0.629  0.00  0.00    +0.155 HD
ATOM     26  H   UNL     1       1.787  -2.989   2.136  0.00  0.00    -0.079 HD
ENDROOT
BRANCH  18  27
ATOM     27  C   UNL     1      -1.515  -5.536   5.833  0.00  0.00    +0.044 A 
ATOM     28  C   UNL     1      -2.322  -5.446   6.959  0.00  0.00    +0.027 A 
ATOM     29  C   UNL     1      -2.550  -6.565   7.736  0.00  0.00    +0.047 A 
ATOM     30  C   UNL     1      -1.973  -7.778   7.391  0.00  0.00    +0.120 A 
ATOM     31  C   UNL     1      -1.166  -7.868   6.266  0.00  0.00    +0.047 A 
ATOM     32  C   UNL     1      -0.942  -6.751   5.485  0.00  0.00    +0.027 A 
BRANCH  30  33
ATOM     33  O   UNL     1      -2.198  -8.879   8.156  0.00  0.00    -0.495 OA
ATOM     34  C   UNL     1      -1.572 -10.096   7.742  0.00  0.00    +0.277 C 
ENDBRANCH  30  33
ENDBRANCH  18  27
TORSDOF 2
