REMARK  Name = ZINC01042172
REMARK  6 active torsions:
REMARK  status: ('A' for Active; 'I' for Inactive)
REMARK    1  A    between atoms: C_1  and  C_2
REMARK    2  A    between atoms: C_8  and  C_23
REMARK    3  A    between atoms: C_8  and  C_24
REMARK    4  A    between atoms: C_9  and  N_11
REMARK    5  A    between atoms: C_12  and  C_14
REMARK    6  A    between atoms: C_17  and  N_20
REMARK                            x       y       z     vdW  Elec       q    Type
REMARK                         _______ _______ _______ _____ _____    ______ ____
ROOT
ATOM      1  N   UNL     1      -0.543  -0.725  -2.038  0.00  0.00    -0.307 N 
ATOM      2  C   UNL     1      -0.796   0.366  -2.788  0.00  0.00    +0.244 C 
ATOM      3  O   UNL     1      -0.162   1.387  -2.609  0.00  0.00    -0.270 OA
ATOM      4  H   UNL     1      -1.050  -1.540  -2.181  0.00  0.00    +0.149 HD
ENDROOT
BRANCH   1  12
ATOM      5  C   UNL     1      -0.779   0.300   1.059  0.00  0.00    +0.013 C 
ATOM      6  C   UNL     1      -0.126  -0.918   0.403  0.00  0.00    -0.013 C 
ATOM      7  C   UNL     1      -1.033  -2.175   0.244  0.00  0.00    +0.009 C 
ATOM      8  C   UNL     1      -0.045  -3.350   0.062  0.00  0.00    +0.005 C 
ATOM      9  C   UNL     1       1.367  -2.692   0.129  0.00  0.00    -0.003 C 
ATOM     10  C   UNL     1       1.101  -1.539   1.160  0.00  0.00    +0.012 C 
ATOM     11  C   UNL     1       1.487  -1.891  -1.204  0.00  0.00    -0.013 C 
ATOM     12  C   UNL     1       0.496  -0.680  -1.007  0.00  0.00    +0.085 C 
ATOM     13  C   UNL     1       1.084  -2.768  -2.391  0.00  0.00    +0.013 C 
ATOM     14  C   UNL     1       2.914  -1.369  -1.385  0.00  0.00    +0.013 C 
ENDBRANCH   1  12
BRANCH   2  15
ATOM     15  C   UNL     1      -1.845   0.320  -3.829  0.00  0.00    +0.037 A 
ATOM     16  C   UNL     1      -2.580  -0.849  -4.033  0.00  0.00    +0.015 A 
ATOM     17  C   UNL     1      -3.558  -0.884  -5.006  0.00  0.00    +0.033 A 
ATOM     18  C   UNL     1      -3.811   0.235  -5.778  0.00  0.00    +0.126 A 
ATOM     19  C   UNL     1      -3.086   1.397  -5.580  0.00  0.00    +0.033 A 
ATOM     20  C   UNL     1      -2.110   1.448  -4.607  0.00  0.00    +0.015 A 
BRANCH  18  21
ATOM     21  N   UNL     1      -4.861   0.190  -6.819  0.00  0.00    +0.056 N 
ATOM     22  O   UNL     1      -5.496  -0.824  -6.994  0.00  0.00    -0.126 OA
ATOM     23  O   UNL     1      -5.085   1.167  -7.495  0.00  0.00    -0.126 OA
ENDBRANCH  18  21
ENDBRANCH   2  15
TORSDOF 3
