REMARK  Name = ZINC36126497
REMARK  10 active torsions:
REMARK  status: ('A' for Active; 'I' for Inactive)
REMARK    1  A    between atoms: C_1  and  C_2
REMARK    2  A    between atoms: N_5  and  S_16
REMARK    3  A    between atoms: C_7  and  C_15
REMARK    4  A    between atoms: N_9  and  C_10
REMARK    5  A    between atoms: C_10  and  C_11
REMARK    6  A    between atoms: C_11  and  N_12
REMARK    7  A    between atoms: N_12  and  C_13
REMARK    8  A    between atoms: N_12  and  C_14
REMARK    9  A    between atoms: S_16  and  C_19
REMARK   10  A    between atoms: N_28  and  C_29
REMARK                            x       y       z     vdW  Elec       q    Type
REMARK                         _______ _______ _______ _____ _____    ______ ____
ROOT
ATOM      1  C   UNL     1      -0.068   1.631   0.276  0.00  0.00    +0.025 C 
ATOM      2  C   UNL     1      -0.052   0.111   0.103  0.00  0.00    +0.069 C 
ATOM      3  C   UNL     1      -1.475  -0.435   0.255  0.00  0.00    +0.128 C 
ATOM      4  N   UNL     1      -1.416  -1.905   0.234  0.00  0.00    -0.174 NA
ATOM      5  C   UNL     1      -0.470  -2.576   1.139  0.00  0.00    +0.128 C 
ATOM      6  C   UNL     1       0.914  -1.945   0.952  0.00  0.00    +0.069 C 
ATOM      7  N   UNL     1       0.813  -0.489   1.127  0.00  0.00    -0.296 NA
ATOM      8  C   UNL     1       1.431  -2.255  -0.454  0.00  0.00    +0.025 C 
ENDROOT
BRANCH   4   9
ATOM      9  S   UNL     1      -2.387  -2.781  -0.781  0.00  0.00    +0.061 S 
ATOM     10  O   UNL     1      -2.518  -4.073  -0.204  0.00  0.00    -0.153 OA
ATOM     11  O   UNL     1      -3.510  -1.961  -1.077  0.00  0.00    -0.153 OA
BRANCH   9  12
ATOM     12  C   UNL     1      -1.506  -2.992  -2.292  0.00  0.00    +0.109 A 
ATOM     13  C   UNL     1      -1.635  -2.053  -3.301  0.00  0.00    +0.031 A 
ATOM     14  C   UNL     1      -0.947  -2.212  -4.489  0.00  0.00    +0.031 A 
ATOM     15  C   UNL     1      -0.126  -3.314  -4.668  0.00  0.00    +0.090 A 
ATOM     16  C   UNL     1       0.005  -4.260  -3.652  0.00  0.00    +0.159 A 
ATOM     17  C   UNL     1      -0.685  -4.090  -2.462  0.00  0.00    +0.077 A 
ATOM     18  O   UNL     1       0.858  -5.214  -4.097  0.00  0.00    -0.407 OA
ATOM     19  C   UNL     1       1.259  -4.902  -5.340  0.00  0.00    +0.421 A 
ATOM     20  O   UNL     1       2.027  -5.559  -6.016  0.00  0.00    -0.223 OA
ATOM     21  N   UNL     1       0.679  -3.747  -5.722  0.00  0.00    -0.277 N 
ATOM     22  C   UNL     1       0.860  -3.071  -7.009  0.00  0.00    +0.156 C 
ENDBRANCH   9  12
ENDBRANCH   4   9
BRANCH   7  23
ATOM     23  C   UNL     1       2.142   0.135   1.125  0.00  0.00    +0.066 C 
BRANCH  23  24
ATOM     24  C   UNL     1       2.910  -0.298   2.376  0.00  0.00    -0.064 C 
BRANCH  24  25
ATOM     25  N   UNL     1       4.240   0.326   2.375  0.00  0.00    +0.377 N 
ATOM     26  C   UNL     1       4.097   1.784   2.492  0.00  0.00    -0.097 C 
ATOM     27  C   UNL     1       5.021  -0.182   3.511  0.00  0.00    -0.097 C 
ATOM     28  H   UNL     1       4.715   0.103   1.513  0.00  0.00    -0.083 HD
ENDBRANCH  24  25
ENDBRANCH  23  24
ENDBRANCH   7  23
TORSDOF 5
