REMARK  Name = ZINC15972397
REMARK  4 active torsions:
REMARK  status: ('A' for Active; 'I' for Inactive)
REMARK    1  A    between atoms: C_8  and  C_27
REMARK    2  A    between atoms: C_10  and  C_18
REMARK    3  A    between atoms: C_22  and  N_24
REMARK    4  A    between atoms: C_27  and  C_29
REMARK                            x       y       z     vdW  Elec       q    Type
REMARK                         _______ _______ _______ _____ _____    ______ ____
ROOT
ATOM      1  C   UNL     1       0.331   1.613   1.054  0.00  0.00    +0.000 A 
ATOM      2  C   UNL     1       1.551   2.204   1.325  0.00  0.00    +0.002 A 
ATOM      3  C   UNL     1       2.716   1.470   1.237  0.00  0.00    +0.023 A 
ATOM      4  C   UNL     1       2.671   0.126   0.874  0.00  0.00    +0.039 A 
ATOM      5  C   UNL     1       1.438  -0.459   0.604  0.00  0.00    +0.004 A 
ATOM      6  C   UNL     1       0.278   0.278   0.694  0.00  0.00    +0.008 A 
ATOM      7  C   UNL     1       1.730  -1.889   0.248  0.00  0.00    +0.137 C 
ATOM      8  C   UNL     1       1.027  -2.858   1.215  0.00  0.00    +0.106 C 
ATOM      9  C   UNL     1       0.958  -4.153   0.360  0.00  0.00    +0.049 C 
ATOM     10  C   UNL     1       0.732  -3.614  -1.067  0.00  0.00    +0.066 C 
ATOM     11  N   UNL     1       1.244  -2.225  -1.097  0.00  0.00    -0.281 NA
ATOM     12  C   UNL     1       2.356  -2.160  -2.070  0.00  0.00    +0.086 C 
ATOM     13  C   UNL     1       2.121  -3.351  -3.031  0.00  0.00    +0.017 C 
ATOM     14  C   UNL     1       1.564  -4.447  -2.062  0.00  0.00    +0.021 C 
ATOM     15  C   UNL     1       3.226  -2.018   0.348  0.00  0.00    +0.243 C 
ATOM     16  O   UNL     1       3.882  -3.016   0.137  0.00  0.00    -0.273 OA
ATOM     17  N   UNL     1       3.695  -0.811   0.717  0.00  0.00    -0.283 N 
ATOM     18  H   UNL     1       4.635  -0.615   0.857  0.00  0.00    +0.155 HD
ENDROOT
BRANCH   9  19
ATOM     19  C   UNL     1      -0.197  -5.019   0.796  0.00  0.00    -0.040 A 
ATOM     20  C   UNL     1      -1.486  -4.522   0.757  0.00  0.00    +0.004 A 
ATOM     21  C   UNL     1      -2.545  -5.315   1.157  0.00  0.00    +0.002 A 
ATOM     22  C   UNL     1      -2.314  -6.606   1.595  0.00  0.00    +0.033 A 
ATOM     23  C   UNL     1      -1.025  -7.103   1.633  0.00  0.00    +0.126 A 
ATOM     24  C   UNL     1       0.033  -6.311   1.230  0.00  0.00    +0.036 A 
BRANCH  23  25
ATOM     25  N   UNL     1      -0.778  -8.485   2.103  0.00  0.00    +0.056 N 
ATOM     26  O   UNL     1      -1.704  -9.178   2.454  0.00  0.00    -0.126 OA
ATOM     27  O   UNL     1       0.349  -8.919   2.137  0.00  0.00    -0.126 OA
ENDBRANCH  23  25
ENDBRANCH   9  19
BRANCH   8  28
ATOM     28  C   UNL     1      -0.354  -2.366   1.564  0.00  0.00    +0.204 C 
ATOM     29  O   UNL     1      -1.061  -1.880   0.705  0.00  0.00    -0.288 OA
BRANCH  28  30
ATOM     30  C   UNL     1      -0.826  -2.469   2.892  0.00  0.00    +0.170 A 
ATOM     31  C   UNL     1      -2.065  -2.066   3.349  0.00  0.00    +0.053 A 
ATOM     32  C   UNL     1      -2.098  -2.357   4.719  0.00  0.00    +0.042 A 
ATOM     33  C   UNL     1      -0.907  -2.914   5.040  0.00  0.00    +0.196 A 
ATOM     34  O   UNL     1      -0.148  -2.985   3.940  0.00  0.00    -0.460 OA
ENDBRANCH  28  30
ENDBRANCH   8  28
TORSDOF 4
