REMARK  Name = ZINC35621653
REMARK  10 active torsions:
REMARK  status: ('A' for Active; 'I' for Inactive)
REMARK    1  A    between atoms: C_1  and  C_2
REMARK    2  A    between atoms: C_2  and  C_3
REMARK    3  A    between atoms: C_2  and  N_4
REMARK    4  A    between atoms: C_7  and  C_17
REMARK    5  A    between atoms: C_8  and  N_11
REMARK    6  A    between atoms: C_18  and  C_31
REMARK    7  A    between atoms: N_20  and  C_23
REMARK    8  A    between atoms: C_21  and  O_22
REMARK    9  A    between atoms: C_31  and  O_32
REMARK   10  A    between atoms: O_32  and  C_33
REMARK                            x       y       z     vdW  Elec       q    Type
REMARK                         _______ _______ _______ _____ _____    ______ ____
ROOT
ATOM      1  C   UNL     1      -4.829  -0.852   1.337  0.00  0.00    +0.076 A 
ATOM      2  C   UNL     1      -5.864   0.090   1.153  0.00  0.00    +0.101 A 
ATOM      3  N   UNL     1      -6.826  -0.186   1.991  0.00  0.00    -0.165 NA
ATOM      4  N   UNL     1      -6.465  -1.307   2.749  0.00  0.00    -0.200 N 
ATOM      5  C   UNL     1      -5.237  -1.719   2.340  0.00  0.00    +0.224 A 
ENDROOT
BRANCH   4   6
ATOM      6  C   UNL     1      -7.240  -1.904   3.752  0.00  0.00    +0.071 A 
ATOM      7  C   UNL     1      -7.205  -3.280   3.932  0.00  0.00    +0.029 A 
ATOM      8  C   UNL     1      -7.969  -3.867   4.921  0.00  0.00    +0.023 A 
ATOM      9  C   UNL     1      -8.771  -3.085   5.733  0.00  0.00    +0.059 A 
ATOM     10  C   UNL     1      -8.809  -1.712   5.556  0.00  0.00    +0.061 A 
ATOM     11  C   UNL     1      -8.040  -1.120   4.572  0.00  0.00    +0.049 A 
ATOM     12 CL   UNL     1      -9.816  -0.733   6.577  0.00  0.00    -0.082 Cl
ATOM     13 CL   UNL     1      -9.732  -3.826   6.975  0.00  0.00    -0.082 Cl
ENDBRANCH   4   6
BRANCH   1  17
ATOM     14  N   UNL     1      -1.362  -0.539   0.030  0.00  0.00    -0.230 N 
ATOM     15  C   UNL     1      -2.286  -0.240   0.961  0.00  0.00    +0.256 C 
ATOM     16  O   UNL     1      -2.109   0.461   1.936  0.00  0.00    -0.269 OA
ATOM     17  C   UNL     1      -3.553  -0.908   0.595  0.00  0.00    +0.077 C 
ATOM     18  C   UNL     1      -3.309  -1.589  -0.568  0.00  0.00    +0.106 C 
ATOM     19  C   UNL     1      -1.898  -1.333  -0.914  0.00  0.00    +0.268 C 
ATOM     20  O   UNL     1      -1.316  -1.768  -1.887  0.00  0.00    -0.268 OA
BRANCH  18  21
ATOM     21  N   UNL     1      -4.213  -2.363  -1.283  0.00  0.00    -0.321 N 
ATOM     22  C   UNL     1      -3.863  -2.912  -2.602  0.00  0.00    +0.133 C 
ATOM     23  C   UNL     1      -4.178  -4.412  -2.601  0.00  0.00    +0.178 C 
ATOM     24  O   UNL     1      -5.526  -4.610  -2.169  0.00  0.00    -0.377 OA
ATOM     25  C   UNL     1      -5.782  -4.173  -0.832  0.00  0.00    +0.178 C 
ATOM     26  C   UNL     1      -5.548  -2.665  -0.740  0.00  0.00    +0.133 C 
ENDBRANCH  18  21
BRANCH  14  28
ATOM     27  C   UNL     1       0.038   1.466   0.003  0.00  0.00    +0.028 C 
ATOM     28  C   UNL     1       0.023  -0.064   0.040  0.00  0.00    +0.079 C 
ATOM     29  C   UNL     1       0.720  -0.551   1.312  0.00  0.00    +0.028 C 
ENDBRANCH  14  28
ENDBRANCH   1  17
BRANCH   5  30
ATOM     30  O   UNL     1      -4.540  -2.776   2.824  0.00  0.00    -0.492 OA
ATOM     31  H   UNL     1      -3.963  -2.560   3.569  0.00  0.00    +0.294 HD
ENDBRANCH   5  30
BRANCH   2  32
ATOM     32  C   UNL     1      -5.860   1.223   0.159  0.00  0.00    +0.217 C 
BRANCH  32  33
ATOM     33  O   UNL     1      -6.427   0.777  -1.074  0.00  0.00    -0.377 OA
ATOM     34  C   UNL     1      -6.471   1.780  -2.091  0.00  0.00    +0.194 C 
ENDBRANCH  32  33
ENDBRANCH   2  32
TORSDOF 7
