REMARK  Name = ZINC37538761
REMARK  15 active torsions:
REMARK  status: ('A' for Active; 'I' for Inactive)
REMARK    1  A    between atoms: C_1  and  C_2
REMARK    2  A    between atoms: C_4  and  O_20
REMARK    3  A    between atoms: C_6  and  C_17
REMARK    4  A    between atoms: C_10  and  C_16
REMARK    5  A    between atoms: C_11  and  O_15
REMARK    6  A    between atoms: C_17  and  C_18
REMARK    7  A    between atoms: C_17  and  C_19
REMARK    8  A    between atoms: O_20  and  C_21
REMARK    9  A    between atoms: C_23  and  O_39
REMARK   10  A    between atoms: C_25  and  O_38
REMARK   11  A    between atoms: C_27  and  O_37
REMARK   12  A    between atoms: C_29  and  C_32
REMARK   13  A    between atoms: C_32  and  O_33
REMARK   14  A    between atoms: O_33  and  C_34
REMARK   15  A    between atoms: C_34  and  C_36
REMARK                            x       y       z     vdW  Elec       q    Type
REMARK                         _______ _______ _______ _____ _____    ______ ____
ROOT
ATOM      1  O   UNL     1      -0.618   0.385  -3.398  0.00  0.00    -0.341 OA
ENDROOT
BRANCH   1   5
ATOM      2  C   UNL     1       1.220   2.372  -0.989  0.00  0.00    +0.039 C 
ATOM      3  C   UNL     1       1.048   0.931  -0.591  0.00  0.00    -0.074 C 
ATOM      4  C   UNL     1       0.783   0.019  -1.490  0.00  0.00    +0.003 C 
ATOM      5  C   UNL     1       0.740   0.363  -2.954  0.00  0.00    +0.148 C 
ATOM      6  C   UNL     1       1.518  -0.682  -3.753  0.00  0.00    +0.028 C 
ATOM      7  C   UNL     1       2.957  -0.788  -3.248  0.00  0.00    +0.034 C 
ATOM      8  C   UNL     1       2.953  -1.075  -1.770  0.00  0.00    -0.025 C 
ATOM      9  C   UNL     1       3.607  -0.306  -0.938  0.00  0.00    -0.048 C 
ATOM     10  C   UNL     1       3.504  -0.553   0.547  0.00  0.00    +0.140 C 
ATOM     11  C   UNL     1       2.733   0.600   1.198  0.00  0.00    +0.040 C 
ATOM     12  C   UNL     1       1.247   0.515   0.846  0.00  0.00    +0.033 C 
ATOM     13  C   UNL     1       4.483   0.803  -1.460  0.00  0.00    +0.041 C 
BRANCH   6  14
ATOM     14  C   UNL     1       0.832  -2.042  -3.605  0.00  0.00    -0.011 C 
ATOM     15  C   UNL     1      -0.542  -1.996  -4.276  0.00  0.00    +0.007 C 
ATOM     16  C   UNL     1       1.689  -3.121  -4.270  0.00  0.00    +0.007 C 
ENDBRANCH   6  14
BRANCH  10  17
ATOM     17  O   UNL     1       2.813  -1.782   0.780  0.00  0.00    -0.388 OA
ATOM     18  H   UNL     1       3.244  -2.555   0.392  0.00  0.00    +0.210 HD
ENDBRANCH  10  17
ENDBRANCH   1   5
BRANCH   1  19
ATOM     19  C   UNL     1      -1.248   1.662  -3.278  0.00  0.00    +0.282 C 
ATOM     20  C   UNL     1      -2.749   1.518  -3.541  0.00  0.00    +0.201 C 
ATOM     21  C   UNL     1      -3.408   2.899  -3.470  0.00  0.00    +0.179 C 
ATOM     22  C   UNL     1      -2.728   3.829  -4.480  0.00  0.00    +0.178 C 
ATOM     23  C   UNL     1      -1.227   3.884  -4.181  0.00  0.00    +0.190 C 
ATOM     24  O   UNL     1      -0.683   2.564  -4.232  0.00  0.00    -0.339 OA
BRANCH  22  25
ATOM     25  O   UNL     1      -2.934   3.330  -5.803  0.00  0.00    -0.386 OA
ATOM     26  H   UNL     1      -3.865   3.264  -6.058  0.00  0.00    +0.210 HD
ENDBRANCH  22  25
BRANCH  21  27
ATOM     27  O   UNL     1      -4.797   2.783  -3.785  0.00  0.00    -0.386 OA
ATOM     28  H   UNL     1      -5.288   2.202  -3.188  0.00  0.00    +0.210 HD
ENDBRANCH  21  27
BRANCH  20  29
ATOM     29  O   UNL     1      -2.955   0.955  -4.839  0.00  0.00    -0.384 OA
ATOM     30  H   UNL     1      -2.559   0.081  -4.955  0.00  0.00    +0.210 HD
ENDBRANCH  20  29
BRANCH  23  31
ATOM     31  C   UNL     1      -0.532   4.764  -5.221  0.00  0.00    +0.266 C 
BRANCH  31  32
ATOM     32  O   UNL     1       0.847   4.911  -4.876  0.00  0.00    -0.462 OA
BRANCH  32  33
ATOM     33  C   UNL     1       1.604   5.659  -5.694  0.00  0.00    +0.304 C 
ATOM     34  O   UNL     1       1.111   6.173  -6.671  0.00  0.00    -0.251 OA
ATOM     35  C   UNL     1       3.067   5.859  -5.394  0.00  0.00    +0.136 C 
ENDBRANCH  32  33
ENDBRANCH  31  32
ENDBRANCH  23  31
ENDBRANCH   1  19
TORSDOF 10
