REMARK  Name = ZINC06667854
REMARK  5 active torsions:
REMARK  status: ('A' for Active; 'I' for Inactive)
REMARK    1  A    between atoms: C_1  and  N_38
REMARK    2  A    between atoms: C_2  and  C_4
REMARK    3  A    between atoms: C_2  and  C_14
REMARK    4  A    between atoms: C_2  and  N_38
REMARK    5  A    between atoms: N_18  and  C_19
REMARK                            x       y       z     vdW  Elec       q    Type
REMARK                         _______ _______ _______ _____ _____    ______ ____
ROOT
ATOM      1  C   UNL     1       0.151  -0.140  -0.164  0.00  0.00    +0.047 C 
ENDROOT
BRANCH   1   2
ATOM      2  C   UNL     1       1.167  -0.332  -1.260  0.00  0.00    +0.010 A 
ATOM      3  C   UNL     1       1.134   0.276  -2.456  0.00  0.00    +0.029 A 
ATOM      4  C   UNL     1       2.302  -0.192  -3.207  0.00  0.00    -0.000 A 
ATOM      5  C   UNL     1       2.805   0.071  -4.483  0.00  0.00    +0.010 A 
ATOM      6  C   UNL     1       3.951  -0.545  -4.900  0.00  0.00    +0.001 A 
ATOM      7  C   UNL     1       4.620  -1.430  -4.066  0.00  0.00    +0.002 A 
ATOM      8  C   UNL     1       4.141  -1.704  -2.803  0.00  0.00    +0.026 A 
ATOM      9  C   UNL     1       2.976  -1.088  -2.358  0.00  0.00    +0.047 A 
ATOM     10  N   UNL     1       2.264  -1.146  -1.181  0.00  0.00    -0.359 N 
ATOM     11  H   UNL     1       2.503  -1.686  -0.411  0.00  0.00    +0.166 HD
ENDBRANCH   1   2
BRANCH   1  12
ATOM     12  C   UNL     1       0.700  -0.682   1.131  0.00  0.00    +0.148 A 
ATOM     13  N   UNL     1       1.639  -0.141   1.862  0.00  0.00    -0.114 NA
ATOM     14  N   UNL     1       1.869  -0.855   2.904  0.00  0.00    -0.023 NA
ATOM     15  N   UNL     1       1.109  -1.897   2.907  0.00  0.00    -0.039 NA
ATOM     16  N   UNL     1       0.317  -1.821   1.748  0.00  0.00    -0.198 N 
BRANCH  16  17
ATOM     17  C   UNL     1      -0.661  -2.733   1.324  0.00  0.00    +0.069 A 
ATOM     18  C   UNL     1      -1.551  -3.275   2.241  0.00  0.00    +0.029 A 
ATOM     19  C   UNL     1      -2.515  -4.169   1.820  0.00  0.00    +0.022 A 
ATOM     20  C   UNL     1      -2.589  -4.532   0.487  0.00  0.00    +0.041 A 
ATOM     21  C   UNL     1      -1.700  -3.997  -0.428  0.00  0.00    +0.022 A 
ATOM     22  C   UNL     1      -0.737  -3.099  -0.013  0.00  0.00    +0.029 A 
ATOM     23 CL   UNL     1      -3.798  -5.662  -0.038  0.00  0.00    -0.084 Cl
ENDBRANCH  16  17
ENDBRANCH   1  12
BRANCH   1  25
ATOM     24  C   UNL     1       1.092   2.058   0.216  0.00  0.00    -0.099 C 
ATOM     25  N   UNL     1      -0.150   1.296  -0.011  0.00  0.00    +0.388 N 
ATOM     26  H   UNL     1      -0.607   1.639  -0.864  0.00  0.00    -0.085 HD
ATOM     27  H   UNL     1      -0.779   1.427   0.790  0.00  0.00    -0.085 HD
ENDBRANCH   1  25
TORSDOF 4
