REMARK  Name = ZINC12148917
REMARK  10 active torsions:
REMARK  status: ('A' for Active; 'I' for Inactive)
REMARK    1  A    between atoms: C_1  and  C_2
REMARK    2  A    between atoms: C_2  and  C_3
REMARK    3  A    between atoms: C_2  and  C_4
REMARK    4  A    between atoms: C_4  and  C_5
REMARK    5  A    between atoms: C_5  and  C_7
REMARK    6  A    between atoms: C_5  and  N_25
REMARK    7  A    between atoms: C_16  and  C_17
REMARK    8  A    between atoms: C_16  and  N_63
REMARK    9  A    between atoms: C_18  and  C_19
REMARK   10  A    between atoms: C_26  and  C_28
REMARK                            x       y       z     vdW  Elec       q    Type
REMARK                         _______ _______ _______ _____ _____    ______ ____
ROOT
ATOM      1  C   UNL     1      -2.825   1.562   2.631  0.00  0.00    +0.154 A 
ATOM      2  N   UNL     1      -3.311   2.769   2.769  0.00  0.00    -0.132 NA
ATOM      3  N   UNL     1      -3.815   2.902   3.946  0.00  0.00    -0.134 NA
ATOM      4  C   UNL     1      -3.671   1.792   4.609  0.00  0.00    +0.132 A 
ATOM      5  N   UNL     1      -3.027   0.917   3.799  0.00  0.00    -0.315 N 
ATOM      6  C   UNL     1      -2.626  -0.446   4.150  0.00  0.00    +0.106 C 
ATOM      7  C   UNL     1      -3.579  -0.991   5.218  0.00  0.00    -0.056 C 
ATOM      8  C   UNL     1      -2.998   0.794   6.767  0.00  0.00    -0.071 C 
ATOM      9  C   UNL     1      -4.134   1.489   6.011  0.00  0.00    +0.058 C 
ATOM     10  N   UNL     1      -3.095  -0.670   6.581  0.00  0.00    +0.383 N 
ATOM     11  H   UNL     1      -3.763  -1.047   7.265  0.00  0.00    -0.081 HD
ENDROOT
BRANCH   1  12
ATOM     12  C   UNL     1      -2.161   1.000   1.401  0.00  0.00    +0.142 C 
BRANCH  12  13
ATOM     13  N   UNL     1      -2.948   1.352   0.216  0.00  0.00    -0.299 N 
ATOM     14  C   UNL     1      -2.821   0.631  -0.915  0.00  0.00    +0.280 C 
ATOM     15  O   UNL     1      -2.121  -0.364  -0.928  0.00  0.00    -0.267 OA
ATOM     16  H   UNL     1      -3.560   2.104   0.247  0.00  0.00    +0.150 HD
BRANCH  14  17
ATOM     17  C   UNL     1      -3.525   1.047  -2.133  0.00  0.00    +0.189 A 
ATOM     18  C   UNL     1      -3.484   0.412  -3.340  0.00  0.00    +0.054 A 
ATOM     19  C   UNL     1      -4.300   1.149  -4.212  0.00  0.00    +0.042 A 
ATOM     20  C   UNL     1      -4.798   2.189  -3.507  0.00  0.00    +0.196 A 
ATOM     21  O   UNL     1      -4.332   2.122  -2.253  0.00  0.00    -0.458 OA
ENDBRANCH  14  17
ENDBRANCH  12  13
BRANCH  12  22
ATOM     22  C   UNL     1      -0.753   1.585   1.270  0.00  0.00    +0.033 C 
BRANCH  22  24
ATOM     23  C   UNL     1       1.476   1.787   2.380  0.00  0.00    +0.007 C 
ATOM     24  C   UNL     1       0.114   1.092   2.430  0.00  0.00    -0.015 C 
ATOM     25  C   UNL     1       0.309  -0.421   2.314  0.00  0.00    +0.007 C 
ENDBRANCH  22  24
ENDBRANCH  12  22
ENDBRANCH   1  12
BRANCH  10  26
ATOM     26  C   UNL     1      -1.779  -1.293   6.806  0.00  0.00    -0.051 C 
BRANCH  26  27
ATOM     27  C   UNL     1      -1.430  -1.165   8.267  0.00  0.00    -0.045 C 
ATOM     28  C   UNL     1      -1.150  -2.247   8.979  0.00  0.00    +0.002 C 
BRANCH  28  29
ATOM     29  C   UNL     1      -0.808  -2.120  10.412  0.00  0.00    -0.025 A 
ATOM     30  C   UNL     1      -0.775  -0.863  11.016  0.00  0.00    +0.008 A 
ATOM     31  C   UNL     1      -0.461  -0.752  12.355  0.00  0.00    +0.001 A 
ATOM     32  C   UNL     1      -0.168  -1.884  13.096  0.00  0.00    +0.000 A 
ATOM     33  C   UNL     1      -0.195  -3.133  12.502  0.00  0.00    +0.001 A 
ATOM     34  C   UNL     1      -0.513  -3.258  11.165  0.00  0.00    +0.008 A 
ENDBRANCH  28  29
ENDBRANCH  26  27
ENDBRANCH  10  26
TORSDOF 8
