REMARK  Name = ZINC32570195
REMARK  13 active torsions:
REMARK  status: ('A' for Active; 'I' for Inactive)
REMARK    1  A    between atoms: C_1  and  C_2
REMARK    2  A    between atoms: C_2  and  O_3
REMARK    3  A    between atoms: O_3  and  C_4
REMARK    4  A    between atoms: C_4  and  C_6
REMARK    5  A    between atoms: C_7  and  C_13
REMARK    6  A    between atoms: C_13  and  S_14
REMARK    7  A    between atoms: S_14  and  C_15
REMARK    8  A    between atoms: C_18  and  C_27
REMARK    9  A    between atoms: N_19  and  C_20
REMARK   10  A    between atoms: C_27  and  C_29
REMARK   11  A    between atoms: C_27  and  N_30
REMARK   12  A    between atoms: N_30  and  C_31
REMARK   13  A    between atoms: N_30  and  C_32
REMARK                            x       y       z     vdW  Elec       q    Type
REMARK                         _______ _______ _______ _____ _____    ______ ____
ROOT
ATOM      1  C   UNL     1       0.223  -1.276  -1.062  0.00  0.00    +0.196 A 
ATOM      2  N   UNL     1       0.228  -2.534  -0.688  0.00  0.00    -0.122 NA
ATOM      3  N   UNL     1      -0.334  -2.651   0.462  0.00  0.00    -0.135 NA
ATOM      4  C   UNL     1      -0.724  -1.484   0.892  0.00  0.00    +0.125 A 
ATOM      5  N   UNL     1      -0.381  -0.564  -0.062  0.00  0.00    -0.275 N 
ENDROOT
BRANCH   5   6
ATOM      6  C   UNL     1      -0.606   0.821  -0.025  0.00  0.00    +0.050 A 
ATOM      7  C   UNL     1      -1.903   1.314  -0.043  0.00  0.00    +0.028 A 
ATOM      8  C   UNL     1      -2.123   2.677   0.001  0.00  0.00    +0.022 A 
ATOM      9  C   UNL     1      -1.051   3.551   0.050  0.00  0.00    +0.041 A 
ATOM     10  C   UNL     1       0.244   3.061   0.063  0.00  0.00    +0.022 A 
ATOM     11  C   UNL     1       0.468   1.698   0.025  0.00  0.00    +0.028 A 
ATOM     12 CL   UNL     1      -1.330   5.263   0.097  0.00  0.00    -0.084 Cl
ENDBRANCH   5   6
BRANCH   4  13
ATOM     13  C   UNL     1      -1.423  -1.201   2.196  0.00  0.00    -0.003 C 
ATOM     14  C   UNL     1      -0.415  -1.284   3.344  0.00  0.00    -0.005 C 
BRANCH  13  15
ATOM     15  N   UNL     1      -2.488  -2.191   2.407  0.00  0.00    +0.382 N 
ATOM     16  C   UNL     1      -3.193  -1.945   3.672  0.00  0.00    -0.096 C 
ATOM     17  C   UNL     1      -3.425  -2.205   1.276  0.00  0.00    -0.096 C 
ATOM     18  H   UNL     1      -2.018  -3.184   2.469  0.00  0.00    -0.082 HD
ENDBRANCH  13  15
ENDBRANCH   4  13
BRANCH   1  19
ATOM     19  S   UNL     1       0.873  -0.627  -2.566  0.00  0.00    -0.080 S 
BRANCH  19  20
ATOM     20  C   UNL     1       1.480  -2.152  -3.329  0.00  0.00    +0.128 C 
BRANCH  20  22
ATOM     21  C   UNL     1       3.441  -1.829  -4.794  0.00  0.00    +0.071 C 
ATOM     22  C   UNL     1       2.096  -1.833  -4.667  0.00  0.00    +0.034 C 
ATOM     23  N   UNL     1       1.287  -1.558  -5.732  0.00  0.00    -0.272 N 
ATOM     24  C   UNL     1       1.744  -1.259  -6.954  0.00  0.00    +0.304 C 
ATOM     25  O   UNL     1       0.944  -1.023  -7.839  0.00  0.00    -0.253 OA
ATOM     26  N   UNL     1       3.061  -1.215  -7.237  0.00  0.00    -0.295 N 
ATOM     27  C   UNL     1       4.019  -1.503  -6.157  0.00  0.00    +0.150 C 
ATOM     28  H   UNL     1       0.194  -1.576  -5.610  0.00  0.00    +0.156 HD
ATOM     29  H   UNL     1       3.425  -0.973  -8.246  0.00  0.00    +0.151 HD
BRANCH  21  30
ATOM     30  C   UNL     1       4.281  -2.119  -3.694  0.00  0.00    +0.338 C 
ATOM     31  O   UNL     1       4.817  -1.214  -3.083  0.00  0.00    -0.245 OA
BRANCH  30  32
ATOM     32  O   UNL     1       4.487  -3.400  -3.322  0.00  0.00    -0.462 OA
BRANCH  32  34
ATOM     33  C   UNL     1       5.459  -5.121  -1.932  0.00  0.00    +0.048 C 
ATOM     34  C   UNL     1       5.347  -3.620  -2.202  0.00  0.00    +0.229 C 
ENDBRANCH  32  34
ENDBRANCH  30  32
ENDBRANCH  21  30
ENDBRANCH  20  22
ENDBRANCH  19  20
ENDBRANCH   1  19
TORSDOF 9
