REMARK  Name = ZINC09123740
REMARK  15 active torsions:
REMARK  status: ('A' for Active; 'I' for Inactive)
REMARK    1  A    between atoms: C_1  and  C_2
REMARK    2  A    between atoms: C_2  and  N_63
REMARK    3  A    between atoms: C_3  and  C_4
REMARK    4  A    between atoms: C_3  and  N_63
REMARK    5  A    between atoms: C_5  and  C_6
REMARK    6  A    between atoms: C_5  and  N_63
REMARK    7  A    between atoms: C_6  and  N_7
REMARK    8  A    between atoms: C_8  and  C_29
REMARK    9  A    between atoms: C_11  and  C_12
REMARK   10  A    between atoms: C_11  and  O_24
REMARK   11  A    between atoms: C_13  and  C_23
REMARK   12  A    between atoms: C_14  and  C_19
REMARK   13  A    between atoms: C_17  and  C_18
REMARK   14  A    between atoms: C_19  and  O_21
REMARK   15  A    between atoms: O_21  and  C_22
REMARK                            x       y       z     vdW  Elec       q    Type
REMARK                         _______ _______ _______ _____ _____    ______ ____
ROOT
ATOM      1  N   UNL     1      -1.892  -5.883  -2.937  0.00  0.00    -0.285 N 
ATOM      2  C   UNL     1      -1.861  -5.246  -1.617  0.00  0.00    +0.144 C 
ATOM      3  C   UNL     1      -1.038  -3.987  -1.763  0.00  0.00    +0.071 C 
ATOM      4  C   UNL     1      -0.744  -3.067  -0.773  0.00  0.00    +0.135 C 
ATOM      5  C   UNL     1      -0.628  -3.942  -3.102  0.00  0.00    +0.249 C 
ATOM      6  O   UNL     1       0.060  -3.075  -3.609  0.00  0.00    -0.282 OA
ATOM      7  C   UNL     1      -1.179  -5.137  -3.797  0.00  0.00    +0.288 C 
ATOM      8  O   UNL     1      -1.009  -5.399  -4.970  0.00  0.00    -0.266 OA
ENDROOT
BRANCH   4   9
ATOM      9  C   UNL     1       0.081  -1.891  -1.084  0.00  0.00    +0.041 A 
ATOM     10  C   UNL     1      -0.358  -0.548  -1.144  0.00  0.00    -0.008 A 
ATOM     11  C   UNL     1       0.728   0.212  -1.464  0.00  0.00    +0.128 A 
ATOM     12  N   UNL     1       1.816  -0.623  -1.607  0.00  0.00    -0.352 N 
ATOM     13  H   UNL     1       2.715  -0.339  -1.837  0.00  0.00    +0.166 HD
ATOM     14  C   UNL     1       1.436  -1.889  -1.375  0.00  0.00    +0.024 A 
ATOM     15  C   UNL     1       2.329  -3.102  -1.428  0.00  0.00    +0.064 C 
ATOM     16  C   UNL     1      -1.760  -0.052  -0.901  0.00  0.00    +0.047 C 
BRANCH  11  17
ATOM     17  C   UNL     1       0.736   1.669  -1.633  0.00  0.00    +0.356 C 
ATOM     18  O   UNL     1      -0.292   2.303  -1.491  0.00  0.00    -0.243 OA
BRANCH  17  19
ATOM     19  O   UNL     1       1.882   2.305  -1.951  0.00  0.00    -0.463 OA
ATOM     20  C   UNL     1       1.816   3.747  -2.102  0.00  0.00    +0.280 C 
ENDBRANCH  17  19
ENDBRANCH  11  17
ENDBRANCH   4   9
BRANCH   2  21
ATOM     21  C   UNL     1      -1.220  -6.167  -0.611  0.00  0.00    -0.020 A 
ATOM     22  C   UNL     1      -0.131  -6.951  -0.959  0.00  0.00    +0.025 A 
ATOM     23  C   UNL     1       0.434  -7.780  -0.008  0.00  0.00    +0.111 A 
ATOM     24  N   UNL     1      -0.058  -7.838   1.214  0.00  0.00    -0.263 NA
ATOM     25  C   UNL     1      -1.096  -7.111   1.579  0.00  0.00    +0.111 A 
ATOM     26  C   UNL     1      -1.709  -6.255   0.684  0.00  0.00    +0.025 A 
ENDBRANCH   2  21
BRANCH   4  27
ATOM     27  O   UNL     1      -1.214  -3.249   0.479  0.00  0.00    -0.506 OA
ATOM     28  H   UNL     1      -0.909  -2.497   1.062  0.00  0.00    +0.292 HD
ENDBRANCH   4  27
BRANCH   1  29
ATOM     29  C   UNL     1      -2.582  -7.134  -3.263  0.00  0.00    +0.090 C 
BRANCH  29  30
ATOM     30  C   UNL     1      -1.633  -8.313  -3.038  0.00  0.00    -0.060 C 
BRANCH  30  31
ATOM     31  N   UNL     1      -2.302  -9.551  -3.491  0.00  0.00    +0.380 N 
ATOM     32  H   UNL     1      -3.286  -9.525  -3.197  0.00  0.00    -0.082 HD
BRANCH  31  34
ATOM     33  C   UNL     1      -3.129 -10.809  -5.419  0.00  0.00    -0.017 C 
ATOM     34  C   UNL     1      -2.243  -9.647  -4.964  0.00  0.00    -0.082 C 
ENDBRANCH  31  34
BRANCH  31  35
ATOM     35  C   UNL     1      -1.650 -10.729  -2.881  0.00  0.00    -0.082 C 
ATOM     36  C   UNL     1      -2.140 -10.868  -1.438  0.00  0.00    -0.017 C 
ENDBRANCH  31  35
ENDBRANCH  30  31
ENDBRANCH  29  30
ENDBRANCH   1  29
TORSDOF 10
