REMARK  Name = ZINC39016070
REMARK  10 active torsions:
REMARK  status: ('A' for Active; 'I' for Inactive)
REMARK    1  A    between atoms: C_1  and  C_2
REMARK    2  A    between atoms: C_4  and  C_15
REMARK    3  A    between atoms: C_5  and  C_14
REMARK    4  A    between atoms: N_7  and  C_8
REMARK    5  A    between atoms: N_16  and  N_17
REMARK    6  A    between atoms: C_18  and  C_24
REMARK    7  A    between atoms: C_27  and  C_30
REMARK    8  A    between atoms: C_30  and  C_31
REMARK    9  A    between atoms: C_30  and  C_32
REMARK   10  A    between atoms: C_30  and  C_33
REMARK                            x       y       z     vdW  Elec       q    Type
REMARK                         _______ _______ _______ _____ _____    ______ ____
ROOT
ATOM      1  N   UNL     1      -4.685  -0.582  -1.509  0.00  0.00    -0.173 N 
ATOM      2  C   UNL     1      -6.093  -1.001  -1.384  0.00  0.00    +0.264 C 
ATOM      3  N   UNL     1      -6.743  -0.409  -2.564  0.00  0.00    -0.189 NA
ATOM      4  N   UNL     1      -5.886   0.204  -3.206  0.00  0.00    -0.219 N 
ATOM      5  C   UNL     1      -4.649   0.152  -2.643  0.00  0.00    +0.174 C 
ATOM      6  S   UNL     1      -3.250   0.905  -3.280  0.00  0.00    -0.015 S 
ATOM      7  H   UNL     1      -6.077   0.681  -4.029  0.00  0.00    +0.176 HD
ENDROOT
BRANCH   2   8
ATOM      8  C   UNL     1      -6.203  -2.503  -1.414  0.00  0.00    -0.002 A 
ATOM      9  C   UNL     1      -5.169  -3.282  -0.929  0.00  0.00    +0.008 A 
ATOM     10  C   UNL     1      -5.270  -4.660  -0.956  0.00  0.00    +0.004 A 
ATOM     11  C   UNL     1      -6.405  -5.260  -1.469  0.00  0.00    -0.042 A 
ATOM     12  C   UNL     1      -7.440  -4.482  -1.953  0.00  0.00    +0.004 A 
ATOM     13  C   UNL     1      -7.341  -3.103  -1.922  0.00  0.00    +0.008 A 
BRANCH  11  14
ATOM     14  C   UNL     1      -6.515  -6.763  -1.500  0.00  0.00    -0.013 C 
ATOM     15  C   UNL     1      -6.419  -7.311  -0.074  0.00  0.00    +0.015 C 
ATOM     16  C   UNL     1      -7.859  -7.164  -2.110  0.00  0.00    +0.015 C 
ATOM     17  C   UNL     1      -5.378  -7.340  -2.345  0.00  0.00    +0.015 C 
ENDBRANCH  11  14
ENDBRANCH   2   8
BRANCH   1  19
ATOM     18  C   UNL     1      -2.456  -0.328  -0.835  0.00  0.00    +0.137 C 
ATOM     19  N   UNL     1      -3.623  -0.875  -0.644  0.00  0.00    -0.184 NA
BRANCH  18  22
ATOM     20  C   UNL     1      -0.044   1.553   0.047  0.00  0.00    +0.035 C 
ATOM     21  C   UNL     1      -0.009   0.023   0.024  0.00  0.00    +0.124 C 
ATOM     22  C   UNL     1      -1.411  -0.538   0.101  0.00  0.00    +0.012 C 
ATOM     23  C   UNL     1      -1.482  -1.273   1.222  0.00  0.00    +0.025 C 
ATOM     24  N   UNL     1      -0.292  -1.268   1.903  0.00  0.00    -0.267 N 
ATOM     25  N   UNL     1       0.664  -0.493   1.228  0.00  0.00    -0.246 N 
ATOM     26  C   UNL     1      -2.715  -2.011   1.676  0.00  0.00    +0.062 C 
ATOM     27  H   UNL     1      -0.132  -1.737   2.737  0.00  0.00    +0.170 HD
BRANCH  25  28
ATOM     28  C   UNL     1       1.985  -0.259   1.617  0.00  0.00    +0.048 A 
ATOM     29  C   UNL     1       2.809   0.543   0.836  0.00  0.00    +0.025 A 
ATOM     30  C   UNL     1       4.114   0.773   1.224  0.00  0.00    +0.002 A 
ATOM     31  C   UNL     1       4.601   0.207   2.388  0.00  0.00    +0.000 A 
ATOM     32  C   UNL     1       3.784  -0.591   3.167  0.00  0.00    +0.002 A 
ATOM     33  C   UNL     1       2.476  -0.821   2.788  0.00  0.00    +0.025 A 
ENDBRANCH  25  28
ENDBRANCH  18  22
ENDBRANCH   1  19
TORSDOF 5
