REMARK  Name = ZINC35862704
REMARK  9 active torsions:
REMARK  status: ('A' for Active; 'I' for Inactive)
REMARK    1  A    between atoms: C_3  and  C_8
REMARK    2  A    between atoms: C_12  and  O_24
REMARK    3  A    between atoms: C_19  and  C_21
REMARK    4  A    between atoms: O_24  and  C_25
REMARK    5  A    between atoms: C_25  and  C_26
REMARK    6  A    between atoms: C_29  and  C_31
REMARK    7  A    between atoms: N_33  and  C_34
REMARK    8  A    between atoms: C_34  and  C_35
REMARK    9  A    between atoms: C_35  and  N_36
REMARK                            x       y       z     vdW  Elec       q    Type
REMARK                         _______ _______ _______ _____ _____    ______ ____
ROOT
ATOM      1  C   UNL     1       3.675   2.171  -0.033  0.00  0.00    +0.137 C 
ATOM      2  C   UNL     1       4.293   2.122  -1.407  0.00  0.00    -0.016 A 
ATOM      3  C   UNL     1       3.477   2.399  -2.494  0.00  0.00    +0.051 A 
ATOM      4  C   UNL     1       3.989   2.379  -3.780  0.00  0.00    +0.121 A 
ATOM      5  C   UNL     1       5.329   2.082  -3.980  0.00  0.00    +0.046 A 
ATOM      6  C   UNL     1       6.137   1.804  -2.898  0.00  0.00    +0.007 A 
ATOM      7  C   UNL     1       5.622   1.817  -1.607  0.00  0.00    -0.040 A 
ATOM      8  C   UNL     1       6.560   1.476  -0.479  0.00  0.00    +0.054 C 
ATOM      9  C   UNL     1       6.016   1.988   0.854  0.00  0.00    +0.113 C 
ATOM     10  N   UNL     1       4.601   1.593   0.946  0.00  0.00    -0.290 N 
ATOM     11  C   UNL     1       4.173   0.734   1.893  0.00  0.00    +0.219 C 
ATOM     12  O   UNL     1       3.017   0.367   1.902  0.00  0.00    -0.275 OA
ENDROOT
BRANCH   1  15
ATOM     13  C   UNL     1       1.208  -0.658  -0.445  0.00  0.00    +0.003 A 
ATOM     14  C   UNL     1       2.387   0.065  -0.444  0.00  0.00    +0.006 A 
ATOM     15  C   UNL     1       2.389   1.385  -0.033  0.00  0.00    -0.020 A 
ATOM     16  C   UNL     1       1.213   1.983   0.378  0.00  0.00    +0.044 A 
ATOM     17  C   UNL     1       0.032   1.261   0.378  0.00  0.00    +0.124 A 
ATOM     18  C   UNL     1       0.031  -0.061  -0.035  0.00  0.00    +0.038 A 
ATOM     19  F   UNL     1      -1.118   1.844   0.780  0.00  0.00    -0.205 F 
ENDBRANCH   1  15
BRANCH  11  20
ATOM     20  C   UNL     1       5.131   0.230   2.942  0.00  0.00    +0.075 C 
ATOM     21  C   UNL     1       5.521  -1.248   2.890  0.00  0.00    +0.013 C 
ATOM     22  C   UNL     1       4.585  -0.742   3.989  0.00  0.00    +0.013 C 
ENDBRANCH  11  20
BRANCH   4  23
ATOM     23  O   UNL     1       3.183   2.649  -4.841  0.00  0.00    -0.484 OA
BRANCH  23  24
ATOM     24  C   UNL     1       3.783   2.610  -6.137  0.00  0.00    +0.303 C 
BRANCH  24  25
ATOM     25  C   UNL     1       2.745   2.933  -7.181  0.00  0.00    +0.143 A 
ATOM     26  C   UNL     1       2.455   4.168  -7.647  0.00  0.00    +0.049 A 
ATOM     27  C   UNL     1       1.436   4.021  -8.601  0.00  0.00    +0.055 A 
ATOM     28  C   UNL     1       1.153   2.687  -8.670  0.00  0.00    +0.190 A 
ATOM     29  O   UNL     1       1.962   2.043  -7.804  0.00  0.00    -0.452 OA
BRANCH  28  30
ATOM     30  C   UNL     1       0.148   2.063  -9.538  0.00  0.00    +0.279 C 
ATOM     31  O   UNL     1      -0.522   2.751 -10.285  0.00  0.00    -0.267 OA
ATOM     32  N   UNL     1      -0.032   0.728  -9.508  0.00  0.00    -0.311 N 
ATOM     33  H   UNL     1       0.502   0.179  -8.912  0.00  0.00    +0.149 HD
BRANCH  32  34
ATOM     34  C   UNL     1      -1.036   0.104 -10.374  0.00  0.00    +0.086 C 
BRANCH  34  35
ATOM     35  C   UNL     1      -1.038  -1.409 -10.146  0.00  0.00    -0.060 C 
BRANCH  35  36
ATOM     36  N   UNL     1      -2.044  -2.034 -11.015  0.00  0.00    +0.381 N 
ATOM     37  C   UNL     1      -1.625  -1.936 -12.437  0.00  0.00    -0.079 C 
ATOM     38  C   UNL     1      -2.428  -3.071 -13.121  0.00  0.00    -0.020 C 
ATOM     39  C   UNL     1      -2.413  -4.194 -12.059  0.00  0.00    -0.020 C 
ATOM     40  C   UNL     1      -2.144  -3.480 -10.722  0.00  0.00    -0.079 C 
ATOM     41  H   UNL     1      -2.941  -1.589 -10.885  0.00  0.00    -0.082 HD
ENDBRANCH  35  36
ENDBRANCH  34  35
ENDBRANCH  32  34
ENDBRANCH  28  30
ENDBRANCH  24  25
ENDBRANCH  23  24
ENDBRANCH   4  23
TORSDOF 9
