REMARK  Name = ZINC11998593
REMARK  7 active torsions:
REMARK  status: ('A' for Active; 'I' for Inactive)
REMARK    1  A    between atoms: C_4  and  C_7
REMARK    2  A    between atoms: C_7  and  C_8
REMARK    3  A    between atoms: C_8  and  C_9
REMARK    4  A    between atoms: C_9  and  C_10
REMARK    5  A    between atoms: C_10  and  C_17
REMARK    6  A    between atoms: C_22  and  C_23
REMARK    7  A    between atoms: C_22  and  N_58
REMARK                            x       y       z     vdW  Elec       q    Type
REMARK                         _______ _______ _______ _____ _____    ______ ____
ROOT
ATOM      1  C   UNL     1      -0.018   1.469   0.010  0.00  0.00    +0.115 C 
ATOM      2  C   UNL     1       1.450   1.845  -0.002  0.00  0.00    +0.244 C 
ATOM      3  O   UNL     1       1.920   2.963  -0.001  0.00  0.00    -0.273 OA
ATOM      4  N   UNL     1       2.125   0.679  -0.015  0.00  0.00    -0.238 N 
ATOM      5  C   UNL     1       1.296  -0.371  -0.012  0.00  0.00    +0.307 C 
ATOM      6  O   UNL     1       1.670  -1.528  -0.022  0.00  0.00    -0.252 OA
ATOM      7  N   UNL     1       0.002  -0.004   0.002  0.00  0.00    -0.285 N 
ATOM      8  H   UNL     1       3.093   0.609  -0.024  0.00  0.00    +0.159 HD
ATOM      9  H   UNL     1      -0.768  -0.594   0.006  0.00  0.00    +0.151 HD
ENDROOT
BRANCH   1  10
ATOM     10  C   UNL     1      -0.697   1.991   1.278  0.00  0.00    +0.018 C 
ATOM     11  C   UNL     1      -0.798   3.518   1.213  0.00  0.00    -0.013 C 
ATOM     12  C   UNL     1      -1.421   4.039   2.510  0.00  0.00    -0.078 C 
ATOM     13  C   UNL     1      -0.521   2.169   3.762  0.00  0.00    -0.078 C 
ATOM     14  C   UNL     1       0.130   1.592   2.503  0.00  0.00    -0.013 C 
ATOM     15  N   UNL     1      -0.564   3.642   3.648  0.00  0.00    +0.383 N 
ATOM     16  H   UNL     1       0.388   3.992   3.486  0.00  0.00    -0.081 HD
BRANCH  15  17
ATOM     17  C   UNL     1      -1.085   4.230   4.900  0.00  0.00    -0.037 C 
BRANCH  17  18
ATOM     18  C   UNL     1      -0.914   5.726   4.841  0.00  0.00    +0.006 A 
ATOM     19  C   UNL     1       0.255   6.309   5.301  0.00  0.00    +0.127 A 
ATOM     20  C   UNL     1       0.413   7.683   5.240  0.00  0.00    +0.039 A 
ATOM     21  C   UNL     1      -0.600   8.474   4.732  0.00  0.00    +0.006 A 
ATOM     22  C   UNL     1      -1.769   7.894   4.278  0.00  0.00    +0.039 A 
ATOM     23  C   UNL     1      -1.927   6.520   4.332  0.00  0.00    +0.127 A 
ATOM     24  F   UNL     1      -3.070   5.953   3.887  0.00  0.00    -0.205 F 
ATOM     25  F   UNL     1       1.242   5.536   5.803  0.00  0.00    -0.205 F 
ENDBRANCH  17  18
ENDBRANCH  15  17
ENDBRANCH   1  10
BRANCH   1  26
ATOM     26  C   UNL     1      -0.721   2.005  -1.239  0.00  0.00    +0.036 C 
BRANCH  26  27
ATOM     27  C   UNL     1      -0.065   1.412  -2.487  0.00  0.00    +0.007 C 
BRANCH  27  28
ATOM     28  C   UNL     1      -0.768   1.947  -3.736  0.00  0.00    +0.035 C 
BRANCH  28  32
ATOM     29  C   UNL     1       1.063   0.293  -7.223  0.00  0.00    +0.000 A 
ATOM     30  C   UNL     1       0.003  -0.361  -6.622  0.00  0.00    +0.000 A 
ATOM     31  C   UNL     1      -0.590   0.175  -5.495  0.00  0.00    +0.003 A 
ATOM     32  C   UNL     1      -0.122   1.363  -4.966  0.00  0.00    -0.047 A 
ATOM     33  C   UNL     1       0.935   2.019  -5.569  0.00  0.00    +0.003 A 
ATOM     34  C   UNL     1       1.531   1.481  -6.694  0.00  0.00    +0.000 A 
ENDBRANCH  28  32
ENDBRANCH  27  28
ENDBRANCH  26  27
ENDBRANCH   1  26
TORSDOF 7
