REMARK  Name = ZINC00989089
REMARK  14 active torsions:
REMARK  status: ('A' for Active; 'I' for Inactive)
REMARK    1  A    between atoms: C_1  and  C_2
REMARK    2  A    between atoms: C_2  and  O_3
REMARK    3  A    between atoms: O_3  and  C_4
REMARK    4  A    between atoms: C_4  and  C_6
REMARK    5  A    between atoms: C_7  and  N_38
REMARK    6  A    between atoms: C_12  and  C_13
REMARK    7  A    between atoms: C_18  and  O_19
REMARK    8  A    between atoms: O_19  and  C_20
REMARK    9  A    between atoms: C_23  and  C_34
REMARK   10  A    between atoms: C_24  and  C_26
REMARK   11  A    between atoms: C_31  and  O_32
REMARK   12  A    between atoms: O_32  and  C_33
REMARK   13  A    between atoms: C_34  and  O_36
REMARK   14  A    between atoms: O_36  and  C_37
REMARK                            x       y       z     vdW  Elec       q    Type
REMARK                         _______ _______ _______ _____ _____    ______ ____
ROOT
ATOM      1  C   UNL     1      -1.579  -2.525   0.769  0.00  0.00    +0.087 C 
ATOM      2  C   UNL     1      -2.743  -3.179   0.546  0.00  0.00    +0.115 C 
ATOM      3  N   UNL     1      -2.824  -4.535   0.215  0.00  0.00    -0.257 N 
ATOM      4  C   UNL     1      -3.990  -5.174  -0.005  0.00  0.00    +0.271 A 
ATOM      5  O   UNL     1      -5.050  -4.581   0.079  0.00  0.00    -0.266 OA
ATOM      6  C   UNL     1      -3.953  -6.599  -0.347  0.00  0.00    +0.080 A 
ATOM      7  C   UNL     1      -4.978  -7.450  -0.610  0.00  0.00    +0.032 C 
ATOM      8  S   UNL     1      -2.195  -6.914  -0.324  0.00  0.00    -0.065 S 
ATOM      9  C   UNL     1      -1.661  -5.269   0.103  0.00  0.00    +0.100 A 
ATOM     10  C   UNL     1      -0.405  -4.758   0.297  0.00  0.00    +0.079 C 
ATOM     11  C   UNL     1      -0.276  -3.289   0.651  0.00  0.00    +0.102 C 
ENDROOT
BRANCH   7  12
ATOM     12  C   UNL     1      -4.719  -8.886  -0.764  0.00  0.00    +0.018 A 
ATOM     13  C   UNL     1      -3.529  -9.444  -0.278  0.00  0.00    +0.011 A 
ATOM     14  C   UNL     1      -3.295 -10.793  -0.422  0.00  0.00    +0.001 A 
ATOM     15  C   UNL     1      -4.227 -11.602  -1.054  0.00  0.00    +0.004 A 
ATOM     16  C   UNL     1      -5.403 -11.065  -1.542  0.00  0.00    +0.046 A 
ATOM     17  C   UNL     1      -5.659  -9.710  -1.403  0.00  0.00    +0.127 A 
BRANCH  17  18
ATOM     18  O   UNL     1      -6.814  -9.182  -1.884  0.00  0.00    -0.495 OA
ATOM     19  C   UNL     1      -7.722 -10.082  -2.522  0.00  0.00    +0.277 C 
ENDBRANCH  17  18
ENDBRANCH   7  12
BRANCH  11  20
ATOM     20  C   UNL     1       0.571  -2.619  -0.399  0.00  0.00    +0.007 A 
ATOM     21  C   UNL     1       0.108  -2.512  -1.697  0.00  0.00    +0.008 A 
ATOM     22  C   UNL     1       0.884  -1.895  -2.660  0.00  0.00    +0.001 A 
ATOM     23  C   UNL     1       2.126  -1.385  -2.329  0.00  0.00    +0.004 A 
ATOM     24  C   UNL     1       2.594  -1.489  -1.034  0.00  0.00    +0.046 A 
ATOM     25  C   UNL     1       1.814  -2.102  -0.063  0.00  0.00    +0.124 A 
BRANCH  25  26
ATOM     26  O   UNL     1       2.270  -2.201   1.213  0.00  0.00    -0.495 OA
ATOM     27  C   UNL     1       3.558  -1.648   1.487  0.00  0.00    +0.277 C 
ENDBRANCH  25  26
ENDBRANCH  11  20
BRANCH   2  28
ATOM     28  N   UNL     1      -3.911  -2.471   0.650  0.00  0.00    -0.344 N 
ATOM     29  H   UNL     1      -3.982  -1.591   0.248  0.00  0.00    +0.144 HD
ATOM     30  H   UNL     1      -4.667  -2.849   1.127  0.00  0.00    +0.144 HD
ENDBRANCH   2  28
BRANCH   1  31
ATOM     31  C   UNL     1      -1.579  -1.161   1.097  0.00  0.00    +0.339 C 
ATOM     32  O   UNL     1      -2.628  -0.544   1.135  0.00  0.00    -0.245 OA
BRANCH  31  33
ATOM     33  O   UNL     1      -0.415  -0.533   1.372  0.00  0.00    -0.462 OA
BRANCH  33  35
ATOM     34  C   UNL     1       0.917   1.391   1.976  0.00  0.00    +0.048 C 
ATOM     35  C   UNL     1      -0.489   0.856   1.698  0.00  0.00    +0.229 C 
ENDBRANCH  33  35
ENDBRANCH  31  33
ENDBRANCH   1  31
BRANCH  10  36
ATOM     36  C   UNL     1       0.731  -5.569   0.165  0.00  0.00    +0.338 C 
ATOM     37  O   UNL     1       0.608  -6.746  -0.126  0.00  0.00    -0.245 OA
BRANCH  36  38
ATOM     38  O   UNL     1       1.961  -5.045   0.360  0.00  0.00    -0.465 OA
ATOM     39  C   UNL     1       3.074  -5.930   0.209  0.00  0.00    +0.280 C 
ENDBRANCH  36  38
ENDBRANCH  10  36
TORSDOF 10
