REMARK  Name = ZINC63373798
REMARK  6 active torsions:
REMARK  status: ('A' for Active; 'I' for Inactive)
REMARK    1  A    between atoms: C_1  and  C_2
REMARK    2  A    between atoms: C_2  and  N_3
REMARK    3  A    between atoms: C_4  and  O_30
REMARK    4  A    between atoms: C_6  and  C_15
REMARK    5  A    between atoms: N_10  and  C_13
REMARK    6  A    between atoms: C_13  and  C_14
REMARK                            x       y       z     vdW  Elec       q    Type
REMARK                         _______ _______ _______ _____ _____    ______ ____
ROOT
ATOM      1  C   UNL     1       0.847   1.201  -3.734  0.00  0.00    +0.096 C 
ATOM      2  C   UNL     1       1.591   1.599  -5.011  0.00  0.00    +0.124 C 
ATOM      3  C   UNL     1       1.785   3.109  -4.937  0.00  0.00    -0.036 C 
ATOM      4  C   UNL     1       1.284   3.607  -6.059  0.00  0.00    -0.001 A 
ATOM      5  C   UNL     1       1.256   4.976  -6.599  0.00  0.00    +0.010 A 
ATOM      6  C   UNL     1       0.634   5.135  -7.798  0.00  0.00    +0.001 A 
ATOM      7  C   UNL     1       0.044   4.083  -8.504  0.00  0.00    +0.002 A 
ATOM      8  C   UNL     1       0.029   2.792  -8.086  0.00  0.00    +0.026 A 
ATOM      9  C   UNL     1       0.657   2.498  -6.841  0.00  0.00    +0.043 A 
ATOM     10  N   UNL     1       0.809   1.344  -6.220  0.00  0.00    -0.376 N 
ATOM     11  C   UNL     1       2.360   3.775  -3.711  0.00  0.00    +0.048 C 
ATOM     12  C   UNL     1       1.601   3.187  -2.507  0.00  0.00    +0.085 C 
ATOM     13  N   UNL     1       1.595   1.723  -2.579  0.00  0.00    -0.310 NA
ATOM     14  H   UNL     1       1.259   1.319  -1.718  0.00  0.00    +0.122 HD
ATOM     15  H   UNL     1       0.467   0.482  -6.503  0.00  0.00    +0.160 HD
ENDROOT
BRANCH   1  18
ATOM     16  N   UNL     1       0.688  -0.476  -1.203  0.00  0.00    -0.259 N 
ATOM     17  C   UNL     1      -0.083  -0.715  -2.425  0.00  0.00    +0.219 C 
ATOM     18  C   UNL     1       0.757  -0.324  -3.644  0.00  0.00    +0.142 C 
ATOM     19  C   UNL     1       2.141  -0.903  -3.498  0.00  0.00    +0.232 C 
ATOM     20  O   UNL     1       2.749  -1.275  -4.479  0.00  0.00    -0.275 OA
ATOM     21  N   UNL     1       2.702  -1.008  -2.280  0.00  0.00    -0.226 N 
ATOM     22  C   UNL     1       2.015  -0.679  -1.173  0.00  0.00    +0.313 C 
ATOM     23  O   UNL     1       2.608  -0.568  -0.119  0.00  0.00    -0.252 OA
BRANCH  16  25
ATOM     24  C   UNL     1      -0.019   1.526   0.010  0.00  0.00    +0.024 C 
ATOM     25  C   UNL     1       0.002  -0.004   0.002  0.00  0.00    +0.108 C 
ENDBRANCH  16  25
BRANCH  21  26
ATOM     26  C   UNL     1       4.083  -1.481  -2.159  0.00  0.00    +0.114 C 
ATOM     27  C   UNL     1       5.038  -0.287  -2.219  0.00  0.00    +0.025 C 
ENDBRANCH  21  26
BRANCH  17  28
ATOM     28  O   UNL     1      -1.276   0.071  -2.397  0.00  0.00    -0.373 OA
ATOM     29  H   UNL     1      -1.858  -0.125  -1.650  0.00  0.00    +0.212 HD
ENDBRANCH  17  28
ENDBRANCH   1  18
TORSDOF 4
