REMARK  Name = ZINC20728951
REMARK  6 active torsions:
REMARK  status: ('A' for Active; 'I' for Inactive)
REMARK    1  A    between atoms: C_4  and  N_7
REMARK    2  A    between atoms: N_10  and  C_13
REMARK    3  A    between atoms: C_13  and  C_14
REMARK    4  A    between atoms: C_14  and  N_15
REMARK    5  A    between atoms: C_16  and  C_18
REMARK    6  A    between atoms: C_21  and  C_24
REMARK                            x       y       z     vdW  Elec       q    Type
REMARK                         _______ _______ _______ _____ _____    ______ ____
ROOT
ATOM      1  C   UNL     1       8.761  -7.070  -3.714  0.00  0.00    +0.037 A 
ATOM      2  C   UNL     1       9.511  -6.105  -4.393  0.00  0.00    +0.013 A 
ATOM      3  C   UNL     1      10.552  -6.485  -5.191  0.00  0.00    +0.009 A 
ATOM      4  C   UNL     1      10.867  -7.843  -5.329  0.00  0.00    -0.024 A 
ATOM      5  C   UNL     1      10.115  -8.809  -4.648  0.00  0.00    +0.009 A 
ATOM      6  C   UNL     1       9.079  -8.426  -3.847  0.00  0.00    +0.013 A 
ENDROOT
BRANCH   4   7
ATOM      7  C   UNL     1      11.986  -8.253  -6.187  0.00  0.00    +0.028 C 
ATOM      8  C   UNL     1      12.785  -9.284  -5.814  0.00  0.00    +0.075 C 
ATOM      9  C   UNL     1      12.684  -9.909  -4.473  0.00  0.00    +0.255 C 
ATOM     10  O   UNL     1      12.279  -9.255  -3.531  0.00  0.00    -0.269 OA
ATOM     11  N   UNL     1      13.034 -11.185  -4.292  0.00  0.00    -0.280 N 
ATOM     12  C   UNL     1      13.423 -12.085  -5.275  0.00  0.00    +0.048 A 
ATOM     13  C   UNL     1      13.340 -13.450  -4.997  0.00  0.00    +0.024 A 
ATOM     14  C   UNL     1      13.714 -14.380  -5.944  0.00  0.00    +0.002 A 
ATOM     15  C   UNL     1      14.176 -13.974  -7.183  0.00  0.00    +0.001 A 
ATOM     16  C   UNL     1      14.265 -12.626  -7.475  0.00  0.00    +0.017 A 
ATOM     17  C   UNL     1      13.892 -11.687  -6.528  0.00  0.00    +0.034 A 
ATOM     18  S   UNL     1      14.007  -9.967  -6.903  0.00  0.00    -0.082 S 
ATOM     19  H   UNL     1      13.014 -11.517  -3.381  0.00  0.00    +0.155 HD
ENDBRANCH   4   7
BRANCH   1  21
ATOM     20  N   UNL     1       7.330  -5.352  -2.723  0.00  0.00    -0.310 N 
ATOM     21  C   UNL     1       7.636  -6.658  -2.851  0.00  0.00    +0.244 C 
ATOM     22  O   UNL     1       6.987  -7.496  -2.257  0.00  0.00    -0.270 OA
ATOM     23  H   UNL     1       7.848  -4.683  -3.197  0.00  0.00    +0.149 HD
BRANCH  20  24
ATOM     24  C   UNL     1       6.213  -4.942  -1.867  0.00  0.00    +0.120 C 
BRANCH  24  25
ATOM     25  C   UNL     1       6.080  -3.418  -1.897  0.00  0.00    +0.103 C 
BRANCH  25  29
ATOM     26  N   UNL     1       2.600  -1.767  -0.229  0.00  0.00    -0.327 N 
ATOM     27  C   UNL     1       3.884  -1.182   0.188  0.00  0.00    +0.120 C 
ATOM     28  C   UNL     1       4.947  -1.550  -0.852  0.00  0.00    +0.103 C 
ATOM     29  N   UNL     1       4.961  -3.008  -1.038  0.00  0.00    -0.298 NA
ATOM     30  C   UNL     1       3.681  -3.488  -1.576  0.00  0.00    +0.103 C 
ATOM     31  C   UNL     1       2.564  -3.200  -0.560  0.00  0.00    +0.120 C 
BRANCH  26  35
ATOM     32  C   UNL     1      -0.842   0.564  -0.447  0.00  0.00    +0.000 A 
ATOM     33  C   UNL     1      -0.871  -0.750  -0.876  0.00  0.00    +0.002 A 
ATOM     34  C   UNL     1       0.269  -1.526  -0.805  0.00  0.00    +0.023 A 
ATOM     35  C   UNL     1       1.446  -0.985  -0.302  0.00  0.00    +0.030 A 
ATOM     36  C   UNL     1       1.471   0.335   0.127  0.00  0.00    +0.023 A 
ATOM     37  C   UNL     1       0.327   1.106   0.054  0.00  0.00    +0.002 A 
ENDBRANCH  26  35
ENDBRANCH  25  29
ENDBRANCH  24  25
ENDBRANCH  20  24
ENDBRANCH   1  21
TORSDOF 6
