REMARK  Name = ZINC39894567
REMARK  5 active torsions:
REMARK  status: ('A' for Active; 'I' for Inactive)
REMARK    1  A    between atoms: C_3  and  N_28
REMARK    2  A    between atoms: C_6  and  N_7
REMARK    3  A    between atoms: C_8  and  C_10
REMARK    4  A    between atoms: C_16  and  C_18
REMARK    5  A    between atoms: N_20  and  C_21
REMARK                            x       y       z     vdW  Elec       q    Type
REMARK                         _______ _______ _______ _____ _____    ______ ____
ROOT
ATOM      1  C   UNL     1      -2.506  -2.811  -0.247  0.00  0.00    +0.091 C 
ATOM      2  C   UNL     1      -3.286  -2.410  -1.502  0.00  0.00    +0.040 C 
ATOM      3  C   UNL     1      -4.420  -3.365  -1.734  0.00  0.00    -0.030 C 
ATOM      4  C   UNL     1      -4.506  -4.534  -1.186  0.00  0.00    -0.030 C 
ATOM      5  C   UNL     1      -3.491  -5.094  -0.233  0.00  0.00    +0.040 C 
ATOM      6  C   UNL     1      -2.182  -4.308  -0.331  0.00  0.00    +0.091 C 
ENDROOT
BRANCH   1   8
ATOM      7  N   UNL     1      -1.270  -0.674  -0.099  0.00  0.00    -0.285 N 
ATOM      8  C   UNL     1      -1.227  -2.019  -0.171  0.00  0.00    +0.221 C 
ATOM      9  O   UNL     1      -0.158  -2.592  -0.174  0.00  0.00    -0.275 OA
ATOM     10  H   UNL     1      -2.124  -0.219  -0.031  0.00  0.00    +0.155 HD
BRANCH   7  16
ATOM     11  C   UNL     1      -0.046   1.303  -0.752  0.00  0.00    +0.025 A 
ATOM     12  C   UNL     1       1.127   2.031  -0.772  0.00  0.00    +0.034 A 
ATOM     13  C   UNL     1       2.264   1.531  -0.165  0.00  0.00    +0.126 A 
ATOM     14  C   UNL     1       2.231   0.300   0.464  0.00  0.00    +0.034 A 
ATOM     15  C   UNL     1       1.061  -0.434   0.487  0.00  0.00    +0.025 A 
ATOM     16  C   UNL     1      -0.083   0.066  -0.121  0.00  0.00    +0.034 A 
BRANCH  13  17
ATOM     17  N   UNL     1       3.520   2.314  -0.188  0.00  0.00    +0.056 N 
ATOM     18  O   UNL     1       3.550   3.391  -0.738  0.00  0.00    -0.126 OA
ATOM     19  O   UNL     1       4.514   1.878   0.343  0.00  0.00    -0.126 OA
ENDBRANCH  13  17
ENDBRANCH   7  16
ENDBRANCH   1   8
BRANCH   6  20
ATOM     20  C   UNL     1      -1.514  -4.609  -1.648  0.00  0.00    +0.221 C 
ATOM     21  O   UNL     1      -2.186  -4.800  -2.639  0.00  0.00    -0.275 OA
ATOM     22  N   UNL     1      -0.169  -4.666  -1.724  0.00  0.00    -0.285 N 
ATOM     23  H   UNL     1       0.370  -4.457  -0.945  0.00  0.00    +0.155 HD
BRANCH  22  24
ATOM     24  C   UNL     1       0.449  -5.027  -2.926  0.00  0.00    +0.033 A 
ATOM     25  C   UNL     1       1.618  -5.777  -2.910  0.00  0.00    +0.024 A 
ATOM     26  C   UNL     1       2.226  -6.132  -4.098  0.00  0.00    +0.017 A 
ATOM     27  C   UNL     1       1.672  -5.741  -5.304  0.00  0.00    +0.018 A 
ATOM     28  C   UNL     1       0.508  -4.993  -5.323  0.00  0.00    +0.017 A 
ATOM     29  C   UNL     1      -0.107  -4.640  -4.138  0.00  0.00    +0.024 A 
ATOM     30 BR   UNL     1       2.507  -6.228  -6.928  0.00  0.00    -0.050 Br
ENDBRANCH  22  24
ENDBRANCH   6  20
TORSDOF 5
