REMARK  Name = ZINC11789692
REMARK  8 active torsions:
REMARK  status: ('A' for Active; 'I' for Inactive)
REMARK    1  A    between atoms: C_1  and  C_2
REMARK    2  A    between atoms: C_2  and  C_10
REMARK    3  A    between atoms: C_3  and  C_4
REMARK    4  A    between atoms: C_10  and  N_59
REMARK    5  A    between atoms: C_12  and  S_23
REMARK    6  A    between atoms: C_15  and  C_17
REMARK    7  A    between atoms: N_19  and  C_20
REMARK    8  A    between atoms: S_23  and  C_24
REMARK                            x       y       z     vdW  Elec       q    Type
REMARK                         _______ _______ _______ _____ _____    ______ ____
ROOT
ATOM      1  C   UNL     1      -0.309   1.915   1.256  0.00  0.00    -0.063 C 
ATOM      2  C   UNL     1       0.646   1.642   0.075  0.00  0.00    +0.037 C 
ATOM      3  C   UNL     1      -0.117   2.116  -1.179  0.00  0.00    +0.006 C 
ATOM      4  C   UNL     1      -1.473   2.636  -0.647  0.00  0.00    +0.021 C 
ATOM      5  N   UNL     1      -1.634   1.938   0.626  0.00  0.00    +0.390 N 
ATOM      6  H   UNL     1      -1.962   0.979   0.462  0.00  0.00    -0.080 HD
ENDROOT
BRANCH   4   7
ATOM      7  C   UNL     1      -2.583   2.285  -1.605  0.00  0.00    +0.200 C 
ATOM      8  O   UNL     1      -3.460   1.521  -1.262  0.00  0.00    -0.278 OA
ATOM      9  N   UNL     1      -2.599   2.819  -2.842  0.00  0.00    -0.314 N 
ATOM     10  H   UNL     1      -1.897   3.430  -3.116  0.00  0.00    +0.149 HD
BRANCH   9  11
ATOM     11  C   UNL     1      -3.678   2.478  -3.773  0.00  0.00    +0.073 C 
ATOM     12  C   UNL     1      -3.291   2.174  -5.221  0.00  0.00    +0.024 C 
ATOM     13  C   UNL     1      -4.001   3.485  -4.879  0.00  0.00    +0.024 C 
ENDBRANCH   9  11
ENDBRANCH   4   7
BRANCH   5  14
ATOM     14  C   UNL     1      -2.617   2.650   1.502  0.00  0.00    -0.047 C 
BRANCH  14  16
ATOM     15  C   UNL     1      -1.253   4.671   2.435  0.00  0.00    +0.037 C 
ATOM     16  C   UNL     1      -2.292   4.122   1.491  0.00  0.00    -0.089 C 
ATOM     17  C   UNL     1      -2.919   4.933   0.651  0.00  0.00    +0.005 C 
BRANCH  17  18
ATOM     18  C   UNL     1      -2.491   6.342   0.526  0.00  0.00    -0.025 A 
ATOM     19  C   UNL     1      -3.434   7.342   0.283  0.00  0.00    +0.008 A 
ATOM     20  C   UNL     1      -3.028   8.656   0.172  0.00  0.00    +0.001 A 
ATOM     21  C   UNL     1      -1.689   8.982   0.292  0.00  0.00    +0.000 A 
ATOM     22  C   UNL     1      -0.749   7.995   0.528  0.00  0.00    +0.001 A 
ATOM     23  C   UNL     1      -1.142   6.678   0.646  0.00  0.00    +0.008 A 
ENDBRANCH  17  18
ENDBRANCH  14  16
ENDBRANCH   5  14
BRANCH   2  24
ATOM     24  S   UNL     1       2.178   2.586   0.273  0.00  0.00    -0.086 S 
BRANCH  24  25
ATOM     25  C   UNL     1       2.861   1.770   1.677  0.00  0.00    +0.167 A 
ATOM     26  N   UNL     1       4.050   2.090   2.270  0.00  0.00    -0.333 N 
ATOM     27  H   UNL     1       4.676   2.817   1.989  0.00  0.00    +0.168 HD
ATOM     28  C   UNL     1       4.225   1.219   3.333  0.00  0.00    +0.067 A 
ATOM     29  C   UNL     1       5.218   1.056   4.288  0.00  0.00    +0.028 A 
ATOM     30  C   UNL     1       5.096   0.068   5.243  0.00  0.00    +0.002 A 
ATOM     31  C   UNL     1       3.986  -0.764   5.256  0.00  0.00    +0.002 A 
ATOM     32  C   UNL     1       2.990  -0.616   4.316  0.00  0.00    +0.030 A 
ATOM     33  C   UNL     1       3.099   0.380   3.342  0.00  0.00    +0.090 A 
ATOM     34  N   UNL     1       2.302   0.769   2.312  0.00  0.00    -0.222 NA
ENDBRANCH  24  25
ENDBRANCH   2  24
TORSDOF 7
