REMARK  Name = ZINC12605032
REMARK  9 active torsions:
REMARK  status: ('A' for Active; 'I' for Inactive)
REMARK    1  A    between atoms: C_1  and  C_2
REMARK    2  A    between atoms: C_2  and  C_3
REMARK    3  A    between atoms: C_2  and  N_4
REMARK    4  A    between atoms: C_11  and  C_14
REMARK    5  A    between atoms: N_16  and  C_17
REMARK    6  A    between atoms: C_17  and  C_19
REMARK    7  A    between atoms: C_17  and  C_30
REMARK    8  A    between atoms: C_19  and  C_20
REMARK    9  A    between atoms: C_33  and  C_35
REMARK                            x       y       z     vdW  Elec       q    Type
REMARK                         _______ _______ _______ _____ _____    ______ ____
ROOT
ATOM      1  N   UNL     1      -2.632   9.016   0.018  0.00  0.00    -0.297 N 
ATOM      2  C   UNL     1      -2.101   7.818  -0.295  0.00  0.00    +0.303 C 
ATOM      3  O   UNL     1      -1.921   7.518  -1.459  0.00  0.00    -0.253 OA
ATOM      4  N   UNL     1      -1.768   6.952   0.683  0.00  0.00    -0.282 N 
ATOM      5  C   UNL     1      -2.078   7.255   2.087  0.00  0.00    +0.128 C 
ATOM      6  C   UNL     1      -0.782   7.175   2.904  0.00  0.00    +0.127 C 
ATOM      7  N   UNL     1      -0.103   5.911   2.585  0.00  0.00    -0.287 N 
ATOM      8  C   UNL     1       0.207   5.609   1.181  0.00  0.00    +0.179 C 
ATOM      9  C   UNL     1      -1.089   5.688   0.364  0.00  0.00    +0.141 C 
ATOM     10  C   UNL     1       0.228   5.045   3.563  0.00  0.00    +0.219 C 
ATOM     11  O   UNL     1       0.695   3.962   3.281  0.00  0.00    -0.275 OA
ATOM     12  H   UNL     1      -2.709   9.285   0.947  0.00  0.00    +0.150 HD
ENDROOT
BRANCH  10  13
ATOM     13  C   UNL     1       0.020   5.423   5.007  0.00  0.00    +0.072 C 
ATOM     14  C   UNL     1       0.956   6.578   5.373  0.00  0.00    -0.007 C 
ATOM     15  C   UNL     1       0.785   6.916   6.856  0.00  0.00    -0.082 C 
ATOM     16  C   UNL     1       0.177   4.627   7.368  0.00  0.00    -0.082 C 
ATOM     17  C   UNL     1       0.331   4.220   5.901  0.00  0.00    -0.007 C 
ATOM     18  N   UNL     1       1.103   5.732   7.677  0.00  0.00    +0.379 N 
ATOM     19  H   UNL     1       1.018   5.977   8.671  0.00  0.00    -0.086 HD
ATOM     20  H   UNL     1       2.065   5.433   7.480  0.00  0.00    -0.086 HD
ENDBRANCH  10  13
BRANCH   8  21
ATOM     21  C   UNL     1       0.785   4.221   1.078  0.00  0.00    +0.236 C 
ATOM     22  O   UNL     1       0.077   3.254   1.265  0.00  0.00    -0.274 OA
ATOM     23  N   UNL     1       2.088   4.054   0.779  0.00  0.00    -0.302 N 
ATOM     24  H   UNL     1       2.654   4.827   0.630  0.00  0.00    +0.150 HD
BRANCH  23  25
ATOM     25  C   UNL     1       2.650   2.704   0.679  0.00  0.00    +0.163 C 
BRANCH  25  26
ATOM     26  C   UNL     1       2.411   2.162  -0.706  0.00  0.00    +0.231 C 
ATOM     27  O   UNL     1       1.834   2.838  -1.531  0.00  0.00    -0.274 OA
ATOM     28  N   UNL     1       2.845   0.927  -1.030  0.00  0.00    -0.328 N 
ATOM     29  H   UNL     1       3.310   0.388  -0.372  0.00  0.00    +0.145 HD
ATOM     30  H   UNL     1       2.691   0.578  -1.922  0.00  0.00    +0.145 HD
ENDBRANCH  25  26
BRANCH  25  31
ATOM     31  C   UNL     1       4.154   2.756   0.955  0.00  0.00    +0.069 C 
BRANCH  31  32
ATOM     32  C   UNL     1       4.389   3.182   2.381  0.00  0.00    -0.020 A 
ATOM     33  C   UNL     1       4.634   4.430   2.812  0.00  0.00    +0.087 A 
ATOM     34  N   UNL     1       4.792   4.431   4.171  0.00  0.00    -0.360 N 
ATOM     35  H   UNL     1       4.974   5.217   4.710  0.00  0.00    +0.165 HD
ATOM     36  C   UNL     1       4.659   3.150   4.659  0.00  0.00    +0.047 A 
ATOM     37  C   UNL     1       4.401   2.312   3.559  0.00  0.00    +0.003 A 
ATOM     38  C   UNL     1       4.220   0.942   3.755  0.00  0.00    +0.010 A 
ATOM     39  C   UNL     1       4.295   0.421   5.017  0.00  0.00    +0.001 A 
ATOM     40  C   UNL     1       4.549   1.244   6.105  0.00  0.00    +0.002 A 
ATOM     41  C   UNL     1       4.731   2.599   5.934  0.00  0.00    +0.026 A 
ENDBRANCH  31  32
ENDBRANCH  25  31
ENDBRANCH  23  25
ENDBRANCH   8  21
BRANCH   1  43
ATOM     42  C   UNL     1      -4.166  10.852  -0.489  0.00  0.00    +0.027 C 
ATOM     43  C   UNL     1      -3.094   9.912  -1.045  0.00  0.00    +0.068 C 
ATOM     44  C   UNL     1      -1.915  10.736  -1.566  0.00  0.00    +0.027 C 
ENDBRANCH   1  43
TORSDOF 7
