REMARK  Name = ZINC22016733
REMARK  2 active torsions:
REMARK  status: ('A' for Active; 'I' for Inactive)
REMARK    1  A    between atoms: C_1  and  C_2
REMARK    2  A    between atoms: N_14  and  C_17
REMARK                            x       y       z     vdW  Elec       q    Type
REMARK                         _______ _______ _______ _____ _____    ______ ____
ROOT
ATOM      1  C   UNL     1       0.691   1.418  -0.027  0.00  0.00    +0.046 C 
ATOM      2  C   UNL     1       0.317  -0.042  -0.015  0.00  0.00    -0.017 C 
ATOM      3  C   UNL     1       0.104  -0.861  -1.130  0.00  0.00    +0.003 A 
ATOM      4  C   UNL     1       0.146  -0.682  -2.521  0.00  0.00    +0.010 A 
ATOM      5  C   UNL     1      -0.125  -1.734  -3.341  0.00  0.00    +0.001 A 
ATOM      6  C   UNL     1      -0.445  -2.990  -2.831  0.00  0.00    +0.002 A 
ATOM      7  C   UNL     1      -0.503  -3.226  -1.492  0.00  0.00    +0.026 A 
ATOM      8  C   UNL     1      -0.233  -2.183  -0.590  0.00  0.00    +0.047 A 
ATOM      9  N   UNL     1      -0.203  -2.083   0.738  0.00  0.00    -0.354 N 
ATOM     10  C   UNL     1       0.121  -0.840   1.107  0.00  0.00    +0.050 C 
ATOM     11  C   UNL     1       0.250  -0.380   2.504  0.00  0.00    +0.001 C 
ATOM     12  C   UNL     1      -0.143  -1.206   3.571  0.00  0.00    +0.025 C 
ATOM     13  C   UNL     1      -0.011  -0.753   4.844  0.00  0.00    +0.075 C 
ATOM     14  N   UNL     1       0.489   0.471   5.089  0.00  0.00    -0.316 N 
ATOM     15  C   UNL     1       0.874   1.287   4.091  0.00  0.00    +0.075 C 
ATOM     16  C   UNL     1       0.773   0.892   2.795  0.00  0.00    +0.025 C 
ATOM     17  C   UNL     1       0.617   0.928   6.476  0.00  0.00    +0.134 C 
ATOM     18  H   UNL     1      -0.388  -2.811   1.352  0.00  0.00    +0.166 HD
ENDROOT
TORSDOF 0
