REMARK  Name = ZINC09381723
REMARK  7 active torsions:
REMARK  status: ('A' for Active; 'I' for Inactive)
REMARK    1  A    between atoms: C_1  and  C_2
REMARK    2  A    between atoms: N_11  and  N_12
REMARK    3  A    between atoms: C_13  and  C_15
REMARK    4  A    between atoms: C_18  and  S_21
REMARK    5  A    between atoms: S_21  and  N_24
REMARK    6  A    between atoms: C_26  and  C_33
REMARK    7  A    between atoms: C_29  and  C_32
REMARK                            x       y       z     vdW  Elec       q    Type
REMARK                         _______ _______ _______ _____ _____    ______ ____
ROOT
ATOM      1  C   UNL     1      -3.464  -6.199   0.001  0.00  0.00    +0.038 A 
ATOM      2  C   UNL     1      -4.494  -5.257   0.022  0.00  0.00    +0.015 A 
ATOM      3  C   UNL     1      -5.809  -5.676   0.027  0.00  0.00    +0.029 A 
ATOM      4  C   UNL     1      -6.107  -7.027   0.022  0.00  0.00    +0.106 A 
ATOM      5  C   UNL     1      -5.090  -7.966   0.007  0.00  0.00    +0.029 A 
ATOM      6  C   UNL     1      -3.772  -7.560  -0.004  0.00  0.00    +0.015 A 
ENDROOT
BRANCH   1   8
ATOM      7  N   UNL     1      -1.760  -4.441  -0.005  0.00  0.00    -0.231 N 
ATOM      8  C   UNL     1      -2.054  -5.756  -0.010  0.00  0.00    +0.260 C 
ATOM      9  O   UNL     1      -1.159  -6.579  -0.023  0.00  0.00    -0.269 OA
ATOM     10  H   UNL     1      -2.474  -3.785   0.005  0.00  0.00    +0.173 HD
BRANCH   7  21
ATOM     11  C   UNL     1       3.727  -0.722  -0.036  0.00  0.00    +0.046 C 
ATOM     12  C   UNL     1       2.402  -0.004  -0.021  0.00  0.00    -0.024 A 
ATOM     13  C   UNL     1       2.374   1.367  -0.012  0.00  0.00    +0.005 A 
ATOM     14  C   UNL     1       1.177   2.067   0.002  0.00  0.00    +0.001 A 
ATOM     15  C   UNL     1      -0.017   1.368   0.010  0.00  0.00    +0.017 A 
ATOM     16  C   UNL     1       0.002  -0.004   0.002  0.00  0.00    +0.041 A 
ATOM     17  C   UNL     1       1.202  -0.751  -0.013  0.00  0.00    +0.083 A 
ATOM     18  N   UNL     1       1.056  -2.094  -0.019  0.00  0.00    -0.223 NA
ATOM     19  C   UNL     1      -0.122  -2.675  -0.011  0.00  0.00    +0.176 A 
ATOM     20  S   UNL     1      -1.236  -1.278   0.007  0.00  0.00    -0.051 S 
ATOM     21  N   UNL     1      -0.423  -4.022  -0.016  0.00  0.00    -0.242 N 
ATOM     22  H   UNL     1       0.291  -4.678  -0.026  0.00  0.00    +0.172 HD
ENDBRANCH   7  21
ENDBRANCH   1   8
BRANCH   4  23
ATOM     23  S   UNL     1      -7.788  -7.555   0.035  0.00  0.00    +0.061 S 
ATOM     24  O   UNL     1      -8.553  -6.485  -0.502  0.00  0.00    -0.153 OA
ATOM     25  O   UNL     1      -7.808  -8.861  -0.523  0.00  0.00    -0.153 OA
BRANCH  23  26
ATOM     26  N   UNL     1      -8.240  -7.710   1.621  0.00  0.00    -0.172 NA
ATOM     27  C   UNL     1      -8.075  -8.987   2.334  0.00  0.00    +0.140 C 
ATOM     28  C   UNL     1      -7.346  -8.706   3.658  0.00  0.00    +0.131 C 
ATOM     29  O   UNL     1      -8.035  -7.670   4.362  0.00  0.00    -0.371 OA
ATOM     30  C   UNL     1      -8.063  -6.415   3.678  0.00  0.00    +0.131 C 
ATOM     31  C   UNL     1      -8.824  -6.578   2.357  0.00  0.00    +0.140 C 
ATOM     32  C   UNL     1      -6.632  -5.958   3.390  0.00  0.00    +0.039 C 
ATOM     33  C   UNL     1      -7.326  -9.977   4.508  0.00  0.00    +0.039 C 
ENDBRANCH  23  26
ENDBRANCH   4  23
TORSDOF 4
