REMARK  Name = ZINC08809765
REMARK  10 active torsions:
REMARK  status: ('A' for Active; 'I' for Inactive)
REMARK    1  A    between atoms: C_1  and  C_2
REMARK    2  A    between atoms: C_2  and  C_23
REMARK    3  A    between atoms: N_3  and  N_4
REMARK    4  A    between atoms: C_5  and  S_7
REMARK    5  A    between atoms: S_7  and  C_8
REMARK    6  A    between atoms: N_13  and  C_16
REMARK    7  A    between atoms: C_24  and  C_25
REMARK    8  A    between atoms: C_28  and  N_31
REMARK    9  A    between atoms: N_31  and  C_32
REMARK   10  A    between atoms: N_31  and  C_33
REMARK                            x       y       z     vdW  Elec       q    Type
REMARK                         _______ _______ _______ _____ _____    ______ ____
ROOT
ATOM      1  N   UNL     1      -0.242   0.033   1.717  0.00  0.00    -0.217 N 
ATOM      2  C   UNL     1      -0.178  -0.745   2.852  0.00  0.00    +0.146 C 
ATOM      3  N   UNL     1      -0.334  -2.038   2.766  0.00  0.00    -0.380 N 
ATOM      4  H   UNL     1      -0.126   0.993   1.781  0.00  0.00    +0.176 HD
ATOM      5  H   UNL     1      -0.289  -2.586   3.565  0.00  0.00    +0.158 HD
ATOM      6  H   UNL     1      -0.495  -2.451   1.903  0.00  0.00    +0.158 HD
ENDROOT
BRANCH   1   9
ATOM      7  C   UNL     1      -0.355   1.665  -0.503  0.00  0.00    +0.067 C 
ATOM      8  C   UNL     1      -0.536   0.172  -0.602  0.00  0.00    +0.056 C 
ATOM      9  N   UNL     1      -0.475  -0.564   0.471  0.00  0.00    -0.186 NA
BRANCH   8  10
ATOM     10  C   UNL     1      -0.771  -0.432  -1.863  0.00  0.00    +0.025 C 
ATOM     11  C   UNL     1      -0.933  -1.769  -1.951  0.00  0.00    +0.010 C 
BRANCH  11  12
ATOM     12  C   UNL     1      -1.178  -2.395  -3.260  0.00  0.00    -0.025 A 
ATOM     13  C   UNL     1      -1.238  -1.607  -4.414  0.00  0.00    +0.010 A 
ATOM     14  C   UNL     1      -1.466  -2.198  -5.637  0.00  0.00    +0.023 A 
ATOM     15  C   UNL     1      -1.638  -3.576  -5.725  0.00  0.00    +0.029 A 
ATOM     16  C   UNL     1      -1.579  -4.363  -4.580  0.00  0.00    +0.023 A 
ATOM     17  C   UNL     1      -1.346  -3.781  -3.354  0.00  0.00    +0.010 A 
BRANCH  15  18
ATOM     18  N   UNL     1      -1.870  -4.169  -6.966  0.00  0.00    -0.336 N 
ATOM     19  C   UNL     1      -1.810  -3.362  -8.187  0.00  0.00    +0.129 C 
ATOM     20  C   UNL     1      -2.173  -5.600  -7.048  0.00  0.00    +0.129 C 
ENDBRANCH  15  18
ENDBRANCH  11  12
ENDBRANCH   8  10
ENDBRANCH   1   9
BRANCH   2  21
ATOM     21  S   UNL     1       0.115   0.005   4.419  0.00  0.00    -0.078 S 
BRANCH  21  22
ATOM     22  C   UNL     1       0.114  -1.389   5.580  0.00  0.00    +0.149 C 
ATOM     23  C   UNL     1       0.290  -0.889   7.028  0.00  0.00    +0.120 C 
ATOM     24  C   UNL     1       1.583  -1.538   7.472  0.00  0.00    +0.228 C 
ATOM     25  O   UNL     1       2.095  -1.408   8.563  0.00  0.00    -0.275 OA
ATOM     26  N   UNL     1       2.071  -2.279   6.470  0.00  0.00    -0.209 N 
ATOM     27  C   UNL     1       1.323  -2.270   5.355  0.00  0.00    +0.240 C 
ATOM     28  O   UNL     1       1.575  -2.869   4.332  0.00  0.00    -0.274 OA
BRANCH  26  29
ATOM     29  C   UNL     1       3.264  -3.008   6.576  0.00  0.00    +0.044 A 
ATOM     30  C   UNL     1       3.420  -3.944   7.590  0.00  0.00    +0.025 A 
ATOM     31  C   UNL     1       4.596  -4.660   7.692  0.00  0.00    +0.022 A 
ATOM     32  C   UNL     1       5.620  -4.445   6.786  0.00  0.00    +0.041 A 
ATOM     33  C   UNL     1       5.467  -3.512   5.775  0.00  0.00    +0.022 A 
ATOM     34  C   UNL     1       4.290  -2.798   5.665  0.00  0.00    +0.025 A 
ATOM     35 CL   UNL     1       7.097  -5.347   6.917  0.00  0.00    -0.084 Cl
ENDBRANCH  26  29
ENDBRANCH  21  22
ENDBRANCH   2  21
TORSDOF 7
