REMARK  Name = ZINC39352530
REMARK  10 active torsions:
REMARK  status: ('A' for Active; 'I' for Inactive)
REMARK    1  A    between atoms: C_1  and  C_2
REMARK    2  A    between atoms: C_7  and  C_8
REMARK    3  A    between atoms: C_11  and  C_35
REMARK    4  A    between atoms: C_20  and  C_22
REMARK    5  A    between atoms: C_25  and  C_28
REMARK    6  A    between atoms: C_31  and  N_34
REMARK    7  A    between atoms: C_35  and  C_36
REMARK    8  A    between atoms: C_36  and  C_37
REMARK    9  A    between atoms: C_37  and  C_38
REMARK   10  A    between atoms: C_37  and  C_39
REMARK                            x       y       z     vdW  Elec       q    Type
REMARK                         _______ _______ _______ _____ _____    ______ ____
ROOT
ATOM      1  C   UNL     1       0.167  -0.103   2.579  0.00  0.00    +0.031 C 
ATOM      2  N   UNL     1      -0.819   1.009   2.665  0.00  0.00    +0.395 N 
ATOM      3  C   UNL     1      -1.344   1.009   4.056  0.00  0.00    -0.050 C 
ATOM      4  C   UNL     1      -0.578  -0.112   4.763  0.00  0.00    +0.059 C 
ATOM      5  N   UNL     1      -0.243  -1.034   3.639  0.00  0.00    -0.308 NA
ATOM      6  C   UNL     1       0.744  -2.005   4.090  0.00  0.00    +0.102 C 
ATOM      7  C   UNL     1       0.068  -2.898   5.146  0.00  0.00    +0.123 C 
ATOM      8  N   UNL     1      -0.579  -2.066   6.168  0.00  0.00    -0.297 N 
ATOM      9  C   UNL     1      -1.411  -0.901   5.767  0.00  0.00    +0.125 C 
ATOM     10  C   UNL     1      -0.415  -2.351   7.475  0.00  0.00    +0.246 C 
ATOM     11  O   UNL     1      -0.950  -1.662   8.318  0.00  0.00    -0.273 OA
ATOM     12  H   UNL     1      -0.365   1.888   2.468  0.00  0.00    -0.083 HD
ATOM     13  H   UNL     1      -1.572   0.854   2.012  0.00  0.00    -0.083 HD
ENDROOT
BRANCH   1  20
ATOM     14  C   UNL     1       1.819   0.838   0.404  0.00  0.00    +0.044 C 
ATOM     15  C   UNL     1       0.881  -0.322   0.190  0.00  0.00    -0.048 A 
ATOM     16  C   UNL     1       0.815  -0.940  -1.045  0.00  0.00    +0.003 A 
ATOM     17  C   UNL     1      -0.045  -2.004  -1.241  0.00  0.00    +0.000 A 
ATOM     18  C   UNL     1      -0.839  -2.451  -0.201  0.00  0.00    +0.000 A 
ATOM     19  C   UNL     1      -0.773  -1.834   1.034  0.00  0.00    +0.003 A 
ATOM     20  C   UNL     1       0.091  -0.772   1.231  0.00  0.00    -0.045 A 
ENDBRANCH   1  20
BRANCH  10  21
ATOM     21  C   UNL     1       0.432  -3.526   7.889  0.00  0.00    +0.238 C 
ATOM     22  C   UNL     1      -0.366  -4.816   7.815  0.00  0.00    +0.040 C 
ATOM     23  C   UNL     1      -0.372  -5.266   9.085  0.00  0.00    +0.092 C 
ATOM     24  N   UNL     1       0.314  -4.415   9.892  0.00  0.00    -0.153 NA
ATOM     25  N   UNL     1       0.791  -3.432   9.314  0.00  0.00    -0.170 NA
BRANCH  23  26
ATOM     26  C   UNL     1      -1.034  -6.513   9.537  0.00  0.00    +0.002 A 
ATOM     27  C   UNL     1      -1.709  -7.318   8.620  0.00  0.00    +0.012 A 
ATOM     28  C   UNL     1      -2.323  -8.478   9.043  0.00  0.00    +0.023 A 
ATOM     29  C   UNL     1      -2.270  -8.845  10.383  0.00  0.00    +0.025 A 
ATOM     30  C   UNL     1      -1.599  -8.043  11.299  0.00  0.00    +0.023 A 
ATOM     31  C   UNL     1      -0.979  -6.886  10.880  0.00  0.00    +0.012 A 
BRANCH  29  32
ATOM     32  N   UNL     1      -2.893 -10.019  10.808  0.00  0.00    -0.358 N 
ATOM     33  H   UNL     1      -3.362 -10.578  10.170  0.00  0.00    +0.142 HD
ATOM     34  H   UNL     1      -2.857 -10.275  11.743  0.00  0.00    +0.142 HD
ENDBRANCH  29  32
ENDBRANCH  23  26
ENDBRANCH  10  21
BRANCH   3  35
ATOM     35  C   UNL     1      -2.846   0.715   4.058  0.00  0.00    -0.014 C 
BRANCH  35  36
ATOM     36  C   UNL     1      -3.593   1.870   3.388  0.00  0.00    +0.001 C 
BRANCH  36  37
ATOM     37  C   UNL     1      -5.094   1.576   3.390  0.00  0.00    -0.017 C 
ATOM     38  C   UNL     1      -5.851   2.783   2.834  0.00  0.00    +0.007 C 
ATOM     39  C   UNL     1      -5.375   0.351   2.517  0.00  0.00    +0.007 C 
ENDBRANCH  36  37
ENDBRANCH  35  36
ENDBRANCH   3  35
TORSDOF 7
