REMARK  Name = ZINC17958523
REMARK  12 active torsions:
REMARK  status: ('A' for Active; 'I' for Inactive)
REMARK    1  A    between atoms: C_1  and  C_2
REMARK    2  A    between atoms: C_7  and  N_8
REMARK    3  A    between atoms: C_9  and  C_11
REMARK    4  A    between atoms: C_11  and  N_12
REMARK    5  A    between atoms: C_13  and  C_15
REMARK    6  A    between atoms: C_17  and  O_27
REMARK    7  A    between atoms: C_18  and  O_22
REMARK    8  A    between atoms: O_22  and  C_23
REMARK    9  A    between atoms: C_23  and  C_24
REMARK   10  A    between atoms: C_24  and  C_25
REMARK   11  A    between atoms: C_24  and  C_26
REMARK   12  A    between atoms: O_27  and  C_28
REMARK                            x       y       z     vdW  Elec       q    Type
REMARK                         _______ _______ _______ _____ _____    ______ ____
ROOT
ATOM      1  N   UNL     1       1.106  -1.097   6.719  0.00  0.00    -0.303 N 
ATOM      2  C   UNL     1       1.498   0.052   6.132  0.00  0.00    +0.245 C 
ATOM      3  O   UNL     1       2.327   0.758   6.671  0.00  0.00    -0.270 OA
ATOM      4  H   UNL     1       0.444  -1.660   6.289  0.00  0.00    +0.150 HD
ENDROOT
BRANCH   2   5
ATOM      5  C   UNL     1       0.919   0.452   4.834  0.00  0.00    +0.042 A 
ATOM      6  C   UNL     1       1.324   1.642   4.224  0.00  0.00    +0.062 A 
ATOM      7  C   UNL     1       0.780   2.012   3.009  0.00  0.00    +0.164 A 
ATOM      8  C   UNL     1      -0.170   1.199   2.394  0.00  0.00    +0.180 A 
ATOM      9  C   UNL     1      -0.577   0.018   3.003  0.00  0.00    +0.087 A 
ATOM     10  C   UNL     1      -0.034  -0.359   4.213  0.00  0.00    +0.037 A 
ATOM     11 CL   UNL     1      -1.766  -0.987   2.235  0.00  0.00    -0.080 Cl
BRANCH   7  12
ATOM     12  O   UNL     1       1.172   3.170   2.414  0.00  0.00    -0.491 OA
ATOM     13  C   UNL     1       2.149   3.955   3.100  0.00  0.00    +0.277 C 
ENDBRANCH   7  12
BRANCH   8  14
ATOM     14  O   UNL     1      -0.703   1.564   1.199  0.00  0.00    -0.487 OA
BRANCH  14  15
ATOM     15  C   UNL     1      -0.029   1.112   0.023  0.00  0.00    +0.232 C 
BRANCH  15  16
ATOM     16  C   UNL     1      -0.771   1.619  -1.216  0.00  0.00    +0.020 C 
ATOM     17  C   UNL     1      -0.695   3.146  -1.267  0.00  0.00    +0.010 C 
ATOM     18  C   UNL     1      -0.124   1.034  -2.473  0.00  0.00    +0.010 C 
ENDBRANCH  15  16
ENDBRANCH  14  15
ENDBRANCH   8  14
ENDBRANCH   2   5
BRANCH   1  19
ATOM     19  C   UNL     1       1.680  -1.494   8.007  0.00  0.00    +0.200 C 
BRANCH  19  21
ATOM     20  N   UNL     1       1.460  -3.368   9.606  0.00  0.00    -0.284 N 
ATOM     21  C   UNL     1       1.079  -2.805   8.442  0.00  0.00    +0.234 C 
ATOM     22  O   UNL     1       0.253  -3.355   7.745  0.00  0.00    -0.274 OA
ATOM     23  H   UNL     1       2.178  -2.971  10.124  0.00  0.00    +0.155 HD
BRANCH  20  30
ATOM     24  C   UNL     1       2.895  -5.089  11.359  0.00  0.00    +0.046 C 
ATOM     25  C   UNL     1       1.485  -5.392  10.924  0.00  0.00    -0.028 A 
ATOM     26  C   UNL     1       0.849  -6.530  11.381  0.00  0.00    +0.020 A 
ATOM     27  C   UNL     1      -0.444  -6.812  10.976  0.00  0.00    +0.018 A 
ATOM     28  C   UNL     1      -1.106  -5.952  10.118  0.00  0.00    +0.017 A 
ATOM     29  C   UNL     1      -0.477  -4.810   9.662  0.00  0.00    +0.024 A 
ATOM     30  C   UNL     1       0.821  -4.525  10.066  0.00  0.00    +0.036 A 
ATOM     31 BR   UNL     1      -1.308  -8.375  11.598  0.00  0.00    -0.050 Br
ENDBRANCH  20  30
ENDBRANCH  19  21
ENDBRANCH   1  19
TORSDOF 8
