REMARK  Name = ZINC02106876
REMARK  8 active torsions:
REMARK  status: ('A' for Active; 'I' for Inactive)
REMARK    1  A    between atoms: C_1  and  C_2
REMARK    2  A    between atoms: C_5  and  C_7
REMARK    3  A    between atoms: C_14  and  C_31
REMARK    4  A    between atoms: C_15  and  C_25
REMARK    5  A    between atoms: C_16  and  C_18
REMARK    6  A    between atoms: C_25  and  O_27
REMARK    7  A    between atoms: O_27  and  C_28
REMARK    8  A    between atoms: C_28  and  C_29
REMARK                            x       y       z     vdW  Elec       q    Type
REMARK                         _______ _______ _______ _____ _____    ______ ____
ROOT
ATOM      1  C   UNL     1       1.631  -3.173  -0.023  0.00  0.00    +0.066 C 
ATOM      2  C   UNL     1       2.980  -2.969  -0.029  0.00  0.00    +0.084 A 
ATOM      3  C   UNL     1       4.071  -3.948  -0.045  0.00  0.00    +0.268 A 
ATOM      4  O   UNL     1       3.839  -5.143  -0.056  0.00  0.00    -0.266 OA
ATOM      5  N   UNL     1       5.330  -3.490  -0.048  0.00  0.00    -0.275 N 
ATOM      6  C   UNL     1       5.537  -2.130  -0.035  0.00  0.00    +0.178 A 
ATOM      7  N   UNL     1       6.720  -1.569  -0.036  0.00  0.00    -0.228 NA
ATOM      8  C   UNL     1       7.871  -2.228  -0.048  0.00  0.00    +0.053 C 
ATOM      9  C   UNL     1       7.888  -3.595  -0.063  0.00  0.00    +0.085 C 
ATOM     10  C   UNL     1       6.564  -4.324  -0.063  0.00  0.00    +0.162 C 
ATOM     11  C   UNL     1       9.170  -1.464  -0.048  0.00  0.00    +0.066 C 
ATOM     12  S   UNL     1       3.896  -1.435  -0.026  0.00  0.00    -0.046 S 
ENDROOT
BRANCH  10  13
ATOM     13  C   UNL     1       6.517  -5.200  -1.289  0.00  0.00    -0.020 A 
ATOM     14  C   UNL     1       6.056  -4.687  -2.487  0.00  0.00    +0.007 A 
ATOM     15  C   UNL     1       6.012  -5.490  -3.611  0.00  0.00    +0.020 A 
ATOM     16  C   UNL     1       6.431  -6.806  -3.537  0.00  0.00    +0.041 A 
ATOM     17  C   UNL     1       6.892  -7.319  -2.338  0.00  0.00    +0.020 A 
ATOM     18  C   UNL     1       6.940  -6.514  -1.216  0.00  0.00    +0.007 A 
ATOM     19 CL   UNL     1       6.376  -7.815  -4.949  0.00  0.00    -0.084 Cl
ENDBRANCH  10  13
BRANCH   1  24
ATOM     20  C   UNL     1      -0.018   1.503   0.010  0.00  0.00    +0.086 C 
ATOM     21  C   UNL     1       0.002  -0.004   0.002  0.00  0.00    +0.103 A 
ATOM     22  C   UNL     1      -1.088  -0.803   0.003  0.00  0.00    +0.045 A 
ATOM     23  C   UNL     1      -0.630  -2.130  -0.007  0.00  0.00    +0.049 A 
ATOM     24  C   UNL     1       0.749  -2.069  -0.013  0.00  0.00    +0.129 A 
ATOM     25  O   UNL     1       1.105  -0.767  -0.013  0.00  0.00    -0.461 OA
ENDBRANCH   1  24
BRANCH   9  26
ATOM     26  C   UNL     1       9.102  -4.302  -0.076  0.00  0.00    +0.340 C 
ATOM     27  O   UNL     1      10.159  -3.697  -0.076  0.00  0.00    -0.245 OA
BRANCH  26  28
ATOM     28  O   UNL     1       9.096  -5.653  -0.090  0.00  0.00    -0.457 OA
BRANCH  28  29
ATOM     29  C   UNL     1      10.367  -6.306  -0.104  0.00  0.00    +0.259 C 
BRANCH  29  30
ATOM     30  C   UNL     1      10.164  -7.800  -0.118  0.00  0.00    +0.006 C 
ATOM     31  C   UNL     1      10.866  -8.548  -0.932  0.00  0.00    +0.007 C 
ENDBRANCH  29  30
ENDBRANCH  28  29
ENDBRANCH  26  28
ENDBRANCH   9  26
TORSDOF 6
