REMARK  Name = ZINC12242506
REMARK  12 active torsions:
REMARK  status: ('A' for Active; 'I' for Inactive)
REMARK    1  A    between atoms: C_1  and  N_57
REMARK    2  A    between atoms: C_2  and  C_3
REMARK    3  A    between atoms: C_2  and  N_57
REMARK    4  A    between atoms: C_8  and  C_9
REMARK    5  A    between atoms: C_15  and  C_16
REMARK    6  A    between atoms: C_15  and  N_57
REMARK    7  A    between atoms: C_19  and  S_28
REMARK    8  A    between atoms: N_20  and  C_21
REMARK    9  A    between atoms: S_28  and  C_29
REMARK   10  A    between atoms: C_29  and  C_30
REMARK   11  A    between atoms: C_30  and  C_31
REMARK   12  A    between atoms: C_31  and  O_32
REMARK                            x       y       z     vdW  Elec       q    Type
REMARK                         _______ _______ _______ _____ _____    ______ ____
ROOT
ATOM      1  C   UNL     1       2.221   1.532   0.562  0.00  0.00    +0.122 A 
ATOM      2  N   UNL     1       2.164   1.666   1.857  0.00  0.00    -0.135 NA
ATOM      3  N   UNL     1       3.186   1.112   2.405  0.00  0.00    -0.122 NA
ATOM      4  C   UNL     1       3.965   0.598   1.482  0.00  0.00    +0.196 A 
ATOM      5  N   UNL     1       3.373   0.850   0.274  0.00  0.00    -0.276 N 
ENDROOT
BRANCH   5   6
ATOM      6  C   UNL     1       3.848   0.485  -0.995  0.00  0.00    +0.052 A 
ATOM      7  C   UNL     1       4.964   1.118  -1.528  0.00  0.00    +0.026 A 
ATOM      8  C   UNL     1       5.430   0.757  -2.777  0.00  0.00    +0.003 A 
ATOM      9  C   UNL     1       4.787  -0.233  -3.497  0.00  0.00    +0.020 A 
ATOM     10  C   UNL     1       3.675  -0.865  -2.969  0.00  0.00    +0.043 A 
ATOM     11  C   UNL     1       3.208  -0.511  -1.717  0.00  0.00    +0.046 A 
ATOM     12 CL   UNL     1       2.872  -2.108  -3.876  0.00  0.00    -0.083 Cl
ENDBRANCH   5   6
BRANCH   1  13
ATOM     13  C   UNL     1       1.212   2.041  -0.434  0.00  0.00    -0.001 C 
BRANCH  13  15
ATOM     14  C   UNL     1       0.261  -0.097  -1.060  0.00  0.00    -0.095 C 
ATOM     15  N   UNL     1       0.008   1.185  -0.368  0.00  0.00    +0.385 N 
ATOM     16  H   UNL     1      -0.211   0.994   0.617  0.00  0.00    -0.081 HD
BRANCH  15  17
ATOM     17  C   UNL     1      -1.139   1.878  -0.990  0.00  0.00    -0.039 C 
BRANCH  17  18
ATOM     18  C   UNL     1      -2.392   1.086  -0.716  0.00  0.00    -0.019 A 
ATOM     19  C   UNL     1      -3.010   0.250  -1.578  0.00  0.00    +0.107 A 
ATOM     20  N   UNL     1      -4.093  -0.264  -0.957  0.00  0.00    -0.284 N 
ATOM     21  H   UNL     1      -4.743  -0.914  -1.351  0.00  0.00    +0.188 HD
ATOM     22  N   UNL     1      -4.149   0.272   0.336  0.00  0.00    -0.174 NA
ATOM     23  C   UNL     1      -3.123   1.083   0.488  0.00  0.00    +0.094 A 
BRANCH  23  24
ATOM     24  C   UNL     1      -2.797   1.858   1.711  0.00  0.00    +0.002 A 
ATOM     25  C   UNL     1      -1.467   2.071   2.069  0.00  0.00    +0.010 A 
ATOM     26  C   UNL     1      -1.169   2.798   3.204  0.00  0.00    +0.001 A 
ATOM     27  C   UNL     1      -2.187   3.305   3.991  0.00  0.00    +0.000 A 
ATOM     28  C   UNL     1      -3.509   3.092   3.643  0.00  0.00    +0.001 A 
ATOM     29  C   UNL     1      -3.818   2.371   2.507  0.00  0.00    +0.010 A 
ENDBRANCH  23  24
ENDBRANCH  17  18
ENDBRANCH  15  17
ENDBRANCH  13  15
ENDBRANCH   1  13
BRANCH   4  30
ATOM     30  S   UNL     1       5.483  -0.256   1.748  0.00  0.00    -0.086 S 
BRANCH  30  31
ATOM     31  C   UNL     1       5.576  -0.177   3.553  0.00  0.00    +0.079 C 
BRANCH  31  32
ATOM     32  C   UNL     1       6.851  -0.876   4.029  0.00  0.00    +0.039 C 
BRANCH  32  33
ATOM     33  C   UNL     1       6.929  -0.810   5.556  0.00  0.00    +0.156 C 
BRANCH  33  34
ATOM     34  O   UNL     1       8.120  -1.462   6.001  0.00  0.00    -0.395 OA
ATOM     35  H   UNL     1       8.236  -1.458   6.961  0.00  0.00    +0.209 HD
ENDBRANCH  33  34
ENDBRANCH  32  33
ENDBRANCH  31  32
ENDBRANCH  30  31
ENDBRANCH   4  30
TORSDOF 11
