REMARK  Name = ZINC61717600
REMARK  6 active torsions:
REMARK  status: ('A' for Active; 'I' for Inactive)
REMARK    1  A    between atoms: C_1  and  O_2
REMARK    2  A    between atoms: O_2  and  C_3
REMARK    3  A    between atoms: C_3  and  C_5
REMARK    4  A    between atoms: C_11  and  C_15
REMARK    5  A    between atoms: C_16  and  C_17
REMARK    6  A    between atoms: C_16  and  C_19
REMARK                            x       y       z     vdW  Elec       q    Type
REMARK                         _______ _______ _______ _____ _____    ______ ____
ROOT
ATOM      1  C   UNL     1      -4.466  -0.989   0.156  0.00  0.00    +0.034 C 
ATOM      2  C   UNL     1      -5.809  -0.764   0.378  0.00  0.00    +0.114 C 
ENDROOT
BRANCH   2   3
ATOM      3  C   UNL     1      -6.320   0.616   0.469  0.00  0.00    +0.259 C 
ATOM      4  O   UNL     1      -5.554   1.560   0.349  0.00  0.00    -0.269 OA
ATOM      5  N   UNL     1      -7.615   0.833   0.683  0.00  0.00    -0.280 N 
ATOM      6  C   UNL     1      -8.325   1.586  -0.182  0.00  0.00    +0.043 A 
ATOM      7  C   UNL     1      -7.752   2.037  -1.373  0.00  0.00    +0.024 A 
ATOM      8  C   UNL     1      -8.488   2.808  -2.252  0.00  0.00    +0.004 A 
ATOM      9  C   UNL     1      -9.797   3.156  -1.991  0.00  0.00    +0.028 A 
ATOM     10  C   UNL     1     -10.427   2.739  -0.825  0.00  0.00    +0.073 A 
ATOM     11  C   UNL     1      -9.715   1.944   0.104  0.00  0.00    +0.022 A 
ATOM     12  C   UNL     1     -10.352   1.521   1.276  0.00  0.00    +0.013 A 
ATOM     13  C   UNL     1     -11.672   1.894   1.488  0.00  0.00    +0.020 A 
ATOM     14  C   UNL     1     -12.333   2.664   0.561  0.00  0.00    +0.111 A 
ATOM     15  N   UNL     1     -11.728   3.083  -0.561  0.00  0.00    -0.255 NA
ATOM     16  H   UNL     1      -8.049   0.449   1.462  0.00  0.00    +0.155 HD
ENDBRANCH   2   3
BRANCH   1  23
ATOM     17  C   UNL     1      -1.799  -2.464   1.426  0.00  0.00    +0.069 A 
ATOM     18  C   UNL     1      -0.770  -3.327   1.804  0.00  0.00    +0.016 A 
ATOM     19  C   UNL     1      -0.730  -4.616   1.306  0.00  0.00    +0.003 A 
ATOM     20  C   UNL     1      -1.700  -5.068   0.433  0.00  0.00    +0.026 A 
ATOM     21  C   UNL     1      -2.738  -4.229   0.041  0.00  0.00    +0.048 A 
ATOM     22  C   UNL     1      -2.792  -2.920   0.543  0.00  0.00    +0.021 A 
ATOM     23  C   UNL     1      -3.993  -2.308  -0.051  0.00  0.00    +0.002 A 
ATOM     24  C   UNL     1      -4.566  -3.280  -0.849  0.00  0.00    +0.091 A 
ATOM     25  N   UNL     1      -3.821  -4.402  -0.798  0.00  0.00    -0.360 N 
ATOM     26  H   UNL     1      -4.023  -5.221  -1.277  0.00  0.00    +0.165 HD
BRANCH  17  27
ATOM     27  C   UNL     1      -1.847  -1.089   1.954  0.00  0.00    +0.340 C 
ATOM     28  O   UNL     1      -2.808  -0.382   1.722  0.00  0.00    -0.245 OA
BRANCH  27  30
ATOM     29  C   UNL     1      -0.939   0.727   3.172  0.00  0.00    +0.280 C 
ATOM     30  O   UNL     1      -0.825  -0.614   2.693  0.00  0.00    -0.464 OA
ENDBRANCH  27  30
ENDBRANCH  17  27
ENDBRANCH   1  23
BRANCH   2  31
ATOM     31  C   UNL     1      -6.706  -1.871   0.519  0.00  0.00    +0.104 C 
ATOM     32  N   UNL     1      -7.418  -2.749   0.631  0.00  0.00    -0.191 NA
ENDBRANCH   2  31
TORSDOF 5
