REMARK  Name = ZINC63686705
REMARK  7 active torsions:
REMARK  status: ('A' for Active; 'I' for Inactive)
REMARK    1  A    between atoms: C_4  and  N_7
REMARK    2  A    between atoms: N_10  and  C_11
REMARK    3  A    between atoms: C_14  and  C_18
REMARK    4  A    between atoms: C_18  and  C_19
REMARK    5  A    between atoms: N_21  and  C_22
REMARK    6  A    between atoms: C_22  and  C_23
REMARK    7  A    between atoms: C_23  and  C_24
REMARK                            x       y       z     vdW  Elec       q    Type
REMARK                         _______ _______ _______ _____ _____    ______ ____
ROOT
ATOM      1  C   UNL     1       4.848  -4.106   0.247  0.00  0.00    +0.203 C 
ATOM      2  N   UNL     1       6.196  -4.579   0.631  0.00  0.00    -0.286 NA
ATOM      3  C   UNL     1       6.922  -5.338  -0.390  0.00  0.00    +0.075 C 
ATOM      4  C   UNL     1       5.936  -6.139  -1.289  0.00  0.00    +0.091 C 
ATOM      5  S   UNL     1       4.582  -4.879  -1.405  0.00  0.00    -0.121 S 
ATOM      6  H   UNL     1       6.758  -3.821   0.986  0.00  0.00    +0.125 HD
ENDROOT
BRANCH   1  10
ATOM      7  N   UNL     1       3.622  -0.651  -0.036  0.00  0.00    -0.269 N 
ATOM      8  C   UNL     1       3.645  -1.995   0.058  0.00  0.00    +0.306 C 
ATOM      9  O   UNL     1       2.603  -2.622   0.065  0.00  0.00    -0.252 OA
ATOM     10  N   UNL     1       4.823  -2.644   0.144  0.00  0.00    -0.275 N 
ATOM     11  H   UNL     1       4.452  -0.156  -0.120  0.00  0.00    +0.156 HD
ATOM     12  H   UNL     1       5.654  -2.144   0.139  0.00  0.00    +0.153 HD
BRANCH   7  16
ATOM     13  C   UNL     1      -0.015   1.381   0.031  0.00  0.00    +0.000 A 
ATOM     14  C   UNL     1       0.140   0.219   0.765  0.00  0.00    +0.002 A 
ATOM     15  C   UNL     1       1.344  -0.457   0.744  0.00  0.00    +0.023 A 
ATOM     16  C   UNL     1       2.400   0.031  -0.014  0.00  0.00    +0.035 A 
ATOM     17  C   UNL     1       2.241   1.198  -0.750  0.00  0.00    +0.023 A 
ATOM     18  C   UNL     1       1.034   1.870  -0.725  0.00  0.00    +0.002 A 
ENDBRANCH   7  16
ENDBRANCH   1  10
BRANCH   3  19
ATOM     19  C   UNL     1       7.882  -6.312   0.295  0.00  0.00    +0.115 C 
BRANCH  19  20
ATOM     20  C   UNL     1       8.955  -5.538   1.015  0.00  0.00    +0.215 C 
ATOM     21  O   UNL     1       8.953  -4.325   0.984  0.00  0.00    -0.276 OA
ATOM     22  N   UNL     1       9.918  -6.192   1.694  0.00  0.00    -0.315 N 
ATOM     23  H   UNL     1       9.920  -7.162   1.719  0.00  0.00    +0.149 HD
BRANCH  22  24
ATOM     24  C   UNL     1      10.962  -5.439   2.394  0.00  0.00    +0.108 C 
BRANCH  24  25
ATOM     25  C   UNL     1      11.922  -6.414   3.079  0.00  0.00    +0.052 C 
BRANCH  25  26
ATOM     26  C   UNL     1      12.995  -5.640   3.799  0.00  0.00    -0.040 C 
ATOM     27  C   UNL     1      13.006  -5.286   5.104  0.00  0.00    -0.001 A 
ATOM     28  C   UNL     1      12.057  -5.506   6.202  0.00  0.00    +0.010 A 
ATOM     29  C   UNL     1      12.349  -5.020   7.429  0.00  0.00    +0.001 A 
ATOM     30  C   UNL     1      13.532  -4.311   7.679  0.00  0.00    +0.002 A 
ATOM     31  C   UNL     1      14.453  -4.069   6.722  0.00  0.00    +0.026 A 
ATOM     32  C   UNL     1      14.248  -4.535   5.394  0.00  0.00    +0.043 A 
ATOM     33  N   UNL     1      14.978  -4.429   4.310  0.00  0.00    -0.380 N 
ATOM     34  C   UNL     1      14.282  -5.107   3.210  0.00  0.00    +0.144 C 
ATOM     35  H   UNL     1      15.836  -3.981   4.246  0.00  0.00    +0.160 HD
ENDBRANCH  25  26
ENDBRANCH  24  25
ENDBRANCH  22  24
ENDBRANCH  19  20
ENDBRANCH   3  19
TORSDOF 7
