REMARK  Name = ZINC57364290
REMARK  9 active torsions:
REMARK  status: ('A' for Active; 'I' for Inactive)
REMARK    1  A    between atoms: C_4  and  C_7
REMARK    2  A    between atoms: C_7  and  N_8
REMARK    3  A    between atoms: N_11  and  C_14
REMARK    4  A    between atoms: C_14  and  C_15
REMARK    5  A    between atoms: C_15  and  N_16
REMARK    6  A    between atoms: N_16  and  C_17
REMARK    7  A    between atoms: C_20  and  N_31
REMARK    8  A    between atoms: C_22  and  S_23
REMARK    9  A    between atoms: S_23  and  N_26
REMARK                            x       y       z     vdW  Elec       q    Type
REMARK                         _______ _______ _______ _____ _____    ______ ____
ROOT
ATOM      1  N   UNL     1       7.179  -4.115   6.124  0.00  0.00    -0.341 N 
ATOM      2  H   UNL     1       6.668  -3.792   6.882  0.00  0.00    +0.146 HD
ENDROOT
BRANCH   1   3
ATOM      3  C   UNL     1       8.339  -4.865   6.332  0.00  0.00    +0.054 A 
ATOM      4  C   UNL     1       9.076  -5.323   5.247  0.00  0.00    +0.027 A 
ATOM      5  C   UNL     1      10.223  -6.064   5.456  0.00  0.00    +0.034 A 
ATOM      6  C   UNL     1      10.638  -6.349   6.744  0.00  0.00    +0.128 A 
ATOM      7  C   UNL     1       9.906  -5.895   7.826  0.00  0.00    +0.063 A 
ATOM      8  C   UNL     1       8.762  -5.149   7.624  0.00  0.00    +0.128 A 
BRANCH   8   9
ATOM      9  S   UNL     1       7.835  -4.565   9.004  0.00  0.00    +0.063 S 
ATOM     10  O   UNL     1       6.478  -4.908   8.757  0.00  0.00    -0.153 OA
ATOM     11  O   UNL     1       8.528  -4.990  10.169  0.00  0.00    -0.153 OA
BRANCH   9  12
ATOM     12  N   UNL     1       7.915  -2.911   8.983  0.00  0.00    -0.177 NA
ATOM     13  C   UNL     1       8.944  -2.094   9.644  0.00  0.00    +0.109 C 
ATOM     14  C   UNL     1       8.599  -0.615   9.373  0.00  0.00    +0.018 C 
ATOM     15  C   UNL     1       7.082  -0.665   9.052  0.00  0.00    +0.018 C 
ATOM     16  C   UNL     1       6.971  -2.013   8.293  0.00  0.00    +0.109 C 
ENDBRANCH   9  12
ENDBRANCH   8   9
BRANCH   6  17
ATOM     17  N   UNL     1      11.867  -7.143   6.965  0.00  0.00    +0.056 N 
ATOM     18  O   UNL     1      12.507  -7.542   6.020  0.00  0.00    -0.126 OA
ATOM     19  O   UNL     1      12.231  -7.394   8.090  0.00  0.00    -0.126 OA
ENDBRANCH   6  17
ENDBRANCH   1   3
BRANCH   1  20
ATOM     20  C   UNL     1       6.735  -3.816   4.760  0.00  0.00    +0.117 C 
BRANCH  20  21
ATOM     21  C   UNL     1       5.450  -2.988   4.812  0.00  0.00    +0.103 C 
BRANCH  21  25
ATOM     22  N   UNL     1       4.153  -0.953   1.342  0.00  0.00    +0.384 N 
ATOM     23  C   UNL     1       3.207  -1.861   2.004  0.00  0.00    -0.063 C 
ATOM     24  C   UNL     1       3.657  -2.102   3.447  0.00  0.00    +0.066 C 
ATOM     25  N   UNL     1       5.005  -2.688   3.445  0.00  0.00    -0.304 NA
ATOM     26  C   UNL     1       5.958  -1.801   2.763  0.00  0.00    +0.066 C 
ATOM     27  C   UNL     1       5.489  -1.562   1.326  0.00  0.00    -0.063 C 
ATOM     28  H   UNL     1       4.188  -0.079   1.844  0.00  0.00    -0.081 HD
BRANCH  22  29
ATOM     29  C   UNL     1       3.711  -0.707  -0.038  0.00  0.00    -0.043 C 
BRANCH  29  33
ATOM     30  C   UNL     1      -0.017   1.378   0.010  0.00  0.00    +0.000 A 
ATOM     31  C   UNL     1       1.171   2.086   0.002  0.00  0.00    +0.000 A 
ATOM     32  C   UNL     1       2.377   1.411  -0.013  0.00  0.00    +0.002 A 
ATOM     33  C   UNL     1       2.396   0.029  -0.020  0.00  0.00    -0.064 A 
ATOM     34  C   UNL     1       1.208  -0.679  -0.012  0.00  0.00    +0.002 A 
ATOM     35  C   UNL     1       0.002  -0.004   0.002  0.00  0.00    +0.000 A 
ENDBRANCH  29  33
ENDBRANCH  22  29
ENDBRANCH  21  25
ENDBRANCH  20  21
ENDBRANCH   1  20
TORSDOF 9
