REMARK  Name = ZINC43919754
REMARK  9 active torsions:
REMARK  status: ('A' for Active; 'I' for Inactive)
REMARK    1  A    between atoms: C_1  and  N_2
REMARK    2  A    between atoms: C_9  and  C_21
REMARK    3  A    between atoms: C_11  and  C_19
REMARK    4  A    between atoms: C_12  and  N_18
REMARK    5  A    between atoms: C_13  and  C_14
REMARK    6  A    between atoms: C_13  and  C_16
REMARK    7  A    between atoms: C_24  and  C_27
REMARK    8  A    between atoms: C_27  and  O_29
REMARK    9  A    between atoms: O_29  and  C_30
REMARK                            x       y       z     vdW  Elec       q    Type
REMARK                         _______ _______ _______ _____ _____    ______ ____
ROOT
ATOM      1  C   UNL     1      -0.018   1.465   0.010  0.00  0.00    +0.105 C 
ATOM      2  N   UNL     1       0.002  -0.004   0.002  0.00  0.00    -0.301 NA
ATOM      3  C   UNL     1      -1.364  -0.550  -0.054  0.00  0.00    +0.111 C 
ATOM      4  C   UNL     1      -1.266  -2.049  -0.149  0.00  0.00    -0.009 C 
ATOM      5  C   UNL     1      -0.262  -2.700   0.361  0.00  0.00    -0.028 C 
ATOM      6  C   UNL     1       0.870  -2.037   1.100  0.00  0.00    +0.044 C 
ATOM      7  C   UNL     1       0.704  -0.526   1.177  0.00  0.00    +0.093 C 
ATOM      8  C   UNL     1       0.917  -2.609   2.522  0.00  0.00    +0.069 C 
ATOM      9  C   UNL     1       0.783  -4.100   2.505  0.00  0.00    +0.057 C 
ATOM     10  C   UNL     1       0.274  -4.811   1.502  0.00  0.00    +0.054 C 
ATOM     11  C   UNL     1      -0.206  -4.208   0.212  0.00  0.00    +0.202 C 
ENDROOT
BRANCH   8  12
ATOM     12  C   UNL     1      -0.210  -2.020   3.330  0.00  0.00    -0.039 A 
ATOM     13  C   UNL     1      -1.520  -2.219   2.932  0.00  0.00    +0.005 A 
ATOM     14  C   UNL     1      -2.557  -1.683   3.668  0.00  0.00    +0.015 A 
ATOM     15  C   UNL     1      -2.281  -0.939   4.816  0.00  0.00    +0.059 A 
ATOM     16  C   UNL     1      -0.957  -0.742   5.212  0.00  0.00    +0.015 A 
ATOM     17  C   UNL     1       0.070  -1.288   4.471  0.00  0.00    +0.005 A 
BRANCH  15  18
ATOM     18  C   UNL     1      -3.386  -0.361   5.609  0.00  0.00    +0.339 C 
ATOM     19  O   UNL     1      -4.537  -0.534   5.262  0.00  0.00    -0.245 OA
BRANCH  18  20
ATOM     20  O   UNL     1      -3.117   0.357   6.716  0.00  0.00    -0.464 OA
ATOM     21  C   UNL     1      -4.234   0.885   7.434  0.00  0.00    +0.280 C 
ENDBRANCH  18  20
ENDBRANCH  15  18
ENDBRANCH   8  12
BRANCH  10  22
ATOM     22  N   UNL     1       0.182  -6.170   1.654  0.00  0.00    -0.358 N 
ATOM     23  H   UNL     1       0.484  -6.588   2.475  0.00  0.00    +0.142 HD
ATOM     24  H   UNL     1      -0.185  -6.714   0.939  0.00  0.00    +0.142 HD
ENDBRANCH  10  22
BRANCH  11  25
ATOM     25  C   UNL     1      -1.549  -4.721  -0.102  0.00  0.00    +0.095 C 
ATOM     26  N   UNL     1      -2.586  -5.118  -0.345  0.00  0.00    -0.194 NA
ENDBRANCH  11  25
BRANCH  11  27
ATOM     27  C   UNL     1       0.724  -4.561  -0.873  0.00  0.00    +0.095 C 
ATOM     28  N   UNL     1       1.442  -4.834  -1.710  0.00  0.00    -0.194 NA
ENDBRANCH  11  27
BRANCH   9  29
ATOM     29  C   UNL     1       1.238  -4.817   3.658  0.00  0.00    +0.097 C 
ATOM     30  N   UNL     1       1.599  -5.386   4.572  0.00  0.00    -0.191 NA
ENDBRANCH   9  29
TORSDOF 7
