REMARK  Name = ZINC45306370
REMARK  3 active torsions:
REMARK  status: ('A' for Active; 'I' for Inactive)
REMARK    1  A    between atoms: C_9  and  N_11
REMARK    2  A    between atoms: N_14  and  N_15
REMARK    3  A    between atoms: C_16  and  C_18
REMARK                            x       y       z     vdW  Elec       q    Type
REMARK                         _______ _______ _______ _____ _____    ______ ____
ROOT
ATOM      1  N   UNL     1       4.577  -0.496  -0.997  0.00  0.00    -0.291 N 
ATOM      2  C   UNL     1       5.524   0.384  -0.617  0.00  0.00    +0.316 C 
ATOM      3  O   UNL     1       5.538   0.808   0.522  0.00  0.00    -0.251 OA
ATOM      4  N   UNL     1       6.456   0.794  -1.500  0.00  0.00    -0.218 N 
ATOM      5  H   UNL     1       4.566  -0.835  -1.906  0.00  0.00    +0.151 HD
ATOM      6  H   UNL     1       7.138   1.428  -1.226  0.00  0.00    +0.174 HD
ENDROOT
BRANCH   1  15
ATOM      7  C   UNL     1      -0.017   1.377   0.010  0.00  0.00    +0.000 A 
ATOM      8  C   UNL     1       1.172   2.083   0.002  0.00  0.00    +0.000 A 
ATOM      9  C   UNL     1       2.376   1.406  -0.013  0.00  0.00    +0.006 A 
ATOM     10  C   UNL     1       2.396   0.021  -0.021  0.00  0.00    -0.024 A 
ATOM     11  C   UNL     1       1.208  -0.685  -0.013  0.00  0.00    -0.042 A 
ATOM     12  C   UNL     1       0.002  -0.004   0.002  0.00  0.00    +0.004 A 
ATOM     13  C   UNL     1       1.496  -2.171  -0.025  0.00  0.00    +0.037 C 
ATOM     14  C   UNL     1       2.966  -2.294  -0.480  0.00  0.00    +0.032 C 
ATOM     15  C   UNL     1       3.564  -0.942  -0.037  0.00  0.00    +0.105 C 
ENDBRANCH   1  15
BRANCH   4  16
ATOM     16  N   UNL     1       6.441   0.305  -2.813  0.00  0.00    -0.229 N 
ATOM     17  C   UNL     1       7.373   0.715  -3.696  0.00  0.00    +0.267 C 
ATOM     18  O   UNL     1       8.228   1.510  -3.352  0.00  0.00    -0.268 OA
ATOM     19  H   UNL     1       5.759  -0.328  -3.086  0.00  0.00    +0.173 HD
BRANCH  17  20
ATOM     20  C   UNL     1       7.356   0.204  -5.069  0.00  0.00    +0.076 A 
ATOM     21  C   UNL     1       8.212   0.488  -6.115  0.00  0.00    +0.024 A 
ATOM     22  C   UNL     1       7.960  -0.147  -7.328  0.00  0.00    -0.036 A 
ATOM     23  C   UNL     1       6.891  -0.985  -7.363  0.00  0.00    -0.006 A 
ATOM     24  S   UNL     1       6.231  -0.953  -5.825  0.00  0.00    -0.088 S 
ATOM     25  C   UNL     1       6.388  -1.786  -8.528  0.00  0.00    +0.043 C 
ATOM     26  C   UNL     1       7.558  -2.120  -9.460  0.00  0.00    +0.005 C 
ATOM     27  C   UNL     1       7.703  -0.997 -10.481  0.00  0.00    +0.001 C 
ATOM     28  C   UNL     1       7.998   0.329  -9.784  0.00  0.00    +0.005 C 
ATOM     29  C   UNL     1       8.851   0.098  -8.541  0.00  0.00    +0.036 C 
ENDBRANCH  17  20
ENDBRANCH   4  16
TORSDOF 3
