REMARK  Name = ZINC39684494
REMARK  10 active torsions:
REMARK  status: ('A' for Active; 'I' for Inactive)
REMARK    1  A    between atoms: C_1  and  C_2
REMARK    2  A    between atoms: C_3  and  C_15
REMARK    3  A    between atoms: C_4  and  C_7
REMARK    4  A    between atoms: C_19  and  C_28
REMARK    5  A    between atoms: N_30  and  C_31
REMARK    6  A    between atoms: C_31  and  C_33
REMARK    7  A    between atoms: C_31  and  C_34
REMARK    8  A    between atoms: C_34  and  C_35
REMARK    9  A    between atoms: C_34  and  C_36
REMARK   10  A    between atoms: C_34  and  C_37
REMARK                            x       y       z     vdW  Elec       q    Type
REMARK                         _______ _______ _______ _____ _____    ______ ____
ROOT
ATOM      1  C   UNL     1      -2.792   0.253   1.096  0.00  0.00    +0.252 C 
ATOM      2  O   UNL     1      -3.619   0.496   0.238  0.00  0.00    -0.270 OA
ATOM      3  N   UNL     1      -3.096   0.439   2.396  0.00  0.00    -0.296 N 
ATOM      4  C   UNL     1      -2.265   0.112   3.579  0.00  0.00    +0.121 C 
ATOM      5  C   UNL     1      -2.492   1.290   4.553  0.00  0.00    +0.100 C 
ATOM      6  C   UNL     1      -3.854   1.877   4.147  0.00  0.00    -0.004 C 
ATOM      7  C   UNL     1      -4.335   1.022   2.966  0.00  0.00    +0.115 C 
ATOM      8  C   UNL     1      -4.839   1.779   5.308  0.00  0.00    -0.010 C 
ATOM      9  C   UNL     1      -6.168   2.421   4.899  0.00  0.00    -0.082 C 
ATOM     10  N   UNL     1      -5.944   3.827   4.540  0.00  0.00    +0.379 N 
ATOM     11  C   UNL     1      -5.068   3.910   3.365  0.00  0.00    -0.082 C 
ATOM     12  C   UNL     1      -3.693   3.330   3.708  0.00  0.00    -0.010 C 
ATOM     13  H   UNL     1      -6.829   4.264   4.331  0.00  0.00    -0.086 HD
ATOM     14  H   UNL     1      -5.510   4.306   5.316  0.00  0.00    -0.086 HD
ENDROOT
BRANCH   1  17
ATOM     15  C   UNL     1      -0.378   2.006   0.166  0.00  0.00    +0.090 C 
ATOM     16  C   UNL     1      -0.397   0.506   0.307  0.00  0.00    +0.147 A 
ATOM     17  C   UNL     1      -1.460  -0.245   0.715  0.00  0.00    +0.106 A 
ATOM     18  C   UNL     1      -1.018  -1.648   0.702  0.00  0.00    +0.128 A 
ATOM     19  N   UNL     1       0.229  -1.650   0.303  0.00  0.00    -0.077 NA
ATOM     20  O   UNL     1       0.623  -0.316   0.050  0.00  0.00    -0.359 OA
BRANCH  18  21
ATOM     21  C   UNL     1      -1.830  -2.833   1.069  0.00  0.00    +0.041 A 
ATOM     22  C   UNL     1      -3.004  -3.121   0.372  0.00  0.00    +0.052 A 
ATOM     23  C   UNL     1      -3.756  -4.226   0.718  0.00  0.00    +0.021 A 
ATOM     24  C   UNL     1      -3.347  -5.047   1.754  0.00  0.00    +0.003 A 
ATOM     25  C   UNL     1      -2.185  -4.767   2.449  0.00  0.00    +0.021 A 
ATOM     26  C   UNL     1      -1.421  -3.667   2.108  0.00  0.00    +0.052 A 
ATOM     27 CL   UNL     1       0.042  -3.321   2.977  0.00  0.00    -0.083 Cl
ATOM     28 CL   UNL     1      -3.518  -2.091  -0.928  0.00  0.00    -0.083 Cl
ENDBRANCH  18  21
ENDBRANCH   1  17
BRANCH   5  29
ATOM     29  C   UNL     1      -1.405   2.321   4.393  0.00  0.00    +0.218 C 
ATOM     30  O   UNL     1      -0.922   2.529   3.299  0.00  0.00    -0.275 OA
ATOM     31  N   UNL     1      -0.968   3.012   5.464  0.00  0.00    -0.312 N 
ATOM     32  H   UNL     1      -1.301   2.795   6.349  0.00  0.00    +0.149 HD
BRANCH  31  33
ATOM     33  C   UNL     1       0.010   4.089   5.293  0.00  0.00    +0.075 C 
ATOM     34  C   UNL     1       1.414   3.491   5.185  0.00  0.00    +0.028 C 
BRANCH  33  35
ATOM     35  C   UNL     1      -0.052   5.031   6.497  0.00  0.00    -0.020 C 
ATOM     36  C   UNL     1       0.269   4.250   7.772  0.00  0.00    +0.012 C 
ATOM     37  C   UNL     1       0.969   6.156   6.317  0.00  0.00    +0.012 C 
ATOM     38  C   UNL     1      -1.456   5.629   6.604  0.00  0.00    +0.012 C 
ENDBRANCH  33  35
ENDBRANCH  31  33
ENDBRANCH   5  29
TORSDOF 5
