REMARK  Name = ZINC37063630
REMARK  6 active torsions:
REMARK  status: ('A' for Active; 'I' for Inactive)
REMARK    1  A    between atoms: C_1  and  C_2
REMARK    2  A    between atoms: C_5  and  S_9
REMARK    3  A    between atoms: C_6  and  N_8
REMARK    4  A    between atoms: S_9  and  N_12
REMARK    5  A    between atoms: N_12  and  C_13
REMARK    6  A    between atoms: C_16  and  C_20
REMARK                            x       y       z     vdW  Elec       q    Type
REMARK                         _______ _______ _______ _____ _____    ______ ____
ROOT
ATOM      1  S   UNL     1      -0.061  -4.602  -0.092  0.00  0.00    +0.074 S 
ATOM      2  O   UNL     1      -0.983  -5.158   0.835  0.00  0.00    -0.150 OA
ATOM      3  O   UNL     1      -0.086  -4.923  -1.476  0.00  0.00    -0.150 OA
ENDROOT
BRANCH   1   8
ATOM      4  C   UNL     1      -0.630   1.398   0.291  0.00  0.00    +0.044 C 
ATOM      5  C   UNL     1      -0.487  -0.100   0.200  0.00  0.00    -0.049 A 
ATOM      6  C   UNL     1      -0.531  -0.724  -1.034  0.00  0.00    +0.005 A 
ATOM      7  C   UNL     1      -0.401  -2.097  -1.122  0.00  0.00    +0.031 A 
ATOM      8  C   UNL     1      -0.226  -2.851   0.022  0.00  0.00    +0.129 A 
ATOM      9  C   UNL     1      -0.181  -2.228   1.262  0.00  0.00    +0.052 A 
ATOM     10  C   UNL     1      -0.307  -0.847   1.347  0.00  0.00    +0.028 A 
BRANCH   9  11
ATOM     11  N   UNL     1      -0.005  -2.987   2.421  0.00  0.00    -0.356 N 
ATOM     12  H   UNL     1       0.180  -3.937   2.355  0.00  0.00    +0.142 HD
ATOM     13  H   UNL     1      -0.068  -2.564   3.292  0.00  0.00    +0.142 HD
ENDBRANCH   9  11
ENDBRANCH   1   8
BRANCH   1  14
ATOM     14  N   UNL     1       1.453  -4.987   0.457  0.00  0.00    -0.215 N 
ATOM     15  H   UNL     1       1.557  -5.481   1.285  0.00  0.00    +0.174 HD
BRANCH  14  16
ATOM     16  C   UNL     1       2.580  -4.602  -0.274  0.00  0.00    +0.062 A 
ATOM     17  C   UNL     1       2.588  -3.391  -0.954  0.00  0.00    +0.026 A 
ATOM     18  C   UNL     1       3.704  -3.013  -1.675  0.00  0.00    +0.005 A 
ATOM     19  C   UNL     1       4.813  -3.838  -1.720  0.00  0.00    -0.049 A 
ATOM     20  C   UNL     1       4.809  -5.045  -1.044  0.00  0.00    +0.020 A 
ATOM     21  C   UNL     1       3.698  -5.427  -0.316  0.00  0.00    +0.040 A 
ATOM     22 BR   UNL     1       3.695  -7.073   0.614  0.00  0.00    -0.048 Br
ATOM     23  C   UNL     1       6.028  -3.422  -2.508  0.00  0.00    +0.044 C 
ENDBRANCH  14  16
ENDBRANCH   1  14
TORSDOF 4
