REMARK  Name = ZINC09553823
REMARK  9 active torsions:
REMARK  status: ('A' for Active; 'I' for Inactive)
REMARK    1  A    between atoms: C_1  and  C_2
REMARK    2  A    between atoms: C_3  and  C_25
REMARK    3  A    between atoms: C_4  and  C_16
REMARK    4  A    between atoms: C_10  and  C_14
REMARK    5  A    between atoms: C_10  and  C_15
REMARK    6  A    between atoms: C_20  and  N_22
REMARK    7  A    between atoms: C_25  and  O_27
REMARK    8  A    between atoms: O_27  and  C_28
REMARK    9  A    between atoms: C_28  and  C_29
REMARK                            x       y       z     vdW  Elec       q    Type
REMARK                         _______ _______ _______ _____ _____    ______ ____
ROOT
ATOM      1  C   UNL     1       4.313   3.217   3.583  0.00  0.00    +0.061 C 
ATOM      2  C   UNL     1       3.575   2.074   2.936  0.00  0.00    +0.031 C 
ATOM      3  C   UNL     1       3.405   0.923   3.609  0.00  0.00    +0.154 C 
ATOM      4  C   UNL     1       2.683  -0.240   2.993  0.00  0.00    +0.073 C 
ATOM      5  C   UNL     1       1.856   0.203   1.812  0.00  0.00    +0.025 C 
ATOM      6  C   UNL     1       2.096   1.385   1.207  0.00  0.00    +0.049 C 
ATOM      7  N   UNL     1       3.082   2.214   1.669  0.00  0.00    -0.260 NA
ATOM      8  C   UNL     1       1.288   1.824   0.011  0.00  0.00    +0.062 C 
ATOM      9  C   UNL     1      -0.133   1.260   0.119  0.00  0.00    -0.023 C 
ATOM     10  C   UNL     1      -0.043  -0.267   0.198  0.00  0.00    +0.086 C 
ATOM     11  C   UNL     1       0.831  -0.648   1.362  0.00  0.00    +0.162 C 
ATOM     12  O   UNL     1       0.647  -1.709   1.924  0.00  0.00    -0.292 OA
ATOM     13  C   UNL     1      -0.941   1.665  -1.115  0.00  0.00    +0.011 C 
ATOM     14  C   UNL     1      -0.809   1.801   1.381  0.00  0.00    +0.011 C 
ENDROOT
BRANCH   4  15
ATOM     15  C   UNL     1       3.688  -1.266   2.536  0.00  0.00    -0.037 A 
ATOM     16  C   UNL     1       4.622  -0.937   1.572  0.00  0.00    +0.004 A 
ATOM     17  C   UNL     1       5.544  -1.878   1.153  0.00  0.00    +0.003 A 
ATOM     18  C   UNL     1       5.531  -3.149   1.698  0.00  0.00    +0.033 A 
ATOM     19  C   UNL     1       4.597  -3.477   2.663  0.00  0.00    +0.126 A 
ATOM     20  C   UNL     1       3.678  -2.535   3.085  0.00  0.00    +0.037 A 
BRANCH  19  21
ATOM     21  N   UNL     1       4.584  -4.838   3.247  0.00  0.00    +0.056 N 
ATOM     22  O   UNL     1       5.396  -5.667   2.877  0.00  0.00    -0.126 OA
ATOM     23  O   UNL     1       3.761  -5.127   4.097  0.00  0.00    -0.126 OA
ENDBRANCH  19  21
ENDBRANCH   4  15
BRANCH   3  24
ATOM     24  C   UNL     1       3.918   0.805   4.922  0.00  0.00    +0.317 C 
ATOM     25  O   UNL     1       4.597   1.698   5.393  0.00  0.00    -0.250 OA
BRANCH  24  26
ATOM     26  O   UNL     1       3.654  -0.298   5.653  0.00  0.00    -0.462 OA
BRANCH  26  27
ATOM     27  C   UNL     1       4.204  -0.351   6.971  0.00  0.00    +0.263 C 
BRANCH  27  28
ATOM     28  C   UNL     1       3.801  -1.666   7.640  0.00  0.00    +0.156 C 
ATOM     29  C   UNL     1       4.312  -1.707   9.097  0.00  0.00    +0.037 C 
ATOM     30  C   UNL     1       4.727  -3.180   9.309  0.00  0.00    +0.031 C 
ATOM     31  C   UNL     1       4.417  -3.856   7.954  0.00  0.00    +0.160 C 
ATOM     32  O   UNL     1       4.448  -2.781   6.988  0.00  0.00    -0.373 OA
ENDBRANCH  27  28
ENDBRANCH  26  27
ENDBRANCH  24  26
ENDBRANCH   3  24
TORSDOF 6
