REMARK  Name = ZINC09599731
REMARK  10 active torsions:
REMARK  status: ('A' for Active; 'I' for Inactive)
REMARK    1  A    between atoms: C_1  and  C_2
REMARK    2  A    between atoms: C_2  and  N_3
REMARK    3  A    between atoms: N_3  and  C_4
REMARK    4  A    between atoms: N_3  and  S_11
REMARK    5  A    between atoms: C_4  and  C_5
REMARK    6  A    between atoms: S_11  and  C_14
REMARK    7  A    between atoms: C_17  and  C_20
REMARK    8  A    between atoms: N_22  and  C_23
REMARK    9  A    between atoms: C_24  and  C_32
REMARK   10  A    between atoms: N_34  and  C_35
REMARK                            x       y       z     vdW  Elec       q    Type
REMARK                         _______ _______ _______ _____ _____    ______ ____
ROOT
ATOM      1  C   UNL     1      -2.084   0.698   9.928  0.00  0.00    +0.106 A 
ATOM      2  C   UNL     1      -2.876   1.750   9.503  0.00  0.00    +0.029 A 
ATOM      3  C   UNL     1      -2.874   2.127   8.176  0.00  0.00    +0.015 A 
ATOM      4  C   UNL     1      -2.071   1.443   7.261  0.00  0.00    +0.037 A 
ATOM      5  C   UNL     1      -1.278   0.380   7.695  0.00  0.00    +0.015 A 
ATOM      6  C   UNL     1      -1.285   0.017   9.026  0.00  0.00    +0.029 A 
ENDROOT
BRANCH   4   7
ATOM      7  C   UNL     1      -2.065   1.841   5.837  0.00  0.00    +0.249 C 
ATOM      8  O   UNL     1      -2.760   2.764   5.461  0.00  0.00    -0.270 OA
ATOM      9  N   UNL     1      -1.289   1.179   4.956  0.00  0.00    -0.275 N 
ATOM     10  H   UNL     1      -0.734   0.443   5.257  0.00  0.00    +0.156 HD
BRANCH   9  11
ATOM     11  C   UNL     1      -1.283   1.552   3.622  0.00  0.00    +0.085 A 
ATOM     12  C   UNL     1      -0.558   0.999   2.575  0.00  0.00    +0.069 A 
ATOM     13  C   UNL     1      -0.732   1.580   1.257  0.00  0.00    -0.023 A 
ATOM     14  C   UNL     1      -1.601   2.615   1.194  0.00  0.00    -0.004 A 
ATOM     15  S   UNL     1      -2.179   2.821   2.854  0.00  0.00    -0.077 S 
ATOM     16  C   UNL     1      -1.979   3.405  -0.021  0.00  0.00    +0.043 C 
ATOM     17  C   UNL     1      -0.956   3.111  -1.127  0.00  0.00    +0.005 C 
ATOM     18  C   UNL     1      -0.758   1.595  -1.227  0.00  0.00    +0.005 C 
ATOM     19  C   UNL     1      -0.013   1.086   0.008  0.00  0.00    +0.037 C 
BRANCH  12  20
ATOM     20  C   UNL     1       0.351  -0.131   2.793  0.00  0.00    +0.246 C 
ATOM     21  O   UNL     1      -0.060  -1.272   2.693  0.00  0.00    -0.270 OA
ATOM     22  N   UNL     1       1.643   0.095   3.104  0.00  0.00    -0.314 N 
ATOM     23  C   UNL     1       2.552  -1.033   3.322  0.00  0.00    +0.128 C 
ATOM     24  H   UNL     1       1.971   1.004   3.184  0.00  0.00    +0.149 HD
ENDBRANCH  12  20
ENDBRANCH   9  11
ENDBRANCH   4   7
BRANCH   1  25
ATOM     25  S   UNL     1      -2.091   0.225  11.625  0.00  0.00    +0.061 S 
ATOM     26  O   UNL     1      -0.855  -0.433  11.868  0.00  0.00    -0.153 OA
ATOM     27  O   UNL     1      -2.505   1.366  12.363  0.00  0.00    -0.153 OA
BRANCH  25  28
ATOM     28  N   UNL     1      -3.278  -0.915  11.810  0.00  0.00    -0.173 NA
BRANCH  28  30
ATOM     29  C   UNL     1      -5.468  -0.382  10.861  0.00  0.00    +0.022 C 
ATOM     30  C   UNL     1      -4.644  -0.503  12.144  0.00  0.00    +0.106 C 
ENDBRANCH  28  30
BRANCH  28  31
ATOM     31  C   UNL     1      -2.962  -2.336  11.640  0.00  0.00    +0.144 C 
BRANCH  31  32
ATOM     32  C   UNL     1      -2.664  -2.949  12.984  0.00  0.00    -0.032 A 
ATOM     33  C   UNL     1      -1.369  -2.962  13.465  0.00  0.00    +0.005 A 
ATOM     34  C   UNL     1      -1.096  -3.519  14.701  0.00  0.00    +0.000 A 
ATOM     35  C   UNL     1      -2.118  -4.074  15.449  0.00  0.00    +0.000 A 
ATOM     36  C   UNL     1      -3.412  -4.066  14.965  0.00  0.00    +0.000 A 
ATOM     37  C   UNL     1      -3.686  -3.503  13.732  0.00  0.00    +0.005 A 
ENDBRANCH  31  32
ENDBRANCH  28  31
ENDBRANCH  25  28
ENDBRANCH   1  25
TORSDOF 8
