REMARK  Name = ZINC04519279
REMARK  11 active torsions:
REMARK  status: ('A' for Active; 'I' for Inactive)
REMARK    1  A    between atoms: C_1  and  N_47
REMARK    2  A    between atoms: C_2  and  N_47
REMARK    3  A    between atoms: C_3  and  C_4
REMARK    4  A    between atoms: C_3  and  N_47
REMARK    5  A    between atoms: C_4  and  N_5
REMARK    6  A    between atoms: C_6  and  C_8
REMARK    7  A    between atoms: N_10  and  C_11
REMARK    8  A    between atoms: C_11  and  C_12
REMARK    9  A    between atoms: C_12  and  C_14
REMARK   10  A    between atoms: C_12  and  S_19
REMARK   11  A    between atoms: S_19  and  C_22
REMARK                            x       y       z     vdW  Elec       q    Type
REMARK                         _______ _______ _______ _____ _____    ______ ____
ROOT
ATOM      1  C   UNL     1      -4.063   5.505   1.948  0.00  0.00    +0.139 C 
ENDROOT
BRANCH   1   4
ATOM      2  C   UNL     1      -6.411   5.622   1.305  0.00  0.00    +0.299 C 
ATOM      3  O   UNL     1      -6.471   6.712   1.835  0.00  0.00    -0.265 OA
ATOM      4  N   UNL     1      -5.251   4.935   1.307  0.00  0.00    -0.305 N 
ATOM      5  H   UNL     1      -5.203   4.064   0.884  0.00  0.00    +0.149 HD
BRANCH   2   7
ATOM      6  N   UNL     1      -8.782   5.728   0.650  0.00  0.00    -0.309 N 
ATOM      7  C   UNL     1      -7.623   5.041   0.652  0.00  0.00    +0.299 C 
ATOM      8  O   UNL     1      -7.562   3.951   0.122  0.00  0.00    -0.265 OA
ATOM      9  H   UNL     1      -8.831   6.599   1.073  0.00  0.00    +0.149 HD
BRANCH   6  10
ATOM     10  C   UNL     1      -9.970   5.158   0.009  0.00  0.00    +0.086 C 
BRANCH  10  11
ATOM     11  C   UNL     1     -11.142   6.132   0.149  0.00  0.00    -0.061 C 
BRANCH  11  14
ATOM     12  C   UNL     1     -13.531   6.351  -0.179  0.00  0.00    -0.097 C 
ATOM     13  C   UNL     1     -12.144   5.447  -1.946  0.00  0.00    -0.097 C 
ATOM     14  N   UNL     1     -12.337   5.535  -0.483  0.00  0.00    +0.377 N 
ATOM     15  H   UNL     1     -12.475   4.589  -0.108  0.00  0.00    -0.083 HD
ENDBRANCH  11  14
ENDBRANCH  10  11
ENDBRANCH   6  10
ENDBRANCH   2   7
ENDBRANCH   1   4
BRANCH   1  16
ATOM     16  C   UNL     1      -2.892   4.531   1.808  0.00  0.00    +0.219 C 
BRANCH  16  17
ATOM     17  C   UNL     1      -1.670   5.117   2.468  0.00  0.00    +0.131 A 
ATOM     18  C   UNL     1      -0.989   4.570   3.490  0.00  0.00    +0.047 A 
ATOM     19  C   UNL     1       0.077   5.449   3.790  0.00  0.00    +0.041 A 
ATOM     20  C   UNL     1      -0.016   6.481   2.932  0.00  0.00    +0.195 A 
ATOM     21  O   UNL     1      -1.073   6.271   2.130  0.00  0.00    -0.466 OA
ENDBRANCH  16  17
BRANCH  16  22
ATOM     22  S   UNL     1      -2.551   4.243   0.050  0.00  0.00    +0.014 S 
ATOM     23  O   UNL     1      -2.046   5.427  -0.551  0.00  0.00    -0.168 OA
ATOM     24  O   UNL     1      -3.625   3.529  -0.546  0.00  0.00    -0.168 OA
BRANCH  22  25
ATOM     25  C   UNL     1      -1.196   3.116   0.030  0.00  0.00    +0.126 A 
ATOM     26  C   UNL     1      -1.213   1.761   0.017  0.00  0.00    +0.035 A 
ATOM     27  C   UNL     1      -0.013   1.076   0.008  0.00  0.00    +0.009 A 
ATOM     28  C   UNL     1       1.146   1.780   0.001  0.00  0.00    +0.047 A 
ATOM     29  S   UNL     1       0.555   3.464   0.015  0.00  0.00    -0.078 S 
ENDBRANCH  22  25
ENDBRANCH  16  22
ENDBRANCH   1  16
TORSDOF 9
