REMARK  Name = ZINC16975966
REMARK  6 active torsions:
REMARK  status: ('A' for Active; 'I' for Inactive)
REMARK    1  A    between atoms: C_1  and  C_2
REMARK    2  A    between atoms: C_5  and  C_7
REMARK    3  A    between atoms: C_7  and  C_9
REMARK    4  A    between atoms: C_10  and  C_11
REMARK    5  A    between atoms: C_14  and  O_20
REMARK    6  A    between atoms: C_15  and  N_17
REMARK                            x       y       z     vdW  Elec       q    Type
REMARK                         _______ _______ _______ _____ _____    ______ ____
ROOT
ATOM      1  C   UNL     1       5.399  -3.837  -0.043  0.00  0.00    -0.023 A 
ATOM      2  C   UNL     1       5.913  -2.535  -0.033  0.00  0.00    +0.011 A 
ATOM      3  C   UNL     1       7.275  -2.335  -0.038  0.00  0.00    +0.048 A 
ATOM      4  C   UNL     1       8.140  -3.424  -0.054  0.00  0.00    +0.147 A 
ATOM      5  C   UNL     1       7.634  -4.719  -0.064  0.00  0.00    +0.168 A 
ATOM      6  C   UNL     1       6.274  -4.930  -0.053  0.00  0.00    +0.044 A 
ENDROOT
BRANCH   5   7
ATOM      7  N   UNL     1       8.560  -5.874  -0.081  0.00  0.00    +0.060 N 
ATOM      8  O   UNL     1       8.122  -7.000  -0.089  0.00  0.00    -0.126 OA
ATOM      9  O   UNL     1       9.755  -5.690  -0.086  0.00  0.00    -0.126 OA
ENDBRANCH   5   7
BRANCH   1  11
ATOM     10  C   UNL     1       3.104  -2.999  -0.028  0.00  0.00    +0.055 C 
ATOM     11  C   UNL     1       3.946  -4.056  -0.037  0.00  0.00    +0.012 C 
BRANCH  10  12
ATOM     12  C   UNL     1       1.657  -3.217  -0.023  0.00  0.00    +0.221 C 
ATOM     13  O   UNL     1       1.211  -4.352  -0.026  0.00  0.00    -0.284 OA
BRANCH  12  18
ATOM     14  C   UNL     1      -0.018   1.503   0.010  0.00  0.00    +0.086 C 
ATOM     15  C   UNL     1       0.002  -0.004   0.002  0.00  0.00    +0.103 A 
ATOM     16  C   UNL     1      -1.086  -0.806   0.003  0.00  0.00    +0.045 A 
ATOM     17  C   UNL     1      -0.623  -2.131  -0.007  0.00  0.00    +0.053 A 
ATOM     18  C   UNL     1       0.742  -2.070  -0.013  0.00  0.00    +0.174 A 
ATOM     19  O   UNL     1       1.102  -0.769  -0.013  0.00  0.00    -0.457 OA
ENDBRANCH  12  18
ENDBRANCH  10  12
ENDBRANCH   1  11
BRANCH   4  20
ATOM     20  O   UNL     1       9.482  -3.222  -0.059  0.00  0.00    -0.504 OA
ATOM     21  H   UNL     1       9.876  -3.172   0.822  0.00  0.00    +0.292 HD
ENDBRANCH   4  20
TORSDOF 5
