REMARK  Name = ZINC09019426
REMARK  8 active torsions:
REMARK  status: ('A' for Active; 'I' for Inactive)
REMARK    1  A    between atoms: C_4  and  N_31
REMARK    2  A    between atoms: C_5  and  C_7
REMARK    3  A    between atoms: C_9  and  C_22
REMARK    4  A    between atoms: C_10  and  O_21
REMARK    5  A    between atoms: N_13  and  C_14
REMARK    6  A    between atoms: C_14  and  C_15
REMARK    7  A    between atoms: C_15  and  N_55
REMARK    8  A    between atoms: C_22  and  C_24
REMARK                            x       y       z     vdW  Elec       q    Type
REMARK                         _______ _______ _______ _____ _____    ______ ____
ROOT
ATOM      1  C   UNL     1      -0.064   4.080   0.233  0.00  0.00    +0.147 C 
ATOM      2  C   UNL     1       0.424   4.528  -1.125  0.00  0.00    +0.071 C 
ATOM      3  C   UNL     1       0.495   5.879  -1.090  0.00  0.00    +0.188 C 
ATOM      4  C   UNL     1       0.072   6.352   0.245  0.00  0.00    +0.282 C 
ATOM      5  O   UNL     1       0.027   7.516   0.591  0.00  0.00    -0.267 OA
ATOM      6  N   UNL     1      -0.256   5.303   1.022  0.00  0.00    -0.285 N 
ENDROOT
BRANCH   1  11
ATOM      7  C   UNL     1      -3.764   3.350   0.066  0.00  0.00    +0.000 A 
ATOM      8  C   UNL     1      -3.766   1.985  -0.154  0.00  0.00    +0.002 A 
ATOM      9  C   UNL     1      -2.570   1.299  -0.254  0.00  0.00    +0.033 A 
ATOM     10  C   UNL     1      -1.372   1.977  -0.124  0.00  0.00    +0.131 A 
ATOM     11  C   UNL     1      -1.370   3.341   0.097  0.00  0.00    +0.008 A 
ATOM     12  C   UNL     1      -2.566   4.028   0.191  0.00  0.00    +0.008 A 
BRANCH  10  13
ATOM     13  N   UNL     1      -0.091   1.242  -0.226  0.00  0.00    +0.057 N 
ATOM     14  O   UNL     1      -0.091   0.027  -0.318  0.00  0.00    -0.126 OA
ATOM     15  O   UNL     1       0.963   1.851  -0.222  0.00  0.00    -0.126 OA
ENDBRANCH  10  13
ENDBRANCH   1  11
BRANCH   3  16
ATOM     16  O   UNL     1       0.892   6.670  -2.112  0.00  0.00    -0.502 OA
ATOM     17  H   UNL     1       0.854   7.628  -1.827  0.00  0.00    +0.292 HD
ENDBRANCH   3  16
BRANCH   2  18
ATOM     18  C   UNL     1       0.757   3.664  -2.263  0.00  0.00    +0.195 C 
ATOM     19  O   UNL     1      -0.130   3.197  -2.952  0.00  0.00    -0.287 OA
BRANCH  18  20
ATOM     20  C   UNL     1       2.171   3.362  -2.572  0.00  0.00    +0.022 A 
ATOM     21  C   UNL     1       3.194   3.983  -1.853  0.00  0.00    +0.013 A 
ATOM     22  C   UNL     1       4.511   3.693  -2.143  0.00  0.00    +0.016 A 
ATOM     23  C   UNL     1       4.819   2.795  -3.152  0.00  0.00    +0.018 A 
ATOM     24  C   UNL     1       3.808   2.179  -3.872  0.00  0.00    +0.016 A 
ATOM     25  C   UNL     1       2.488   2.457  -3.588  0.00  0.00    +0.013 A 
ATOM     26 BR   UNL     1       6.627   2.408  -3.548  0.00  0.00    -0.050 Br
ENDBRANCH  18  20
ENDBRANCH   2  18
BRANCH   6  27
ATOM     27  C   UNL     1      -0.722   5.369   2.409  0.00  0.00    +0.090 C 
BRANCH  27  28
ATOM     28  C   UNL     1       0.480   5.309   3.354  0.00  0.00    -0.059 C 
BRANCH  28  34
ATOM     29  C   UNL     1      -0.588   6.685   5.037  0.00  0.00    -0.050 C 
ATOM     30  C   UNL     1      -1.114   6.690   6.475  0.00  0.00    +0.141 C 
ATOM     31  O   UNL     1      -0.044   6.374   7.370  0.00  0.00    -0.383 OA
ATOM     32  C   UNL     1       0.563   5.104   7.114  0.00  0.00    +0.141 C 
ATOM     33  C   UNL     1       1.106   5.083   5.683  0.00  0.00    -0.050 C 
ATOM     34  N   UNL     1      -0.007   5.357   4.750  0.00  0.00    +0.384 N 
ATOM     35  H   UNL     1      -0.732   4.641   4.875  0.00  0.00    -0.082 HD
ENDBRANCH  28  34
ENDBRANCH  27  28
ENDBRANCH   6  27
TORSDOF 8
