REMARK  Name = ZINC41586668
REMARK  13 active torsions:
REMARK  status: ('A' for Active; 'I' for Inactive)
REMARK    1  A    between atoms: C_1  and  C_2
REMARK    2  A    between atoms: C_2  and  O_3
REMARK    3  A    between atoms: O_3  and  C_4
REMARK    4  A    between atoms: C_4  and  C_6
REMARK    5  A    between atoms: N_11  and  C_13
REMARK    6  A    between atoms: C_13  and  C_14
REMARK    7  A    between atoms: C_15  and  O_37
REMARK    8  A    between atoms: C_21  and  C_36
REMARK    9  A    between atoms: C_22  and  O_25
REMARK   10  A    between atoms: O_25  and  C_26
REMARK   11  A    between atoms: C_29  and  C_32
REMARK   12  A    between atoms: C_32  and  O_34
REMARK   13  A    between atoms: O_34  and  C_35
REMARK                            x       y       z     vdW  Elec       q    Type
REMARK                         _______ _______ _______ _____ _____    ______ ____
ROOT
ATOM      1  C   UNL     1      -5.469  -6.620   0.254  0.00  0.00    +0.020 A 
ATOM      2  C   UNL     1      -6.058  -6.774   1.499  0.00  0.00    +0.122 A 
ATOM      3  C   UNL     1      -7.359  -7.258   1.612  0.00  0.00    +0.046 A 
ATOM      4  C   UNL     1      -8.073  -7.588   0.496  0.00  0.00    +0.019 A 
ATOM      5  C   UNL     1      -7.495  -7.438  -0.765  0.00  0.00    +0.068 A 
ATOM      6  C   UNL     1      -6.183  -6.945  -0.890  0.00  0.00    +0.144 A 
ATOM      7  O   UNL     1      -5.636  -6.800  -2.114  0.00  0.00    -0.456 OA
ATOM      8  C   UNL     1      -6.299  -7.105  -3.237  0.00  0.00    +0.148 A 
ATOM      9  C   UNL     1      -7.561  -7.579  -3.233  0.00  0.00    +0.213 A 
ATOM     10  C   UNL     1      -8.231  -7.783  -1.994  0.00  0.00    +0.235 A 
ATOM     11  O   UNL     1      -9.372  -8.211  -1.951  0.00  0.00    -0.283 OA
ATOM     12  C   UNL     1      -5.604  -6.909  -4.560  0.00  0.00    +0.090 C 
ENDROOT
BRANCH   2  13
ATOM     13  O   UNL     1      -5.360  -6.450   2.617  0.00  0.00    -0.506 OA
ATOM     14  H   UNL     1      -5.469  -5.531   2.897  0.00  0.00    +0.292 HD
ENDBRANCH   2  13
BRANCH   1  15
ATOM     15  C   UNL     1      -4.060  -6.096   0.143  0.00  0.00    -0.036 C 
BRANCH  15  20
ATOM     16  C   UNL     1      -2.743  -2.583   0.043  0.00  0.00    +0.081 C 
ATOM     17  C   UNL     1      -3.450  -2.109  -1.230  0.00  0.00    +0.011 C 
ATOM     18  C   UNL     1      -4.855  -2.715  -1.279  0.00  0.00    -0.018 C 
ATOM     19  C   UNL     1      -4.750  -4.240  -1.208  0.00  0.00    -0.078 C 
ATOM     20  N   UNL     1      -4.089  -4.631   0.044  0.00  0.00    +0.383 N 
ATOM     21  C   UNL     1      -2.716  -4.113   0.066  0.00  0.00    -0.064 C 
ATOM     22  H   UNL     1      -4.603  -4.252   0.826  0.00  0.00    -0.081 HD
BRANCH  16  23
ATOM     23  C   UNL     1      -1.332  -2.054   0.063  0.00  0.00    +0.308 C 
ATOM     24  O   UNL     1      -0.400  -2.822   0.094  0.00  0.00    -0.251 OA
BRANCH  23  25
ATOM     25  O   UNL     1      -1.111  -0.731   0.046  0.00  0.00    -0.465 OA
BRANCH  25  27
ATOM     26  C   UNL     1       0.303   1.229   0.042  0.00  0.00    +0.048 C 
ATOM     27  C   UNL     1       0.251  -0.300   0.066  0.00  0.00    +0.229 C 
ENDBRANCH  25  27
ENDBRANCH  23  25
ENDBRANCH  16  23
ENDBRANCH  15  20
ENDBRANCH   1  15
BRANCH   9  28
ATOM     28  O   UNL     1      -8.186  -7.871  -4.407  0.00  0.00    -0.449 OA
BRANCH  28  29
ATOM     29  C   UNL     1      -9.249  -7.110  -4.769  0.00  0.00    +0.129 A 
ATOM     30  C   UNL     1      -9.592  -5.994  -4.013  0.00  0.00    +0.047 A 
ATOM     31  C   UNL     1     -10.670  -5.219  -4.377  0.00  0.00    +0.018 A 
ATOM     32  C   UNL     1     -11.419  -5.554  -5.509  0.00  0.00    +0.059 A 
ATOM     33  C   UNL     1     -11.071  -6.677  -6.266  0.00  0.00    +0.018 A 
ATOM     34  C   UNL     1      -9.988  -7.443  -5.898  0.00  0.00    +0.047 A 
BRANCH  32  35
ATOM     35  C   UNL     1     -12.575  -4.727  -5.902  0.00  0.00    +0.339 C 
ATOM     36  O   UNL     1     -12.877  -3.753  -5.242  0.00  0.00    -0.245 OA
BRANCH  35  37
ATOM     37  O   UNL     1     -13.296  -5.052  -6.993  0.00  0.00    -0.464 OA
ATOM     38  C   UNL     1     -14.402  -4.207  -7.316  0.00  0.00    +0.280 C 
ENDBRANCH  35  37
ENDBRANCH  32  35
ENDBRANCH  28  29
ENDBRANCH   9  28
TORSDOF 10
