REMARK  Name = ZINC22304697
REMARK  9 active torsions:
REMARK  status: ('A' for Active; 'I' for Inactive)
REMARK    1  A    between atoms: C_1  and  C_2
REMARK    2  A    between atoms: N_5  and  C_11
REMARK    3  A    between atoms: C_7  and  C_10
REMARK    4  A    between atoms: C_11  and  C_12
REMARK    5  A    between atoms: C_18  and  C_20
REMARK    6  A    between atoms: C_23  and  S_26
REMARK    7  A    between atoms: S_26  and  N_29
REMARK    8  A    between atoms: N_29  and  C_30
REMARK    9  A    between atoms: C_30  and  C_31
REMARK                            x       y       z     vdW  Elec       q    Type
REMARK                         _______ _______ _______ _____ _____    ______ ____
ROOT
ATOM      1  C   UNL     1      -2.696  -4.052  -0.132  0.00  0.00    +0.064 A 
ATOM      2  C   UNL     1      -2.750  -4.892   0.931  0.00  0.00    +0.073 A 
ATOM      3  S   UNL     1      -2.624  -6.473   0.112  0.00  0.00    -0.060 S 
ATOM      4  C   UNL     1      -2.517  -5.909  -1.470  0.00  0.00    +0.165 A 
ATOM      5  N   UNL     1      -2.583  -4.602  -1.326  0.00  0.00    -0.228 NA
ATOM      6  N   UNL     1      -2.394  -6.643  -2.642  0.00  0.00    -0.261 N 
ATOM      7  C   UNL     1      -2.347  -7.989  -2.592  0.00  0.00    +0.250 C 
ATOM      8  O   UNL     1      -2.413  -8.560  -1.521  0.00  0.00    -0.270 OA
ATOM      9  H   UNL     1      -2.342  -6.187  -3.497  0.00  0.00    +0.157 HD
ENDROOT
BRANCH   7  10
ATOM     10  C   UNL     1      -2.216  -8.771  -3.840  0.00  0.00    +0.037 A 
ATOM     11  C   UNL     1      -2.135  -8.118  -5.071  0.00  0.00    +0.015 A 
ATOM     12  C   UNL     1      -2.012  -8.854  -6.231  0.00  0.00    +0.029 A 
ATOM     13  C   UNL     1      -1.970 -10.236  -6.177  0.00  0.00    +0.105 A 
ATOM     14  C   UNL     1      -2.051 -10.889  -4.960  0.00  0.00    +0.029 A 
ATOM     15  C   UNL     1      -2.168 -10.165  -3.791  0.00  0.00    +0.015 A 
BRANCH  13  16
ATOM     16  S   UNL     1      -1.813 -11.167  -7.664  0.00  0.00    +0.059 S 
ATOM     17  O   UNL     1      -2.345 -12.457  -7.393  0.00  0.00    -0.153 OA
ATOM     18  O   UNL     1      -2.306 -10.345  -8.713  0.00  0.00    -0.153 OA
BRANCH  16  19
ATOM     19  N   UNL     1      -0.194 -11.373  -7.945  0.00  0.00    -0.178 NA
ATOM     20  H   UNL     1       0.217 -10.970  -8.726  0.00  0.00    +0.149 HD
BRANCH  19  21
ATOM     21  C   UNL     1       0.616 -12.163  -7.014  0.00  0.00    +0.194 C 
BRANCH  21  22
ATOM     22  C   UNL     1       1.902 -12.498  -7.647  0.00  0.00    -0.089 C 
ATOM     23  C   UNL     1       2.928 -12.766  -8.151  0.00  0.00    +0.005 C 
ENDBRANCH  21  22
ENDBRANCH  19  21
ENDBRANCH  16  19
ENDBRANCH  13  16
ENDBRANCH   7  10
BRANCH   1  24
ATOM     24  C   UNL     1      -2.768  -2.557   0.042  0.00  0.00    +0.140 C 
BRANCH  24  28
ATOM     25  C   UNL     1      -0.019   1.526   0.010  0.00  0.00    +0.039 C 
ATOM     26  C   UNL     1       0.002  -0.004   0.002  0.00  0.00    +0.130 C 
ATOM     27  C   UNL     1      -1.434  -0.535   0.015  0.00  0.00    +0.116 C 
ATOM     28  N   UNL     1      -1.407  -2.003   0.085  0.00  0.00    -0.292 NA
ATOM     29  C   UNL     1      -0.692  -2.455   1.287  0.00  0.00    +0.116 C 
ATOM     30  C   UNL     1       0.736  -1.905   1.261  0.00  0.00    +0.130 C 
ATOM     31  O   UNL     1       0.692  -0.479   1.161  0.00  0.00    -0.371 OA
ATOM     32  C   UNL     1       1.461  -2.305   2.548  0.00  0.00    +0.039 C 
ENDBRANCH  24  28
ENDBRANCH   1  24
TORSDOF 7
