REMARK  Name = ZINC27534329
REMARK  6 active torsions:
REMARK  status: ('A' for Active; 'I' for Inactive)
REMARK    1  A    between atoms: C_9  and  C_11
REMARK    2  A    between atoms: N_13  and  C_24
REMARK    3  A    between atoms: C_20  and  C_22
REMARK    4  A    between atoms: C_24  and  C_25
REMARK    5  A    between atoms: C_25  and  C_27
REMARK    6  A    between atoms: C_30  and  N_33
REMARK                            x       y       z     vdW  Elec       q    Type
REMARK                         _______ _______ _______ _____ _____    ______ ____
ROOT
ATOM      1  C   UNL     1       1.679  -6.226   1.199  0.00  0.00    +0.013 C 
ATOM      2  C   UNL     1       2.238  -5.015   1.145  0.00  0.00    +0.083 C 
ATOM      3  N   UNL     1       2.334  -4.327  -0.043  0.00  0.00    -0.298 N 
ATOM      4  C   UNL     1       2.208  -5.012  -1.253  0.00  0.00    +0.039 A 
ATOM      5  C   UNL     1       2.659  -4.429  -2.431  0.00  0.00    +0.024 A 
ATOM      6  C   UNL     1       2.538  -5.109  -3.627  0.00  0.00    +0.002 A 
ATOM      7  C   UNL     1       1.968  -6.369  -3.650  0.00  0.00    +0.000 A 
ATOM      8  C   UNL     1       1.516  -6.950  -2.480  0.00  0.00    +0.007 A 
ATOM      9  C   UNL     1       1.632  -6.275  -1.279  0.00  0.00    -0.005 A 
ATOM     10  C   UNL     1       1.127  -6.913  -0.014  0.00  0.00    +0.156 C 
ENDROOT
BRANCH   1  19
ATOM     11  C   UNL     1       0.805 -10.124   6.144  0.00  0.00    +0.001 A 
ATOM     12  C   UNL     1       0.312 -10.705   4.977  0.00  0.00    +0.002 A 
ATOM     13  C   UNL     1       0.388 -10.054   3.784  0.00  0.00    +0.028 A 
ATOM     14  C   UNL     1       0.971  -8.776   3.721  0.00  0.00    +0.072 A 
ATOM     15  C   UNL     1       1.472  -8.188   4.910  0.00  0.00    +0.000 A 
ATOM     16  C   UNL     1       1.377  -8.888   6.122  0.00  0.00    +0.010 A 
ATOM     17  C   UNL     1       2.058  -6.906   4.850  0.00  0.00    +0.012 A 
ATOM     18  C   UNL     1       2.120  -6.279   3.643  0.00  0.00    +0.029 A 
ATOM     19  C   UNL     1       1.606  -6.914   2.497  0.00  0.00    +0.070 A 
ATOM     20  N   UNL     1       1.053  -8.115   2.563  0.00  0.00    -0.247 NA
ENDBRANCH   1  19
BRANCH  10  21
ATOM     21  C   UNL     1       1.534  -8.328   0.007  0.00  0.00    +0.075 C 
ATOM     22  N   UNL     1       1.848  -9.419   0.024  0.00  0.00    -0.196 NA
ENDBRANCH  10  21
BRANCH   3  23
ATOM     23  C   UNL     1       2.573  -2.882  -0.038  0.00  0.00    +0.190 C 
BRANCH  23  24
ATOM     24  C   UNL     1       1.254  -2.154  -0.021  0.00  0.00    +0.181 C 
ATOM     25  O   UNL     1       0.216  -2.781  -0.014  0.00  0.00    -0.290 OA
BRANCH  24  26
ATOM     26  C   UNL     1       1.225  -0.683  -0.013  0.00  0.00    +0.019 A 
ATOM     27  C   UNL     1       0.002  -0.004   0.002  0.00  0.00    +0.013 A 
ATOM     28  C   UNL     1      -0.017   1.375   0.010  0.00  0.00    +0.033 A 
ATOM     29  C   UNL     1       1.170   2.087   0.002  0.00  0.00    +0.126 A 
ATOM     30  C   UNL     1       2.384   1.422  -0.013  0.00  0.00    +0.033 A 
ATOM     31  C   UNL     1       2.420   0.043  -0.021  0.00  0.00    +0.013 A 
BRANCH  29  32
ATOM     32  N   UNL     1       1.141   3.566   0.010  0.00  0.00    +0.056 N 
ATOM     33  O   UNL     1       0.075   4.154   0.023  0.00  0.00    -0.126 OA
ATOM     34  O   UNL     1       2.184   4.196   0.003  0.00  0.00    -0.126 OA
ENDBRANCH  29  32
ENDBRANCH  24  26
ENDBRANCH  23  24
ENDBRANCH   3  23
TORSDOF 6
