REMARK  Name = ZINC10050187
REMARK  9 active torsions:
REMARK  status: ('A' for Active; 'I' for Inactive)
REMARK    1  A    between atoms: C_1  and  C_2
REMARK    2  A    between atoms: C_5  and  N_8
REMARK    3  A    between atoms: C_9  and  C_33
REMARK    4  A    between atoms: N_18  and  C_23
REMARK    5  A    between atoms: N_21  and  C_22
REMARK    6  A    between atoms: C_23  and  C_24
REMARK    7  A    between atoms: C_24  and  C_25
REMARK    8  A    between atoms: C_25  and  N_65
REMARK    9  A    between atoms: C_29  and  C_32
REMARK                            x       y       z     vdW  Elec       q    Type
REMARK                         _______ _______ _______ _____ _____    ______ ____
ROOT
ATOM      1  N   UNL     1      -4.666  -0.118  12.689  0.00  0.00    -0.283 N 
ATOM      2  C   UNL     1      -4.747  -1.376  12.119  0.00  0.00    +0.040 A 
ATOM      3  C   UNL     1      -3.932  -1.408  11.069  0.00  0.00    +0.116 A 
ATOM      4  N   UNL     1      -3.320  -0.172  10.952  0.00  0.00    -0.277 N 
ATOM      5  C   UNL     1      -3.774   0.620  11.951  0.00  0.00    +0.223 A 
ATOM      6  N   UNL     1      -3.200   1.810  11.861  0.00  0.00    -0.193 NA
ATOM      7  C   UNL     1      -2.370   1.836  10.822  0.00  0.00    +0.170 A 
ATOM      8  C   UNL     1      -2.420   0.582  10.214  0.00  0.00    +0.157 A 
ATOM      9  C   UNL     1      -1.628   0.339   9.080  0.00  0.00    +0.283 A 
ATOM     10  O   UNL     1      -1.655  -0.750   8.533  0.00  0.00    -0.265 OA
ATOM     11  N   UNL     1      -0.837   1.322   8.603  0.00  0.00    -0.259 N 
ATOM     12  C   UNL     1      -0.791   2.526   9.198  0.00  0.00    +0.333 A 
ATOM     13  O   UNL     1      -0.062   3.386   8.742  0.00  0.00    -0.246 OA
ATOM     14  N   UNL     1      -1.537   2.806  10.284  0.00  0.00    -0.279 N 
ATOM     15  C   UNL     1      -1.464   4.132  10.901  0.00  0.00    +0.155 C 
ATOM     16  C   UNL     1      -5.609  -2.512  12.605  0.00  0.00    +0.065 C 
ENDROOT
BRANCH   1  21
ATOM     17  C   UNL     1      -7.513   1.675  17.258  0.00  0.00    +0.044 C 
ATOM     18  C   UNL     1      -6.757   1.198  16.044  0.00  0.00    -0.050 A 
ATOM     19  C   UNL     1      -5.824   0.185  16.166  0.00  0.00    +0.005 A 
ATOM     20  C   UNL     1      -5.129  -0.253  15.056  0.00  0.00    +0.026 A 
ATOM     21  C   UNL     1      -5.369   0.324  13.816  0.00  0.00    +0.050 A 
ATOM     22  C   UNL     1      -6.303   1.345  13.698  0.00  0.00    +0.026 A 
ATOM     23  C   UNL     1      -6.998   1.776  14.811  0.00  0.00    +0.005 A 
ENDBRANCH   1  21
BRANCH  11  24
ATOM     24  C   UNL     1      -0.010   1.071   7.420  0.00  0.00    +0.128 C 
BRANCH  24  25
ATOM     25  C   UNL     1      -0.797   1.437   6.160  0.00  0.00    +0.003 C 
BRANCH  25  26
ATOM     26  C   UNL     1       0.067   1.175   4.925  0.00  0.00    -0.077 C 
BRANCH  26  33
ATOM     27  C   UNL     1      -2.055   0.990   3.774  0.00  0.00    -0.079 C 
ATOM     28  C   UNL     1      -2.855   1.495   2.571  0.00  0.00    -0.018 C 
ATOM     29  C   UNL     1      -2.165   1.048   1.279  0.00  0.00    -0.001 C 
ATOM     30  C   UNL     1      -0.729   1.579   1.267  0.00  0.00    -0.031 C 
ATOM     31  C   UNL     1       0.010   1.071   2.507  0.00  0.00    -0.076 C 
ATOM     32  C   UNL     1      -0.013   1.086   0.008  0.00  0.00    +0.005 C 
ATOM     33  N   UNL     1      -0.691   1.557   3.715  0.00  0.00    +0.380 N 
ATOM     34  H   UNL     1      -0.757   2.580   3.673  0.00  0.00    -0.082 HD
ENDBRANCH  26  33
ENDBRANCH  25  26
ENDBRANCH  24  25
ENDBRANCH  11  24
TORSDOF 5
