REMARK  Name = ZINC38700527
REMARK  12 active torsions:
REMARK  status: ('A' for Active; 'I' for Inactive)
REMARK    1  A    between atoms: C_1  and  C_2
REMARK    2  A    between atoms: C_2  and  O_3
REMARK    3  A    between atoms: O_3  and  C_4
REMARK    4  A    between atoms: C_7  and  C_13
REMARK    5  A    between atoms: C_9  and  O_10
REMARK    6  A    between atoms: O_10  and  C_11
REMARK    7  A    between atoms: C_11  and  C_12
REMARK    8  A    between atoms: C_18  and  O_27
REMARK    9  A    between atoms: C_22  and  N_26
REMARK   10  A    between atoms: C_23  and  C_24
REMARK   11  A    between atoms: O_27  and  C_28
REMARK   12  A    between atoms: C_28  and  C_30
REMARK                            x       y       z     vdW  Elec       q    Type
REMARK                         _______ _______ _______ _____ _____    ______ ____
ROOT
ATOM      1  C   UNL     1      -1.962  -6.138  -0.048  0.00  0.00    +0.098 C 
ATOM      2  C   UNL     1      -1.324  -6.710   1.191  0.00  0.00    +0.008 A 
ATOM      3  C   UNL     1      -1.925  -6.509   2.421  0.00  0.00    +0.012 A 
ATOM      4  C   UNL     1      -1.354  -7.026   3.567  0.00  0.00    +0.047 A 
ATOM      5  C   UNL     1      -0.173  -7.751   3.487  0.00  0.00    +0.135 A 
ATOM      6  C   UNL     1       0.430  -7.954   2.257  0.00  0.00    +0.093 A 
ATOM      7  C   UNL     1      -0.145  -7.433   1.105  0.00  0.00    +0.138 A 
ATOM      8  O   UNL     1       0.459  -7.641  -0.091  0.00  0.00    -0.441 OA
ATOM      9  C   UNL     1      -0.242  -7.499  -1.228  0.00  0.00    +0.199 C 
ATOM     10  C   UNL     1      -1.396  -6.798  -1.273  0.00  0.00    +0.098 C 
ENDROOT
BRANCH   1  14
ATOM     11  C   UNL     1      -1.190  -1.935  -0.223  0.00  0.00    +0.162 A 
ATOM     12  C   UNL     1      -0.138  -2.836  -0.220  0.00  0.00    +0.050 A 
ATOM     13  C   UNL     1      -0.391  -4.194  -0.163  0.00  0.00    +0.008 A 
ATOM     14  C   UNL     1      -1.692  -4.657  -0.109  0.00  0.00    -0.031 A 
ATOM     15  C   UNL     1      -2.747  -3.763  -0.112  0.00  0.00    +0.054 A 
ATOM     16  C   UNL     1      -2.501  -2.400  -0.163  0.00  0.00    +0.162 A 
BRANCH  11  17
ATOM     17  O   UNL     1      -0.944  -0.599  -0.278  0.00  0.00    -0.489 OA
BRANCH  17  19
ATOM     18  C   UNL     1       0.504   1.333  -0.395  0.00  0.00    +0.048 C 
ATOM     19  C   UNL     1       0.426  -0.194  -0.338  0.00  0.00    +0.226 C 
ENDBRANCH  17  19
ENDBRANCH  11  17
BRANCH  16  20
ATOM     20  O   UNL     1      -3.537  -1.520  -0.159  0.00  0.00    -0.489 OA
BRANCH  20  21
ATOM     21  C   UNL     1      -4.855  -2.069  -0.096  0.00  0.00    +0.226 C 
ATOM     22  C   UNL     1      -5.881  -0.934  -0.102  0.00  0.00    +0.048 C 
ENDBRANCH  20  21
ENDBRANCH  16  20
ENDBRANCH   1  14
BRANCH   9  23
ATOM     23  N   UNL     1       0.229  -8.083  -2.378  0.00  0.00    -0.328 N 
ATOM     24  H   UNL     1       1.057  -8.588  -2.361  0.00  0.00    +0.145 HD
ATOM     25  H   UNL     1      -0.265  -7.990  -3.207  0.00  0.00    +0.145 HD
ENDBRANCH   9  23
BRANCH  10  26
ATOM     26  C   UNL     1      -2.095  -6.685  -2.518  0.00  0.00    +0.101 C 
ATOM     27  N   UNL     1      -2.649  -6.595  -3.505  0.00  0.00    -0.191 NA
ENDBRANCH  10  26
BRANCH   5  28
ATOM     28  O   UNL     1       0.390  -8.261   4.614  0.00  0.00    -0.423 OA
BRANCH  28  29
ATOM     29  C   UNL     1       1.546  -7.726   5.039  0.00  0.00    +0.357 C 
ATOM     30  O   UNL     1       2.000  -6.753   4.485  0.00  0.00    -0.246 OA
BRANCH  29  31
ATOM     31  C   UNL     1       2.276  -8.338   6.206  0.00  0.00    +0.319 C 
ATOM     32  C   UNL     1       1.436  -8.183   7.481  0.00  0.00    +0.285 C 
ATOM     33  O   UNL     1       2.163  -8.762   8.570  0.00  0.00    -0.484 OA
ATOM     34  C   UNL     1       3.481  -8.434   8.668  0.00  0.00    +0.162 A 
ATOM     35  C   UNL     1       4.149  -8.649   9.864  0.00  0.00    +0.049 A 
ATOM     36  C   UNL     1       5.487  -8.325   9.978  0.00  0.00    +0.004 A 
ATOM     37  C   UNL     1       6.164  -7.786   8.900  0.00  0.00    +0.004 A 
ATOM     38  C   UNL     1       5.504  -7.567   7.706  0.00  0.00    +0.049 A 
ATOM     39  C   UNL     1       4.160  -7.890   7.585  0.00  0.00    +0.163 A 
ATOM     40  O   UNL     1       3.522  -7.662   6.404  0.00  0.00    -0.470 OA
ENDBRANCH  29  31
ENDBRANCH  28  29
ENDBRANCH   5  28
TORSDOF 10
