REMARK  Name = ZINC63162961
REMARK  6 active torsions:
REMARK  status: ('A' for Active; 'I' for Inactive)
REMARK    1  A    between atoms: C_6  and  C_10
REMARK    2  A    between atoms: C_10  and  S_11
REMARK    3  A    between atoms: S_11  and  C_12
REMARK    4  A    between atoms: C_16  and  C_25
REMARK    5  A    between atoms: N_18  and  C_19
REMARK    6  A    between atoms: C_19  and  C_20
REMARK                            x       y       z     vdW  Elec       q    Type
REMARK                         _______ _______ _______ _____ _____    ______ ____
ROOT
ATOM      1  C   UNL     1       3.546  -2.895  -4.159  0.00  0.00    +0.200 C 
ATOM      2  N   UNL     1       3.129  -4.317  -4.043  0.00  0.00    -0.229 NA
ATOM      3  N   UNL     1       4.130  -5.057  -4.815  0.00  0.00    -0.233 NA
ATOM      4  C   UNL     1       5.345  -4.217  -4.858  0.00  0.00    +0.172 C 
ATOM      5  N   UNL     1       5.030  -2.977  -4.108  0.00  0.00    -0.250 NA
ATOM      6  H   UNL     1       2.204  -4.455  -4.423  0.00  0.00    +0.143 HD
ATOM      7  H   UNL     1       3.795  -5.255  -5.746  0.00  0.00    +0.143 HD
ENDROOT
BRANCH   4   8
ATOM      8  C   UNL     1       6.495  -4.940  -4.206  0.00  0.00    -0.015 A 
ATOM      9  C   UNL     1       7.475  -4.223  -3.544  0.00  0.00    +0.008 A 
ATOM     10  C   UNL     1       8.531  -4.885  -2.946  0.00  0.00    +0.020 A 
ATOM     11  C   UNL     1       8.607  -6.265  -3.010  0.00  0.00    +0.041 A 
ATOM     12  C   UNL     1       7.626  -6.982  -3.673  0.00  0.00    +0.020 A 
ATOM     13  C   UNL     1       6.568  -6.319  -4.266  0.00  0.00    +0.008 A 
ATOM     14 CL   UNL     1       9.933  -7.098  -2.260  0.00  0.00    -0.084 Cl
ENDBRANCH   4   8
BRANCH   1  15
ATOM     15  S   UNL     1       2.908  -1.923  -2.766  0.00  0.00    -0.121 S 
BRANCH  15  16
ATOM     16  C   UNL     1       3.542  -2.787  -1.302  0.00  0.00    +0.118 C 
BRANCH  16  22
ATOM     17  C   UNL     1      -0.016   1.344   0.009  0.00  0.00    +0.002 A 
ATOM     18  C   UNL     1       1.158   2.118   0.002  0.00  0.00    +0.002 A 
ATOM     19  C   UNL     1       2.389   1.570  -0.013  0.00  0.00    +0.027 A 
ATOM     20  C   UNL     1       2.533   0.108  -0.022  0.00  0.00    +0.060 A 
ATOM     21  N   UNL     1       3.569  -0.680  -0.036  0.00  0.00    -0.363 N 
ATOM     22  C   UNL     1       3.071  -2.062  -0.039  0.00  0.00    +0.184 C 
ATOM     23  N   UNL     1       1.606  -1.974  -0.024  0.00  0.00    -0.363 N 
ATOM     24  C   UNL     1       1.290  -0.712  -0.014  0.00  0.00    +0.060 A 
ATOM     25  C   UNL     1       0.002  -0.004   0.002  0.00  0.00    +0.027 A 
ATOM     26  H   UNL     1       4.499  -0.405  -0.045  0.00  0.00    +0.162 HD
ATOM     27  H   UNL     1       0.987  -2.721  -0.022  0.00  0.00    +0.162 HD
ENDBRANCH  16  22
ENDBRANCH  15  16
ENDBRANCH   1  15
BRANCH   5  28
ATOM     28  C   UNL     1       5.643  -1.803  -4.744  0.00  0.00    +0.163 C 
BRANCH  28  29
ATOM     29  C   UNL     1       5.404  -0.586  -3.887  0.00  0.00    +0.119 A 
ATOM     30  C   UNL     1       6.212  -0.143  -2.907  0.00  0.00    +0.046 A 
ATOM     31  C   UNL     1       5.607   1.018  -2.372  0.00  0.00    +0.041 A 
ATOM     32  C   UNL     1       4.467   1.215  -3.057  0.00  0.00    +0.195 A 
ATOM     33  O   UNL     1       4.352   0.244  -3.978  0.00  0.00    -0.467 OA
ENDBRANCH  28  29
ENDBRANCH   5  28
TORSDOF 6
