REMARK  Name = ZINC52042704
REMARK  8 active torsions:
REMARK  status: ('A' for Active; 'I' for Inactive)
REMARK    1  A    between atoms: C_1  and  C_2
REMARK    2  A    between atoms: C_5  and  C_7
REMARK    3  A    between atoms: C_7  and  N_8
REMARK    4  A    between atoms: C_12  and  C_14
REMARK    5  A    between atoms: C_17  and  C_20
REMARK    6  A    between atoms: C_20  and  C_21
REMARK    7  A    between atoms: C_20  and  C_22
REMARK    8  A    between atoms: C_20  and  C_23
REMARK                            x       y       z     vdW  Elec       q    Type
REMARK                         _______ _______ _______ _____ _____    ______ ____
ROOT
ATOM      1  N   UNL     1       1.447  -3.711   1.712  0.00  0.00    +0.390 N 
ATOM      2  C   UNL     1       2.095  -2.691   2.565  0.00  0.00    -0.077 C 
ATOM      3  C   UNL     1       1.957  -3.237   4.008  0.00  0.00    -0.020 C 
ATOM      4  C   UNL     1       2.152  -4.760   3.787  0.00  0.00    -0.013 C 
ATOM      5  C   UNL     1       1.475  -5.003   2.422  0.00  0.00    -0.037 C 
ATOM      6  H   UNL     1       1.949  -3.791   0.841  0.00  0.00    -0.080 HD
ENDROOT
BRANCH   5   7
ATOM      7  C   UNL     1       2.270  -6.007   1.627  0.00  0.00    -0.061 A 
ATOM      8  C   UNL     1       3.434  -5.620   0.991  0.00  0.00    +0.002 A 
ATOM      9  C   UNL     1       4.163  -6.541   0.262  0.00  0.00    +0.004 A 
ATOM     10  C   UNL     1       3.728  -7.849   0.170  0.00  0.00    -0.042 A 
ATOM     11  C   UNL     1       2.564  -8.237   0.807  0.00  0.00    +0.004 A 
ATOM     12  C   UNL     1       1.837  -7.317   1.540  0.00  0.00    +0.002 A 
BRANCH  10  13
ATOM     13  C   UNL     1       4.522  -8.854  -0.625  0.00  0.00    -0.013 C 
ATOM     14  C   UNL     1       5.929  -8.972  -0.036  0.00  0.00    +0.015 C 
ATOM     15  C   UNL     1       3.827 -10.216  -0.566  0.00  0.00    +0.015 C 
ATOM     16  C   UNL     1       4.615  -8.392  -2.081  0.00  0.00    +0.015 C 
ENDBRANCH  10  13
ENDBRANCH   5   7
BRANCH   1  17
ATOM     17  C   UNL     1       0.055  -3.322   1.448  0.00  0.00    +0.021 C 
BRANCH  17  22
ATOM     18  C   UNL     1      -0.018   1.503   0.010  0.00  0.00    +0.111 C 
ATOM     19  C   UNL     1       0.002  -0.004   0.002  0.00  0.00    +0.214 A 
ATOM     20  N   UNL     1       0.008  -0.769  -1.052  0.00  0.00    -0.113 NA
ATOM     21  N   UNL     1       0.027  -2.002  -0.685  0.00  0.00    -0.114 NA
ATOM     22  C   UNL     1       0.034  -2.066   0.616  0.00  0.00    +0.201 A 
ATOM     23  O   UNL     1       0.023  -0.805   1.081  0.00  0.00    -0.427 OA
ENDBRANCH  17  22
ENDBRANCH   1  17
TORSDOF 4
