REMARK  Name = ZINC09939287
REMARK  13 active torsions:
REMARK  status: ('A' for Active; 'I' for Inactive)
REMARK    1  A    between atoms: C_1  and  C_2
REMARK    2  A    between atoms: C_2  and  C_3
REMARK    3  A    between atoms: C_2  and  C_4
REMARK    4  A    between atoms: C_4  and  N_5
REMARK    5  A    between atoms: C_17  and  C_18
REMARK    6  A    between atoms: C_18  and  C_19
REMARK    7  A    between atoms: C_19  and  C_20
REMARK    8  A    between atoms: C_20  and  C_21
REMARK    9  A    between atoms: N_23  and  C_24
REMARK   10  A    between atoms: C_24  and  C_25
REMARK   11  A    between atoms: C_25  and  C_26
REMARK   12  A    between atoms: C_29  and  S_32
REMARK   13  A    between atoms: S_32  and  N_35
REMARK                            x       y       z     vdW  Elec       q    Type
REMARK                         _______ _______ _______ _____ _____    ______ ____
ROOT
ATOM      1  C   UNL     1      -1.909   6.350  -3.814  0.00  0.00    +0.017 C 
ENDROOT
BRANCH   1   2
ATOM      2  C   UNL     1      -0.821   5.377  -4.274  0.00  0.00    +0.077 C 
BRANCH   2  15
ATOM      3  N   UNL     1      -0.721   1.571  -1.179  0.00  0.00    -0.276 N 
ATOM      4  C   UNL     1      -1.708   0.830  -1.731  0.00  0.00    +0.270 A 
ATOM      5  O   UNL     1      -2.011  -0.245  -1.244  0.00  0.00    -0.266 OA
ATOM      6  C   UNL     1      -2.382   1.308  -2.862  0.00  0.00    +0.101 A 
ATOM      7  C   UNL     1      -2.059   2.531  -3.453  0.00  0.00    +0.071 A 
ATOM      8  C   UNL     1      -2.819   2.857  -4.573  0.00  0.00    +0.034 A 
ATOM      9  C   UNL     1      -3.782   2.013  -5.007  0.00  0.00    +0.048 A 
ATOM     10  S   UNL     1      -3.699   0.697  -3.881  0.00  0.00    -0.090 S 
ATOM     11  N   UNL     1      -1.023   3.259  -2.845  0.00  0.00    -0.264 N 
ATOM     12  C   UNL     1      -0.380   2.786  -1.742  0.00  0.00    +0.239 A 
ATOM     13  N   UNL     1       0.524   3.684  -1.417  0.00  0.00    -0.110 NA
ATOM     14  N   UNL     1       0.477   4.670  -2.242  0.00  0.00    -0.132 NA
ATOM     15  C   UNL     1      -0.452   4.462  -3.136  0.00  0.00    +0.139 A 
BRANCH   3  16
ATOM     16  C   UNL     1      -0.013   1.086   0.008  0.00  0.00    +0.131 C 
BRANCH  16  18
ATOM     17  C   UNL     1      -2.121   0.950   1.341  0.00  0.00    +0.009 C 
ATOM     18  C   UNL     1      -0.729   1.579   1.267  0.00  0.00    +0.003 C 
ATOM     19  C   UNL     1       0.079   1.179   2.503  0.00  0.00    +0.009 C 
ENDBRANCH  16  18
ENDBRANCH   3  16
ENDBRANCH   2  15
ENDBRANCH   1   2
BRANCH   1  20
ATOM     20  C   UNL     1      -2.284   7.279  -4.970  0.00  0.00    +0.096 C 
BRANCH  20  21
ATOM     21  C   UNL     1      -3.356   8.237  -4.517  0.00  0.00    +0.213 C 
ATOM     22  O   UNL     1      -3.778   8.181  -3.381  0.00  0.00    -0.276 OA
ATOM     23  N   UNL     1      -3.845   9.155  -5.374  0.00  0.00    -0.315 N 
ATOM     24  H   UNL     1      -3.507   9.200  -6.282  0.00  0.00    +0.149 HD
BRANCH  23  25
ATOM     25  C   UNL     1      -4.886  10.086  -4.933  0.00  0.00    +0.109 C 
BRANCH  25  26
ATOM     26  C   UNL     1      -5.261  11.016  -6.089  0.00  0.00    +0.054 C 
BRANCH  26  27
ATOM     27  C   UNL     1      -6.333  11.974  -5.636  0.00  0.00    -0.046 A 
ATOM     28  C   UNL     1      -7.666  11.640  -5.784  0.00  0.00    +0.005 A 
ATOM     29  C   UNL     1      -8.649  12.517  -5.365  0.00  0.00    +0.029 A 
ATOM     30  C   UNL     1      -8.299  13.731  -4.805  0.00  0.00    +0.105 A 
ATOM     31  C   UNL     1      -6.966  14.067  -4.662  0.00  0.00    +0.029 A 
ATOM     32  C   UNL     1      -5.983  13.189  -5.077  0.00  0.00    +0.005 A 
BRANCH  30  33
ATOM     33  S   UNL     1      -9.552  14.850  -4.274  0.00  0.00    +0.056 S 
ATOM     34  O   UNL     1     -10.712  14.070  -4.018  0.00  0.00    -0.153 OA
ATOM     35  O   UNL     1      -8.961  15.683  -3.286  0.00  0.00    -0.153 OA
BRANCH  33  36
ATOM     36  N   UNL     1      -9.914  15.827  -5.562  0.00  0.00    -0.204 NA
ATOM     37  H   UNL     1      -9.451  15.708  -6.406  0.00  0.00    +0.144 HD
ATOM     38  H   UNL     1     -10.588  16.518  -5.472  0.00  0.00    +0.144 HD
ENDBRANCH  33  36
ENDBRANCH  30  33
ENDBRANCH  26  27
ENDBRANCH  25  26
ENDBRANCH  23  25
ENDBRANCH  20  21
ENDBRANCH   1  20
TORSDOF 11
