REMARK  Name = ZINC06196945
REMARK  8 active torsions:
REMARK  status: ('A' for Active; 'I' for Inactive)
REMARK    1  A    between atoms: C_1  and  C_2
REMARK    2  A    between atoms: C_2  and  O_3
REMARK    3  A    between atoms: O_3  and  C_4
REMARK    4  A    between atoms: C_11  and  C_16
REMARK    5  A    between atoms: C_16  and  C_18
REMARK    6  A    between atoms: C_16  and  N_72
REMARK    7  A    between atoms: N_22  and  C_23
REMARK    8  A    between atoms: C_34  and  C_36
REMARK                            x       y       z     vdW  Elec       q    Type
REMARK                         _______ _______ _______ _____ _____    ______ ____
ROOT
ATOM      1  C   UNL     1       5.008   1.024  -0.012  0.00  0.00    +0.039 C 
ENDROOT
BRANCH   1   9
ATOM      2  C   UNL     1      -1.183   1.322   0.106  0.00  0.00    +0.121 A 
ATOM      3  C   UNL     1      -1.265   2.713   0.132  0.00  0.00    +0.047 A 
ATOM      4  C   UNL     1      -0.124   3.484   0.119  0.00  0.00    +0.030 A 
ATOM      5  C   UNL     1       1.126   2.874   0.087  0.00  0.00    +0.049 A 
ATOM      6  C   UNL     1       1.214   1.470   0.067  0.00  0.00    +0.002 A 
ATOM      7  C   UNL     1       0.047   0.698   0.079  0.00  0.00    +0.055 A 
ATOM      8  C   UNL     1       2.536   0.842   0.033  0.00  0.00    +0.017 A 
ATOM      9  C   UNL     1       3.632   1.639   0.022  0.00  0.00    +0.011 A 
ATOM     10  C   UNL     1       3.490   3.043   0.044  0.00  0.00    +0.251 A 
ATOM     11  O   UNL     1       4.489   3.741   0.034  0.00  0.00    -0.268 OA
ATOM     12  N   UNL     1       2.281   3.629   0.075  0.00  0.00    -0.322 N 
ATOM     13  H   UNL     1       2.218   4.627   0.090  0.00  0.00    +0.169 HD
BRANCH   2  14
ATOM     14  O   UNL     1      -2.320   0.577   0.112  0.00  0.00    -0.492 OA
BRANCH  14  16
ATOM     15  C   UNL     1      -4.719   0.287   0.143  0.00  0.00    +0.048 C 
ATOM     16  C   UNL     1      -3.560   1.286   0.140  0.00  0.00    +0.225 C 
ENDBRANCH  14  16
ENDBRANCH   2  14
ENDBRANCH   1   9
BRANCH   1  24
ATOM     17  C   UNL     1       5.026   1.354  -2.410  0.00  0.00    -0.058 C 
ATOM     18  C   UNL     1       5.749   2.086  -3.546  0.00  0.00    +0.089 C 
ATOM     19  N   UNL     1       7.153   1.650  -3.564  0.00  0.00    -0.299 N 
ATOM     20  C   UNL     1       7.914   1.702  -2.306  0.00  0.00    +0.089 C 
ATOM     21  C   UNL     1       7.106   0.986  -1.219  0.00  0.00    -0.058 C 
ATOM     22  C   UNL     1       7.729   1.216  -4.703  0.00  0.00    +0.282 C 
ATOM     23  O   UNL     1       8.910   0.925  -4.715  0.00  0.00    -0.267 OA
ATOM     24  N   UNL     1       5.760   1.594  -1.149  0.00  0.00    +0.391 N 
ATOM     25  H   UNL     1       5.859   2.606  -1.009  0.00  0.00    -0.080 HD
BRANCH  22  26
ATOM     26  C   UNL     1       6.930   1.092  -5.927  0.00  0.00    +0.189 A 
ATOM     27  C   UNL     1       7.349   0.546  -7.106  0.00  0.00    +0.054 A 
ATOM     28  C   UNL     1       6.269   0.635  -7.998  0.00  0.00    +0.042 A 
ATOM     29  C   UNL     1       5.251   1.224  -7.332  0.00  0.00    +0.196 A 
ATOM     30  O   UNL     1       5.652   1.493  -6.083  0.00  0.00    -0.458 OA
ENDBRANCH  22  26
ENDBRANCH   1  24
BRANCH   1  31
ATOM     31  C   UNL     1       5.736   1.350   1.267  0.00  0.00    +0.143 A 
ATOM     32  N   UNL     1       6.270   2.503   1.591  0.00  0.00    -0.115 NA
ATOM     33  N   UNL     1       6.796   2.382   2.761  0.00  0.00    -0.023 NA
ATOM     34  N   UNL     1       6.619   1.181   3.188  0.00  0.00    -0.044 NA
ATOM     35  N   UNL     1       5.969   0.514   2.295  0.00  0.00    -0.227 N 
BRANCH  35  36
ATOM     36  C   UNL     1       5.561  -0.891   2.384  0.00  0.00    +0.111 C 
ATOM     37  C   UNL     1       4.645  -1.080   3.594  0.00  0.00    +0.027 C 
ATOM     38  C   UNL     1       4.219  -2.547   3.686  0.00  0.00    +0.002 C 
ATOM     39  C   UNL     1       5.459  -3.429   3.843  0.00  0.00    +0.000 C 
ATOM     40  C   UNL     1       6.376  -3.240   2.633  0.00  0.00    +0.002 C 
ATOM     41  C   UNL     1       6.802  -1.773   2.540  0.00  0.00    +0.027 C 
ENDBRANCH  35  36
ENDBRANCH   1  31
TORSDOF 7
