REMARK  Name = ZINC12889293
REMARK  16 active torsions:
REMARK  status: ('A' for Active; 'I' for Inactive)
REMARK    1  A    between atoms: C_1  and  C_2
REMARK    2  A    between atoms: C_15  and  O_42
REMARK    3  A    between atoms: C_18  and  C_41
REMARK    4  A    between atoms: C_23  and  C_24
REMARK    5  A    between atoms: C_23  and  O_40
REMARK    6  A    between atoms: C_24  and  C_26
REMARK    7  A    between atoms: C_26  and  O_27
REMARK    8  A    between atoms: O_27  and  C_28
REMARK    9  A    between atoms: C_28  and  C_30
REMARK   10  A    between atoms: C_30  and  C_31
REMARK   11  A    between atoms: C_31  and  C_32
REMARK   12  A    between atoms: N_34  and  C_35
REMARK   13  A    between atoms: C_35  and  C_36
REMARK   14  A    between atoms: C_35  and  C_37
REMARK   15  A    between atoms: C_35  and  C_38
REMARK   16  A    between atoms: C_38  and  O_39
REMARK                            x       y       z     vdW  Elec       q    Type
REMARK                         _______ _______ _______ _____ _____    ______ ____
ROOT
ATOM      1  C   UNL     1       2.753   2.801   5.143  0.00  0.00    +0.016 C 
ATOM      2  C   UNL     1       1.911   1.817   4.328  0.00  0.00    -0.005 C 
ATOM      3  C   UNL     1       0.426   2.094   4.569  0.00  0.00    +0.019 C 
ATOM      4  C   UNL     1       0.118   1.897   6.057  0.00  0.00    +0.080 C 
ATOM      5  C   UNL     1       0.516   0.498   6.457  0.00  0.00    +0.156 C 
ATOM      6  O   UNL     1      -0.053  -0.057   7.373  0.00  0.00    -0.293 OA
ATOM      7  C   UNL     1       1.588  -0.189   5.738  0.00  0.00    +0.046 C 
ATOM      8  C   UNL     1       2.240   0.409   4.746  0.00  0.00    -0.060 C 
ATOM      9  C   UNL     1       3.333  -0.314   3.998  0.00  0.00    +0.032 C 
ATOM     10  C   UNL     1       2.962  -0.411   2.531  0.00  0.00    +0.008 C 
ATOM     11  C   UNL     1       2.002   0.688   2.083  0.00  0.00    -0.001 C 
ATOM     12  C   UNL     1       2.226   1.988   2.836  0.00  0.00    +0.031 C 
ATOM     13  C   UNL     1       1.275   3.068   2.299  0.00  0.00    +0.119 C 
ATOM     14  C   UNL     1       1.580   3.313   0.824  0.00  0.00    +0.041 C 
ATOM     15  C   UNL     1       1.358   2.037   0.024  0.00  0.00    +0.009 C 
ATOM     16  C   UNL     1       2.183   0.863   0.570  0.00  0.00    +0.002 C 
ATOM     17  C   UNL     1       1.477  -0.355  -0.098  0.00  0.00    +0.008 C 
ATOM     18  C   UNL     1      -0.023   0.009  -0.038  0.00  0.00    +0.043 C 
ATOM     19  C   UNL     1      -0.096   1.548   0.048  0.00  0.00    +0.133 C 
ATOM     20  C   UNL     1       1.771   2.306  -1.424  0.00  0.00    +0.015 C 
ENDROOT
BRANCH  19  21
ATOM     21  C   UNL     1      -0.849   2.099  -1.136  0.00  0.00    +0.202 C 
ATOM     22  O   UNL     1      -0.872   1.486  -2.176  0.00  0.00    -0.291 OA
BRANCH  21  23
ATOM     23  C   UNL     1      -1.573   3.415  -1.021  0.00  0.00    +0.309 C 
BRANCH  23  24
ATOM     24  O   UNL     1      -2.216   3.726  -2.286  0.00  0.00    -0.457 OA
BRANCH  24  25
ATOM     25  C   UNL     1      -2.908   4.874  -2.352  0.00  0.00    +0.308 C 
ATOM     26  O   UNL     1      -2.975   5.596  -1.385  0.00  0.00    -0.251 OA
BRANCH  25  27
ATOM     27  C   UNL     1      -3.602   5.263  -3.632  0.00  0.00    +0.130 C 
BRANCH  27  28
ATOM     28  C   UNL     1      -4.313   6.604  -3.439  0.00  0.00    +0.107 C 
BRANCH  28  29
ATOM     29  C   UNL     1      -5.006   6.993  -4.719  0.00  0.00    +0.214 C 
ATOM     30  O   UNL     1      -4.939   6.269  -5.690  0.00  0.00    -0.276 OA
ATOM     31  N   UNL     1      -5.702   8.146  -4.785  0.00  0.00    -0.308 N 
ATOM     32  H   UNL     1      -5.755   8.725  -4.009  0.00  0.00    +0.149 HD
BRANCH  31  33
ATOM     33  C   UNL     1      -6.376   8.524  -6.030  0.00  0.00    +0.052 C 
ATOM     34  C   UNL     1      -5.344   8.650  -7.152  0.00  0.00    +0.033 C 
ATOM     35  C   UNL     1      -7.403   7.451  -6.399  0.00  0.00    +0.033 C 
BRANCH  33  36
ATOM     36  C   UNL     1      -7.087   9.865  -5.838  0.00  0.00    +0.181 C 
BRANCH  36  37
ATOM     37  O   UNL     1      -7.745  10.234  -7.051  0.00  0.00    -0.393 OA
ATOM     38  H   UNL     1      -8.217  11.076  -7.002  0.00  0.00    +0.209 HD
ENDBRANCH  36  37
ENDBRANCH  33  36
ENDBRANCH  31  33
ENDBRANCH  28  29
ENDBRANCH  27  28
ENDBRANCH  25  27
ENDBRANCH  24  25
ENDBRANCH  23  24
ENDBRANCH  21  23
ENDBRANCH  19  21
BRANCH  19  39
ATOM     39  O   UNL     1      -0.730   1.945   1.265  0.00  0.00    -0.380 OA
ATOM     40  H   UNL     1      -1.642   1.635   1.352  0.00  0.00    +0.211 HD
ENDBRANCH  19  39
BRANCH  13  41
ATOM     41  O   UNL     1       1.462   4.278   3.035  0.00  0.00    -0.391 OA
ATOM     42  H   UNL     1       0.892   5.005   2.749  0.00  0.00    +0.210 HD
ENDBRANCH  13  41
TORSDOF 12
