REMARK  Name = ZINC23042299
REMARK  7 active torsions:
REMARK  status: ('A' for Active; 'I' for Inactive)
REMARK    1  A    between atoms: C_1  and  C_2
REMARK    2  A    between atoms: C_2  and  C_4
REMARK    3  A    between atoms: C_2  and  N_21
REMARK    4  A    between atoms: N_6  and  C_7
REMARK    5  A    between atoms: C_7  and  C_9
REMARK    6  A    between atoms: C_7  and  C_16
REMARK    7  A    between atoms: C_28  and  N_32
REMARK                            x       y       z     vdW  Elec       q    Type
REMARK                         _______ _______ _______ _____ _____    ______ ____
ROOT
ATOM      1  C   UNL     1       2.209  -2.483   2.177  0.00  0.00    +0.234 C 
ATOM      2  O   UNL     1       2.986  -1.669   2.628  0.00  0.00    -0.274 OA
ATOM      3  N   UNL     1       1.929  -2.490   0.859  0.00  0.00    -0.302 N 
ATOM      4  H   UNL     1       1.224  -3.229   0.450  0.00  0.00    +0.150 HD
ENDROOT
BRANCH   1   6
ATOM      5  C   UNL     1       1.925  -4.902   2.642  0.00  0.00    +0.038 C 
ATOM      6  C   UNL     1       1.555  -3.487   3.091  0.00  0.00    +0.167 C 
BRANCH   6   7
ATOM      7  N   UNL     1       2.020  -3.273   4.464  0.00  0.00    -0.222 N 
ATOM      8  C   UNL     1       3.305  -3.351   4.853  0.00  0.00    +0.255 C 
ATOM      9  O   UNL     1       4.250  -3.606   4.133  0.00  0.00    -0.270 OA
ATOM     10  C   UNL     1       3.376  -3.074   6.303  0.00  0.00    +0.052 A 
ATOM     11  C   UNL     1       4.406  -3.015   7.228  0.00  0.00    +0.014 A 
ATOM     12  C   UNL     1       4.124  -2.719   8.553  0.00  0.00    +0.003 A 
ATOM     13  C   UNL     1       2.823  -2.483   8.957  0.00  0.00    +0.033 A 
ATOM     14  C   UNL     1       1.783  -2.539   8.042  0.00  0.00    +0.139 A 
ATOM     15  C   UNL     1       2.050  -2.833   6.715  0.00  0.00    +0.080 A 
ATOM     16  C   UNL     1       1.218  -2.967   5.500  0.00  0.00    +0.257 C 
ATOM     17  O   UNL     1       0.013  -2.827   5.446  0.00  0.00    -0.269 OA
BRANCH  14  18
ATOM     18  N   UNL     1       0.392  -2.285   8.482  0.00  0.00    +0.057 N 
ATOM     19  O   UNL     1       0.161  -2.027   9.650  0.00  0.00    -0.126 OA
ATOM     20  O   UNL     1      -0.520  -2.335   7.677  0.00  0.00    -0.126 OA
ENDBRANCH  14  18
ENDBRANCH   6   7
ENDBRANCH   1   6
BRANCH   3  21
ATOM     21  C   UNL     1       2.565  -1.514  -0.030  0.00  0.00    +0.140 C 
BRANCH  21  22
ATOM     22  C   UNL     1       2.606  -2.064  -1.433  0.00  0.00    -0.022 A 
ATOM     23  C   UNL     1       1.527  -2.771  -1.929  0.00  0.00    +0.008 A 
ATOM     24  C   UNL     1       1.561  -3.271  -3.217  0.00  0.00    +0.038 A 
ATOM     25  C   UNL     1       2.682  -3.073  -4.006  0.00  0.00    +0.123 A 
ATOM     26  C   UNL     1       3.764  -2.369  -3.506  0.00  0.00    +0.038 A 
ATOM     27  C   UNL     1       3.725  -1.865  -2.220  0.00  0.00    +0.008 A 
ATOM     28  F   UNL     1       2.718  -3.566  -5.264  0.00  0.00    -0.205 F 
ENDBRANCH  21  22
BRANCH  21  29
ATOM     29  C   UNL     1       1.773  -0.232  -0.016  0.00  0.00    +0.014 A 
ATOM     30  C   UNL     1       2.220   1.048  -0.013  0.00  0.00    +0.013 A 
ATOM     31  C   UNL     1       1.300   2.079   0.001  0.00  0.00    +0.008 A 
ATOM     32  C   UNL     1      -0.022   1.781   0.012  0.00  0.00    +0.045 A 
ATOM     33  S   UNL     1       0.002  -0.004   0.002  0.00  0.00    -0.099 S 
ENDBRANCH  21  29
ENDBRANCH   3  21
TORSDOF 6
