REMARK  Name = ZINC03009087
REMARK  4 active torsions:
REMARK  status: ('A' for Active; 'I' for Inactive)
REMARK    1  A    between atoms: C_3  and  N_25
REMARK    2  A    between atoms: C_6  and  N_7
REMARK    3  A    between atoms: C_8  and  N_17
REMARK    4  A    between atoms: C_18  and  C_20
REMARK                            x       y       z     vdW  Elec       q    Type
REMARK                         _______ _______ _______ _____ _____    ______ ____
ROOT
ATOM      1  N   UNL     1      -0.132  -0.060  -0.155  0.00  0.00    -0.218 N 
ATOM      2  C   UNL     1      -0.794  -0.829   0.745  0.00  0.00    +0.134 A 
ATOM      3  C   UNL     1      -0.253  -2.093   0.689  0.00  0.00    +0.038 A 
ATOM      4  C   UNL     1       0.753  -2.082  -0.262  0.00  0.00    +0.091 A 
ATOM      5  N   UNL     1       0.826  -0.863  -0.777  0.00  0.00    -0.168 NA
ATOM      6  C   UNL     1       1.498  -3.396  -0.490  0.00  0.00    +0.223 C 
ATOM      7  S   UNL     1       1.016  -4.365   0.998  0.00  0.00    -0.021 S 
ATOM      8  O   UNL     1       1.982  -4.169   2.021  0.00  0.00    -0.174 OA
ATOM      9  O   UNL     1       0.660  -5.684   0.606  0.00  0.00    -0.174 OA
ATOM     10  C   UNL     1      -0.507  -3.418   1.406  0.00  0.00    +0.206 C 
ENDROOT
BRANCH   1  16
ATOM     11  C   UNL     1      -1.673   1.768  -0.507  0.00  0.00    +0.030 A 
ATOM     12  C   UNL     1      -1.905   3.106  -0.761  0.00  0.00    +0.035 A 
ATOM     13  C   UNL     1      -0.842   3.972  -0.936  0.00  0.00    +0.126 A 
ATOM     14  C   UNL     1       0.457   3.504  -0.852  0.00  0.00    +0.035 A 
ATOM     15  C   UNL     1       0.695   2.168  -0.593  0.00  0.00    +0.030 A 
ATOM     16  C   UNL     1      -0.371   1.296  -0.417  0.00  0.00    +0.068 A 
BRANCH  13  17
ATOM     17  N   UNL     1      -1.094   5.404  -1.214  0.00  0.00    +0.056 N 
ATOM     18  O   UNL     1      -0.158   6.168  -1.369  0.00  0.00    -0.126 OA
ATOM     19  O   UNL     1      -2.237   5.818  -1.288  0.00  0.00    -0.126 OA
ENDBRANCH  13  17
ENDBRANCH   1  16
BRANCH   2  20
ATOM     20  N   UNL     1      -1.835  -0.414   1.575  0.00  0.00    -0.270 N 
ATOM     21  C   UNL     1      -2.767  -1.300   1.980  0.00  0.00    +0.221 C 
ATOM     22  O   UNL     1      -2.672  -2.467   1.666  0.00  0.00    -0.275 OA
ATOM     23  H   UNL     1      -1.888   0.511   1.861  0.00  0.00    +0.156 HD
BRANCH  21  24
ATOM     24  C   UNL     1      -3.927  -0.838   2.824  0.00  0.00    +0.075 C 
ATOM     25  C   UNL     1      -3.415  -0.290   4.172  0.00  0.00    +0.013 C 
ATOM     26  C   UNL     1      -4.482  -0.748   5.198  0.00  0.00    +0.001 C 
ATOM     27  C   UNL     1      -4.859  -2.162   4.691  0.00  0.00    +0.001 C 
ATOM     28  C   UNL     1      -4.845  -2.029   3.154  0.00  0.00    +0.013 C 
ENDBRANCH  21  24
ENDBRANCH   2  20
TORSDOF 4
