REMARK  Name = ZINC12785359
REMARK  8 active torsions:
REMARK  status: ('A' for Active; 'I' for Inactive)
REMARK    1  A    between atoms: C_1  and  C_2
REMARK    2  A    between atoms: C_2  and  C_3
REMARK    3  A    between atoms: C_4  and  C_23
REMARK    4  A    between atoms: C_6  and  C_8
REMARK    5  A    between atoms: N_10  and  C_11
REMARK    6  A    between atoms: C_11  and  C_12
REMARK    7  A    between atoms: N_14  and  C_15
REMARK    8  A    between atoms: C_20  and  C_21
REMARK                            x       y       z     vdW  Elec       q    Type
REMARK                         _______ _______ _______ _____ _____    ______ ____
ROOT
ATOM      1  C   UNL     1      -4.991   1.630   0.049  0.00  0.00    +0.200 C 
ENDROOT
BRANCH   1   4
ATOM      2  C   UNL     1      -2.580   1.274   0.047  0.00  0.00    +0.251 C 
ATOM      3  O   UNL     1      -2.787   0.075   0.049  0.00  0.00    -0.270 OA
ATOM      4  N   UNL     1      -3.616   2.136   0.046  0.00  0.00    -0.302 N 
ATOM      5  H   UNL     1      -3.452   3.092   0.045  0.00  0.00    +0.150 HD
BRANCH   2   9
ATOM      6  C   UNL     1       1.077   3.163   0.035  0.00  0.00    -0.007 A 
ATOM      7  C   UNL     1       1.149   1.806   0.037  0.00  0.00    -0.040 A 
ATOM      8  C   UNL     1      -0.013   1.074   0.045  0.00  0.00    +0.024 A 
ATOM      9  C   UNL     1      -1.205   1.782   0.045  0.00  0.00    +0.074 A 
ATOM     10  S   UNL     1      -0.629   3.470   0.044  0.00  0.00    -0.088 S 
ATOM     11  C   UNL     1       2.486   1.113   0.032  0.00  0.00    +0.044 C 
BRANCH   6  13
ATOM     12  C   UNL     1       2.582   4.494  -1.420  0.00  0.00    +0.009 C 
ATOM     13  C   UNL     1       2.208   4.160   0.026  0.00  0.00    +0.039 C 
ENDBRANCH   6  13
ENDBRANCH   2   9
ENDBRANCH   1   4
BRANCH   1  14
ATOM     14  C   UNL     1      -5.954   2.789   0.047  0.00  0.00    +0.234 C 
ATOM     15  O   UNL     1      -5.533   3.927   0.045  0.00  0.00    -0.274 OA
ATOM     16  N   UNL     1      -7.282   2.562   0.049  0.00  0.00    -0.284 N 
ATOM     17  H   UNL     1      -7.619   1.656  -0.030  0.00  0.00    +0.155 HD
BRANCH  16  18
ATOM     18  C   UNL     1      -8.175   3.633   0.165  0.00  0.00    +0.036 A 
ATOM     19  C   UNL     1      -7.771   4.813   0.775  0.00  0.00    +0.024 A 
ATOM     20  C   UNL     1      -8.654   5.869   0.888  0.00  0.00    +0.017 A 
ATOM     21  C   UNL     1      -9.941   5.752   0.392  0.00  0.00    +0.018 A 
ATOM     22  C   UNL     1     -10.346   4.577  -0.216  0.00  0.00    +0.020 A 
ATOM     23  C   UNL     1      -9.465   3.520  -0.336  0.00  0.00    -0.028 A 
ATOM     24  C   UNL     1      -9.905   2.244  -1.005  0.00  0.00    +0.046 C 
ATOM     25 BR   UNL     1     -11.147   7.199   0.548  0.00  0.00    -0.050 Br
ENDBRANCH  16  18
ENDBRANCH   1  14
TORSDOF 5
