REMARK  Name = ZINC26533672
REMARK  13 active torsions:
REMARK  status: ('A' for Active; 'I' for Inactive)
REMARK    1  A    between atoms: C_1  and  C_2
REMARK    2  A    between atoms: C_2  and  C_3
REMARK    3  A    between atoms: C_3  and  C_4
REMARK    4  A    between atoms: C_4  and  C_5
REMARK    5  A    between atoms: C_5  and  C_7
REMARK    6  A    between atoms: C_5  and  C_9
REMARK    7  A    between atoms: C_7  and  C_8
REMARK    8  A    between atoms: C_9  and  N_10
REMARK    9  A    between atoms: C_14  and  C_15
REMARK   10  A    between atoms: C_16  and  N_27
REMARK   11  A    between atoms: C_21  and  C_26
REMARK   12  A    between atoms: C_29  and  C_36
REMARK   13  A    between atoms: C_32  and  C_35
REMARK                            x       y       z     vdW  Elec       q    Type
REMARK                         _______ _______ _______ _____ _____    ______ ____
ROOT
ATOM      1  C   UNL     1      -0.799   1.149   6.293  0.00  0.00    +0.081 A 
ATOM      2  C   UNL     1      -0.315   0.796   5.011  0.00  0.00    +0.136 A 
ATOM      3  N   UNL     1       0.544  -0.206   4.890  0.00  0.00    -0.214 NA
ATOM      4  C   UNL     1       0.964  -0.899   5.948  0.00  0.00    +0.142 A 
ATOM      5  C   UNL     1       1.877  -1.952   5.758  0.00  0.00    +0.047 A 
ATOM      6  C   UNL     1       2.313  -2.666   6.835  0.00  0.00    +0.008 A 
ATOM      7  C   UNL     1       1.845  -2.341   8.115  0.00  0.00    -0.034 A 
ATOM      8  C   UNL     1       0.968  -1.326   8.279  0.00  0.00    +0.099 A 
ATOM      9  N   UNL     1       0.527  -0.605   7.210  0.00  0.00    -0.267 N 
ATOM     10  C   UNL     1      -0.350   0.403   7.409  0.00  0.00    +0.267 A 
ATOM     11  O   UNL     1      -0.743   0.670   8.531  0.00  0.00    -0.267 OA
ATOM     12  C   UNL     1       2.321  -3.125   9.311  0.00  0.00    +0.045 C 
ENDROOT
BRANCH   1  17
ATOM     13  N   UNL     1      -4.973   2.972   4.964  0.00  0.00    -0.255 N 
ATOM     14  C   UNL     1      -3.899   3.218   5.695  0.00  0.00    +0.258 C 
ATOM     15  O   UNL     1      -3.771   4.278   6.282  0.00  0.00    -0.269 OA
ATOM     16  C   UNL     1      -2.897   2.210   5.777  0.00  0.00    +0.077 C 
ATOM     17  C   UNL     1      -1.712   2.216   6.454  0.00  0.00    +0.037 C 
ATOM     18  S   UNL     1      -3.609   0.936   4.744  0.00  0.00    -0.061 S 
ATOM     19  C   UNL     1      -5.115   1.796   4.313  0.00  0.00    +0.121 C 
ATOM     20  S   UNL     1      -6.406   1.268   3.320  0.00  0.00    -0.027 S 
BRANCH  13  21
ATOM     21  C   UNL     1      -6.023   3.987   4.859  0.00  0.00    +0.118 C 
BRANCH  21  22
ATOM     22  C   UNL     1      -5.731   4.901   3.667  0.00  0.00    +0.007 C 
BRANCH  22  23
ATOM     23  C   UNL     1      -5.818   4.092   2.371  0.00  0.00    +0.002 C 
ATOM     24  C   UNL     1      -5.411   4.976   1.190  0.00  0.00    +0.004 C 
ENDBRANCH  22  23
BRANCH  22  25
ATOM     25  C   UNL     1      -6.757   6.035   3.630  0.00  0.00    +0.005 C 
BRANCH  25  26
ATOM     26  C   UNL     1      -6.574   6.929   4.858  0.00  0.00    +0.000 C 
BRANCH  26  28
ATOM     27  C   UNL     1      -7.482   8.895   6.105  0.00  0.00    +0.004 C 
ATOM     28  C   UNL     1      -7.665   8.001   4.876  0.00  0.00    -0.003 C 
ENDBRANCH  26  28
ENDBRANCH  25  26
ENDBRANCH  22  25
ENDBRANCH  21  22
ENDBRANCH  13  21
ENDBRANCH   1  17
BRANCH   2  29
ATOM     29  N   UNL     1      -0.730   1.492   3.897  0.00  0.00    -0.314 N 
ATOM     30  C   UNL     1       0.177   2.611   3.608  0.00  0.00    +0.109 C 
ATOM     31  C   UNL     1      -0.392   3.446   2.458  0.00  0.00    +0.004 C 
ATOM     32  C   UNL     1      -0.550   2.560   1.220  0.00  0.00    +0.009 C 
ATOM     33  C   UNL     1      -1.460   1.376   1.561  0.00  0.00    +0.004 C 
ATOM     34  C   UNL     1      -0.860   0.601   2.737  0.00  0.00    +0.109 C 
ATOM     35  C   UNL     1      -1.575   0.453   0.347  0.00  0.00    +0.009 C 
ATOM     36  C   UNL     1      -1.756   4.009   2.861  0.00  0.00    +0.009 C 
ENDBRANCH   2  29
TORSDOF 8
