REMARK  Name = ZINC64966533
REMARK  11 active torsions:
REMARK  status: ('A' for Active; 'I' for Inactive)
REMARK    1  A    between atoms: C_1  and  C_2
REMARK    2  A    between atoms: C_2  and  N_3
REMARK    3  A    between atoms: N_3  and  C_4
REMARK    4  A    between atoms: N_3  and  S_6
REMARK    5  A    between atoms: C_4  and  C_5
REMARK    6  A    between atoms: S_6  and  C_9
REMARK    7  A    between atoms: N_15  and  C_25
REMARK    8  A    between atoms: C_25  and  C_26
REMARK    9  A    between atoms: N_28  and  C_29
REMARK   10  A    between atoms: C_29  and  C_30
REMARK   11  A    between atoms: C_30  and  N_31
REMARK                            x       y       z     vdW  Elec       q    Type
REMARK                         _______ _______ _______ _____ _____    ______ ____
ROOT
ATOM      1  C   UNL     1       3.218   0.606   1.484  0.00  0.00    +0.107 A 
ATOM      2  C   UNL     1       3.567   1.486   0.475  0.00  0.00    +0.030 A 
ATOM      3  C   UNL     1       4.265   2.642   0.771  0.00  0.00    +0.027 A 
ATOM      4  C   UNL     1       4.618   2.917   2.083  0.00  0.00    +0.052 A 
ATOM      5  C   UNL     1       4.274   2.027   3.097  0.00  0.00    +0.060 A 
ATOM      6  C   UNL     1       3.564   0.876   2.795  0.00  0.00    +0.054 A 
ATOM      7  N   UNL     1       4.661   2.300   4.415  0.00  0.00    -0.259 N 
ATOM      8  C   UNL     1       5.118   3.517   4.751  0.00  0.00    +0.241 C 
ATOM      9  O   UNL     1       5.430   3.729   5.904  0.00  0.00    -0.273 OA
ATOM     10  C   UNL     1       5.255   4.627   3.742  0.00  0.00    +0.160 C 
ATOM     11  N   UNL     1       5.317   4.100   2.390  0.00  0.00    -0.317 N 
ATOM     12  C   UNL     1       6.038   4.752   1.298  0.00  0.00    +0.106 C 
ATOM     13  C   UNL     1       7.305   5.436   1.804  0.00  0.00    +0.019 C 
ATOM     14  C   UNL     1       6.919   6.357   2.967  0.00  0.00    +0.004 C 
ATOM     15  C   UNL     1       6.442   5.493   4.128  0.00  0.00    +0.032 C 
ENDROOT
BRANCH   1  16
ATOM     16  S   UNL     1       2.322  -0.861   1.097  0.00  0.00    +0.061 S 
ATOM     17  O   UNL     1       2.586  -1.786   2.143  0.00  0.00    -0.153 OA
ATOM     18  O   UNL     1       2.594  -1.155  -0.266  0.00  0.00    -0.153 OA
BRANCH  16  19
ATOM     19  N   UNL     1       0.711  -0.489   1.189  0.00  0.00    -0.177 NA
BRANCH  19  21
ATOM     20  C   UNL     1      -0.019   1.526   0.010  0.00  0.00    +0.022 C 
ATOM     21  C   UNL     1       0.002  -0.004   0.002  0.00  0.00    +0.106 C 
ENDBRANCH  19  21
BRANCH  19  22
ATOM     22  C   UNL     1      -0.006  -0.646   2.457  0.00  0.00    +0.106 C 
ATOM     23  C   UNL     1      -0.694  -2.013   2.489  0.00  0.00    +0.022 C 
ENDBRANCH  19  22
ENDBRANCH  16  19
ENDBRANCH   1  16
BRANCH   7  24
ATOM     24  C   UNL     1       4.568   1.250   5.433  0.00  0.00    +0.209 C 
BRANCH  24  25
ATOM     25  C   UNL     1       5.861   0.478   5.478  0.00  0.00    +0.231 C 
ATOM     26  O   UNL     1       6.771   0.775   4.734  0.00  0.00    -0.274 OA
ATOM     27  N   UNL     1       6.006  -0.543   6.346  0.00  0.00    -0.316 N 
ATOM     28  H   UNL     1       5.278  -0.780   6.942  0.00  0.00    +0.149 HD
BRANCH  27  29
ATOM     29  C   UNL     1       7.263  -1.294   6.390  0.00  0.00    +0.086 C 
BRANCH  29  30
ATOM     30  C   UNL     1       7.166  -2.389   7.454  0.00  0.00    -0.060 C 
BRANCH  30  31
ATOM     31  N   UNL     1       8.426  -3.143   7.498  0.00  0.00    +0.381 N 
ATOM     32  C   UNL     1       9.515  -2.287   8.035  0.00  0.00    -0.079 C 
ATOM     33  C   UNL     1      10.558  -3.316   8.540  0.00  0.00    -0.020 C 
ATOM     34  C   UNL     1       9.676  -4.445   9.121  0.00  0.00    -0.020 C 
ATOM     35  C   UNL     1       8.308  -4.281   8.435  0.00  0.00    -0.079 C 
ATOM     36  H   UNL     1       8.666  -3.474   6.576  0.00  0.00    -0.082 HD
ENDBRANCH  30  31
ENDBRANCH  29  30
ENDBRANCH  27  29
ENDBRANCH  24  25
ENDBRANCH   7  24
TORSDOF 9
