REMARK  Name = ZINC17089714
REMARK  6 active torsions:
REMARK  status: ('A' for Active; 'I' for Inactive)
REMARK    1  A    between atoms: C_1  and  O_2
REMARK    2  A    between atoms: O_2  and  C_3
REMARK    3  A    between atoms: C_6  and  N_9
REMARK    4  A    between atoms: C_16  and  C_22
REMARK    5  A    between atoms: C_22  and  S_23
REMARK    6  A    between atoms: S_23  and  C_24
REMARK                            x       y       z     vdW  Elec       q    Type
REMARK                         _______ _______ _______ _____ _____    ______ ____
ROOT
ATOM      1  N   UNL     1       1.325  -0.458  -0.013  0.00  0.00    -0.217 N 
ATOM      2  C   UNL     1       2.155   0.606  -0.015  0.00  0.00    +0.285 A 
ATOM      3  O   UNL     1       3.372   0.578  -0.027  0.00  0.00    -0.265 OA
ATOM      4  C   UNL     1       1.310   1.801  -0.001  0.00  0.00    +0.129 A 
ATOM      5  C   UNL     1       1.579   3.236   0.005  0.00  0.00    +0.196 A 
ATOM      6  O   UNL     1       2.722   3.665  -0.003  0.00  0.00    -0.287 OA
ATOM      7  C   UNL     1       0.464   4.117   0.021  0.00  0.00    +0.073 A 
ATOM      8  C   UNL     1      -0.783   3.610   0.030  0.00  0.00    +0.031 A 
ATOM      9  N   UNL     1      -1.023   2.272   0.029  0.00  0.00    -0.342 N 
ATOM     10  H   UNL     1      -1.941   1.959   0.040  0.00  0.00    +0.167 HD
ATOM     11  C   UNL     1      -0.016   1.361   0.009  0.00  0.00    +0.140 A 
ATOM     12  N   UNL     1       0.002  -0.004   0.002  0.00  0.00    -0.274 N 
ATOM     13  H   UNL     1      -0.783  -0.573   0.006  0.00  0.00    +0.189 HD
ENDROOT
BRANCH   1  17
ATOM     14  C   UNL     1       2.512  -4.455  -0.048  0.00  0.00    +0.120 A 
ATOM     15  C   UNL     1       3.466  -3.448  -0.051  0.00  0.00    +0.048 A 
ATOM     16  C   UNL     1       3.074  -2.124  -0.039  0.00  0.00    +0.031 A 
ATOM     17  C   UNL     1       1.724  -1.801  -0.025  0.00  0.00    +0.067 A 
ATOM     18  C   UNL     1       0.769  -2.809  -0.016  0.00  0.00    +0.031 A 
ATOM     19  C   UNL     1       1.163  -4.133  -0.034  0.00  0.00    +0.048 A 
BRANCH  14  21
ATOM     20  C   UNL     1       1.863  -6.743  -0.055  0.00  0.00    +0.277 C 
ATOM     21  O   UNL     1       2.899  -5.758  -0.059  0.00  0.00    -0.495 OA
ENDBRANCH  14  21
ENDBRANCH   1  17
BRANCH   8  22
ATOM     22  C   UNL     1      -1.953   4.559   0.046  0.00  0.00    +0.127 C 
BRANCH  22  23
ATOM     23  S   UNL     1      -2.407   4.931   1.762  0.00  0.00    -0.119 S 
BRANCH  23  24
ATOM     24  C   UNL     1      -3.771   6.036   1.613  0.00  0.00    +0.008 A 
ATOM     25  C   UNL     1      -4.229   6.411   0.356  0.00  0.00    +0.016 A 
ATOM     26  C   UNL     1      -5.301   7.273   0.242  0.00  0.00    +0.021 A 
ATOM     27  C   UNL     1      -5.913   7.772   1.379  0.00  0.00    +0.041 A 
ATOM     28  C   UNL     1      -5.456   7.405   2.633  0.00  0.00    +0.021 A 
ATOM     29  C   UNL     1      -4.388   6.538   2.753  0.00  0.00    +0.016 A 
ATOM     30 CL   UNL     1      -7.258   8.861   1.232  0.00  0.00    -0.084 Cl
ENDBRANCH  23  24
ENDBRANCH  22  23
ENDBRANCH   8  22
TORSDOF 5
