REMARK  Name = ZINC12989823
REMARK  6 active torsions:
REMARK  status: ('A' for Active; 'I' for Inactive)
REMARK    1  A    between atoms: C_1  and  N_2
REMARK    2  A    between atoms: C_3  and  S_7
REMARK    3  A    between atoms: S_7  and  C_8
REMARK    4  A    between atoms: C_10  and  C_23
REMARK    5  A    between atoms: C_15  and  C_17
REMARK    6  A    between atoms: C_17  and  N_50
REMARK                            x       y       z     vdW  Elec       q    Type
REMARK                         _______ _______ _______ _____ _____    ______ ____
ROOT
ATOM      1  C   UNL     1       6.094   1.488   2.016  0.00  0.00    +0.117 A 
ATOM      2  C   UNL     1       7.004   0.574   1.419  0.00  0.00    +0.048 A 
ATOM      3  C   UNL     1       8.450   0.675   1.252  0.00  0.00    +0.001 A 
ATOM      4  C   UNL     1       9.108  -0.339   0.644  0.00  0.00    +0.056 A 
ATOM      5  S   UNL     1       7.814  -1.502   0.256  0.00  0.00    -0.076 S 
ATOM      6  C   UNL     1       6.429  -0.610   0.912  0.00  0.00    +0.113 A 
ATOM      7  N   UNL     1       5.132  -0.837   1.001  0.00  0.00    -0.227 NA
ATOM      8  C   UNL     1       4.336   0.053   1.562  0.00  0.00    +0.115 A 
ATOM      9  N   UNL     1       4.806   1.183   2.057  0.00  0.00    -0.227 NA
ENDROOT
BRANCH   3  10
ATOM     10  C   UNL     1       9.184   1.867   1.740  0.00  0.00    -0.017 A 
ATOM     11  C   UNL     1       9.939   2.635   0.854  0.00  0.00    +0.008 A 
ATOM     12  C   UNL     1      10.617   3.746   1.313  0.00  0.00    +0.001 A 
ATOM     13  C   UNL     1      10.557   4.092   2.651  0.00  0.00    +0.000 A 
ATOM     14  C   UNL     1       9.813   3.332   3.535  0.00  0.00    +0.001 A 
ATOM     15  C   UNL     1       9.127   2.221   3.087  0.00  0.00    +0.008 A 
ENDBRANCH   3  10
BRANCH   1  16
ATOM     16  S   UNL     1       6.672   3.009   2.691  0.00  0.00    -0.028 S 
BRANCH  16  19
ATOM     17  C   UNL     1       6.019   5.860   4.219  0.00  0.00    +0.177 C 
ATOM     18  N   UNL     1       4.984   4.879   3.884  0.00  0.00    -0.223 N 
ATOM     19  C   UNL     1       5.150   3.688   3.262  0.00  0.00    +0.215 A 
ATOM     20  N   UNL     1       3.961   3.137   3.158  0.00  0.00    -0.101 NA
ATOM     21  N   UNL     1       3.066   3.896   3.681  0.00  0.00    -0.022 NA
ATOM     22  N   UNL     1       3.604   4.973   4.139  0.00  0.00    -0.043 NA
ENDBRANCH  16  19
ENDBRANCH   1  16
BRANCH   8  23
ATOM     23  C   UNL     1       2.858  -0.230   1.643  0.00  0.00    -0.001 C 
BRANCH  23  29
ATOM     24  C   UNL     1       0.799  -0.165   0.372  0.00  0.00    -0.078 C 
ATOM     25  C   UNL     1       0.183   0.277  -0.958  0.00  0.00    -0.019 C 
ATOM     26  C   UNL     1       0.242   1.804  -1.060  0.00  0.00    -0.004 C 
ATOM     27  C   UNL     1       1.699   2.260  -0.933  0.00  0.00    -0.019 C 
ATOM     28  C   UNL     1       2.271   1.760   0.395  0.00  0.00    -0.078 C 
ATOM     29  N   UNL     1       2.207   0.283   0.420  0.00  0.00    +0.384 N 
ATOM     30  H   UNL     1       2.702  -0.086  -0.400  0.00  0.00    -0.081 HD
ENDBRANCH  23  29
ENDBRANCH   8  23
TORSDOF 5
