REMARK  Name = ZINC10048452
REMARK  11 active torsions:
REMARK  status: ('A' for Active; 'I' for Inactive)
REMARK    1  A    between atoms: C_1  and  C_2
REMARK    2  A    between atoms: C_5  and  N_8
REMARK    3  A    between atoms: C_9  and  C_36
REMARK    4  A    between atoms: C_10  and  C_35
REMARK    5  A    between atoms: N_18  and  C_23
REMARK    6  A    between atoms: N_21  and  C_22
REMARK    7  A    between atoms: C_23  and  C_24
REMARK    8  A    between atoms: C_24  and  C_26
REMARK    9  A    between atoms: C_24  and  C_27
REMARK   10  A    between atoms: C_27  and  N_28
REMARK   11  A    between atoms: N_28  and  C_29
REMARK                            x       y       z     vdW  Elec       q    Type
REMARK                         _______ _______ _______ _____ _____    ______ ____
ROOT
ATOM      1  N   UNL     1      -1.290  -3.164  -0.001  0.00  0.00    -0.282 N 
ATOM      2  C   UNL     1      -2.528  -2.548   0.014  0.00  0.00    +0.043 A 
ATOM      3  C   UNL     1      -2.336  -1.232   0.019  0.00  0.00    +0.044 A 
ATOM      4  N   UNL     1      -0.974  -0.989   0.006  0.00  0.00    -0.274 N 
ATOM      5  C   UNL     1      -0.332  -2.181  -0.006  0.00  0.00    +0.223 A 
ATOM      6  N   UNL     1       0.976  -1.974  -0.017  0.00  0.00    -0.193 NA
ATOM      7  C   UNL     1       1.228  -0.667  -0.013  0.00  0.00    +0.170 A 
ATOM      8  C   UNL     1       0.002  -0.004   0.002  0.00  0.00    +0.157 A 
ATOM      9  C   UNL     1      -0.017   1.400   0.010  0.00  0.00    +0.283 A 
ATOM     10  O   UNL     1      -1.077   2.002   0.018  0.00  0.00    -0.265 OA
ATOM     11  N   UNL     1       1.150   2.077   0.002  0.00  0.00    -0.259 N 
ATOM     12  C   UNL     1       2.327   1.429  -0.014  0.00  0.00    +0.333 A 
ATOM     13  O   UNL     1       3.359   2.074  -0.021  0.00  0.00    -0.246 OA
ATOM     14  N   UNL     1       2.394   0.085  -0.021  0.00  0.00    -0.279 N 
ATOM     15  C   UNL     1       3.697  -0.585  -0.038  0.00  0.00    +0.155 C 
ATOM     16  C   UNL     1      -3.418  -0.183   0.035  0.00  0.00    +0.066 C 
ATOM     17  C   UNL     1      -3.863  -3.247   0.024  0.00  0.00    +0.066 C 
ENDROOT
BRANCH   1  22
ATOM     18  C   UNL     1      -0.341  -8.758  -0.036  0.00  0.00    +0.044 C 
ATOM     19  C   UNL     1      -0.593  -7.272  -0.027  0.00  0.00    -0.050 A 
ATOM     20  C   UNL     1      -0.197  -6.512   1.059  0.00  0.00    +0.005 A 
ATOM     21  C   UNL     1      -0.427  -5.151   1.070  0.00  0.00    +0.026 A 
ATOM     22  C   UNL     1      -1.055  -4.545  -0.010  0.00  0.00    +0.050 A 
ATOM     23  C   UNL     1      -1.456  -5.311  -1.096  0.00  0.00    +0.026 A 
ATOM     24  C   UNL     1      -1.219  -6.672  -1.104  0.00  0.00    +0.005 A 
ENDBRANCH   1  22
BRANCH  11  25
ATOM     25  C   UNL     1       1.133   3.542   0.010  0.00  0.00    +0.134 C 
BRANCH  25  26
ATOM     26  C   UNL     1       1.141   4.044   1.456  0.00  0.00    +0.023 C 
ATOM     27  C   UNL     1      -0.155   3.621   2.150  0.00  0.00    +0.011 C 
BRANCH  26  28
ATOM     28  C   UNL     1       1.250   5.570   1.464  0.00  0.00    +0.106 C 
BRANCH  28  29
ATOM     29  N   UNL     1       1.378   6.043   2.845  0.00  0.00    -0.344 N 
ATOM     30  H   UNL     1       1.383   5.406   3.577  0.00  0.00    +0.146 HD
BRANCH  29  31
ATOM     31  C   UNL     1       1.492   7.410   3.108  0.00  0.00    +0.027 A 
ATOM     32  C   UNL     1       1.491   8.322   2.061  0.00  0.00    +0.023 A 
ATOM     33  C   UNL     1       1.600   9.674   2.324  0.00  0.00    +0.002 A 
ATOM     34  C   UNL     1       1.720  10.118   3.628  0.00  0.00    +0.000 A 
ATOM     35  C   UNL     1       1.727   9.212   4.673  0.00  0.00    +0.002 A 
ATOM     36  C   UNL     1       1.614   7.859   4.417  0.00  0.00    +0.023 A 
ENDBRANCH  29  31
ENDBRANCH  28  29
ENDBRANCH  26  28
ENDBRANCH  25  26
ENDBRANCH  11  25
TORSDOF 6
