REMARK  Name = ZINC39533889
REMARK  11 active torsions:
REMARK  status: ('A' for Active; 'I' for Inactive)
REMARK    1  A    between atoms: C_1  and  C_2
REMARK    2  A    between atoms: C_2  and  C_3
REMARK    3  A    between atoms: C_2  and  S_4
REMARK    4  A    between atoms: S_4  and  N_7
REMARK    5  A    between atoms: N_7  and  C_8
REMARK    6  A    between atoms: C_8  and  C_9
REMARK    7  A    between atoms: C_9  and  C_11
REMARK    8  A    between atoms: C_9  and  N_23
REMARK    9  A    between atoms: C_14  and  C_17
REMARK   10  A    between atoms: C_27  and  S_30
REMARK   11  A    between atoms: S_30  and  C_33
REMARK                            x       y       z     vdW  Elec       q    Type
REMARK                         _______ _______ _______ _____ _____    ______ ____
ROOT
ATOM      1  C   UNL     1      -1.565  -4.212   1.740  0.00  0.00    +0.102 C 
ENDROOT
BRANCH   1   2
ATOM      2  N   UNL     1      -3.017  -4.027   1.624  0.00  0.00    -0.290 NA
ATOM      3  C   UNL     1      -3.487  -2.968   2.529  0.00  0.00    +0.100 C 
ATOM      4  C   UNL     1      -4.988  -2.753   2.321  0.00  0.00    +0.098 C 
ATOM      5  N   UNL     1      -5.701  -4.013   2.574  0.00  0.00    -0.293 NA
ATOM      6  C   UNL     1      -5.231  -5.071   1.669  0.00  0.00    +0.217 C 
ATOM      7  C   UNL     1      -3.730  -5.287   1.877  0.00  0.00    +0.127 C 
ATOM      8  H   UNL     1      -5.608  -4.294   3.538  0.00  0.00    +0.124 HD
BRANCH   6   9
ATOM      9  S   UNL     1      -6.120  -6.612   2.026  0.00  0.00    +0.014 S 
ATOM     10  O   UNL     1      -5.808  -7.594   1.048  0.00  0.00    -0.168 OA
ATOM     11  O   UNL     1      -6.034  -6.916   3.412  0.00  0.00    -0.168 OA
BRANCH   9  12
ATOM     12  C   UNL     1      -7.818  -6.228   1.754  0.00  0.00    +0.090 A 
ATOM     13  C   UNL     1      -8.592  -5.744   2.792  0.00  0.00    +0.027 A 
ATOM     14  C   UNL     1      -9.924  -5.443   2.578  0.00  0.00    +0.002 A 
ATOM     15  C   UNL     1     -10.482  -5.627   1.327  0.00  0.00    +0.000 A 
ATOM     16  C   UNL     1      -9.708  -6.110   0.289  0.00  0.00    +0.002 A 
ATOM     17  C   UNL     1      -8.374  -6.407   0.501  0.00  0.00    +0.027 A 
ENDBRANCH   9  12
ENDBRANCH   6   9
ENDBRANCH   1   2
BRANCH   1  18
ATOM     18  C   UNL     1      -1.218  -4.588   3.158  0.00  0.00    -0.029 A 
ATOM     19  C   UNL     1      -0.797  -5.874   3.446  0.00  0.00    +0.006 A 
ATOM     20  C   UNL     1      -0.478  -6.224   4.742  0.00  0.00    +0.009 A 
ATOM     21  C   UNL     1      -0.580  -5.280   5.761  0.00  0.00    -0.018 A 
ATOM     22  C   UNL     1      -1.004  -3.986   5.465  0.00  0.00    +0.009 A 
ATOM     23  C   UNL     1      -1.315  -3.645   4.165  0.00  0.00    +0.006 A 
BRANCH  21  24
ATOM     24  C   UNL     1      -0.239  -5.651   7.157  0.00  0.00    -0.018 A 
ATOM     25  C   UNL     1       0.190  -6.943   7.452  0.00  0.00    +0.008 A 
ATOM     26  C   UNL     1       0.507  -7.283   8.752  0.00  0.00    +0.001 A 
ATOM     27  C   UNL     1       0.398  -6.343   9.761  0.00  0.00    +0.000 A 
ATOM     28  C   UNL     1      -0.028  -5.058   9.474  0.00  0.00    +0.001 A 
ATOM     29  C   UNL     1      -0.341  -4.706   8.176  0.00  0.00    +0.008 A 
ENDBRANCH  21  24
ENDBRANCH   1  18
BRANCH   1  30
ATOM     30  C   UNL     1      -0.853  -2.908   1.370  0.00  0.00    +0.129 C 
BRANCH  30  31
ATOM     31  N   UNL     1      -1.283  -2.479   0.037  0.00  0.00    -0.192 NA
ATOM     32  H   UNL     1      -1.745  -3.100  -0.547  0.00  0.00    +0.148 HD
BRANCH  31  33
ATOM     33  S   UNL     1      -0.980  -0.933  -0.473  0.00  0.00    +0.032 S 
ATOM     34  O   UNL     1      -1.530  -0.102   0.541  0.00  0.00    -0.158 OA
ATOM     35  O   UNL     1      -1.482  -0.884  -1.801  0.00  0.00    -0.158 OA
BRANCH  33  37
ATOM     36  C   UNL     1       1.420  -1.879  -1.383  0.00  0.00    +0.033 C 
ATOM     37  C   UNL     1       0.829  -0.792  -0.483  0.00  0.00    +0.142 C 
ATOM     38  C   UNL     1       1.230   0.585  -1.017  0.00  0.00    +0.033 C 
ENDBRANCH  33  37
ENDBRANCH  31  33
ENDBRANCH  30  31
ENDBRANCH   1  30
TORSDOF 9
