REMARK  Name = ZINC36599963
REMARK  14 active torsions:
REMARK  status: ('A' for Active; 'I' for Inactive)
REMARK    1  A    between atoms: C_1  and  C_2
REMARK    2  A    between atoms: C_5  and  C_7
REMARK    3  A    between atoms: C_7  and  N_8
REMARK    4  A    between atoms: N_8  and  C_9
REMARK    5  A    between atoms: C_9  and  C_11
REMARK    6  A    between atoms: C_9  and  C_20
REMARK    7  A    between atoms: C_12  and  O_19
REMARK    8  A    between atoms: C_14  and  O_18
REMARK    9  A    between atoms: C_16  and  O_17
REMARK   10  A    between atoms: N_22  and  C_23
REMARK   11  A    between atoms: C_23  and  C_24
REMARK   12  A    between atoms: C_23  and  C_25
REMARK   13  A    between atoms: C_23  and  C_26
REMARK   14  A    between atoms: C_27  and  C_29
REMARK                            x       y       z     vdW  Elec       q    Type
REMARK                         _______ _______ _______ _____ _____    ______ ____
ROOT
ATOM      1  C   UNL     1       3.099  -3.127  -2.442  0.00  0.00    +0.200 C 
ENDROOT
BRANCH   1   2
ATOM      2  C   UNL     1       2.529  -2.517  -3.696  0.00  0.00    +0.065 A 
ATOM      3  C   UNL     1       2.965  -2.951  -4.939  0.00  0.00    +0.129 A 
ATOM      4  C   UNL     1       2.440  -2.389  -6.093  0.00  0.00    +0.091 A 
ATOM      5  C   UNL     1       1.478  -1.394  -6.004  0.00  0.00    +0.124 A 
ATOM      6  C   UNL     1       1.042  -0.960  -4.762  0.00  0.00    +0.091 A 
ATOM      7  C   UNL     1       1.564  -1.525  -3.607  0.00  0.00    +0.129 A 
BRANCH   7   8
ATOM      8  O   UNL     1       1.132  -1.103  -2.390  0.00  0.00    -0.506 OA
ATOM      9  H   UNL     1       1.587  -0.314  -2.063  0.00  0.00    +0.292 HD
ENDBRANCH   7   8
BRANCH   5  10
ATOM     10  O   UNL     1       0.965  -0.843  -7.135  0.00  0.00    -0.507 OA
ATOM     11  H   UNL     1       0.180  -1.296  -7.472  0.00  0.00    +0.292 HD
ENDBRANCH   5  10
BRANCH   3  12
ATOM     12  O   UNL     1       3.907  -3.926  -5.026  0.00  0.00    -0.506 OA
ATOM     13  H   UNL     1       3.543  -4.814  -5.148  0.00  0.00    +0.292 HD
ENDBRANCH   3  12
ENDBRANCH   1   2
BRANCH   1  14
ATOM     14  C   UNL     1       4.140  -4.152  -2.811  0.00  0.00    +0.239 C 
ATOM     15  O   UNL     1       3.853  -5.330  -2.825  0.00  0.00    -0.273 OA
ATOM     16  N   UNL     1       5.391  -3.760  -3.125  0.00  0.00    -0.309 N 
ATOM     17  H   UNL     1       5.631  -2.821  -3.077  0.00  0.00    +0.149 HD
BRANCH  16  18
ATOM     18  C   UNL     1       6.387  -4.751  -3.539  0.00  0.00    +0.026 C 
ATOM     19  C   UNL     1       5.901  -5.466  -4.801  0.00  0.00    +0.031 C 
ATOM     20  C   UNL     1       7.715  -4.048  -3.830  0.00  0.00    +0.031 C 
ATOM     21  C   UNL     1       6.586  -5.773  -2.418  0.00  0.00    +0.031 C 
ENDBRANCH  16  18
ENDBRANCH   1  14
BRANCH   1  22
ATOM     22  N   UNL     1       2.026  -3.772  -1.681  0.00  0.00    -0.277 N 
ATOM     23  C   UNL     1       1.222  -4.672  -2.281  0.00  0.00    +0.231 C 
ATOM     24  O   UNL     1       1.331  -4.886  -3.470  0.00  0.00    -0.274 OA
BRANCH  23  25
ATOM     25  C   UNL     1       0.187  -5.413  -1.474  0.00  0.00    +0.204 C 
ATOM     26 CL   UNL     1      -0.723  -6.536  -2.551  0.00  0.00    -0.116 Cl
ENDBRANCH  23  25
BRANCH  22  27
ATOM     27  C   UNL     1       1.828  -3.439  -0.268  0.00  0.00    +0.183 C 
BRANCH  27  32
ATOM     28  C   UNL     1      -0.082   1.202   0.230  0.00  0.00    +0.086 C 
ATOM     29  C   UNL     1       0.005  -0.293   0.065  0.00  0.00    +0.102 A 
ATOM     30  C   UNL     1      -1.039  -1.135  -0.039  0.00  0.00    +0.045 A 
ATOM     31  C   UNL     1      -0.504  -2.436  -0.179  0.00  0.00    +0.046 A 
ATOM     32  C   UNL     1       0.835  -2.311  -0.152  0.00  0.00    +0.122 A 
ATOM     33  O   UNL     1       1.138  -1.010  -0.011  0.00  0.00    -0.463 OA
ENDBRANCH  27  32
ENDBRANCH  22  27
ENDBRANCH   1  22
TORSDOF 10
