REMARK  Name = ZINC63808561
REMARK  7 active torsions:
REMARK  status: ('A' for Active; 'I' for Inactive)
REMARK    1  A    between atoms: C_1  and  O_2
REMARK    2  A    between atoms: O_2  and  C_3
REMARK    3  A    between atoms: C_9  and  C_12
REMARK    4  A    between atoms: C_12  and  C_13
REMARK    5  A    between atoms: C_13  and  N_14
REMARK    6  A    between atoms: C_15  and  C_33
REMARK    7  A    between atoms: C_19  and  C_27
REMARK                            x       y       z     vdW  Elec       q    Type
REMARK                         _______ _______ _______ _____ _____    ______ ____
ROOT
ATOM      1  N   UNL     1      -0.412  -6.896   1.944  0.00  0.00    -0.292 N 
ATOM      2  C   UNL     1      -1.071  -8.170   1.634  0.00  0.00    +0.116 C 
ATOM      3  C   UNL     1       0.020  -9.063   1.007  0.00  0.00    +0.077 C 
ATOM      4  C   UNL     1      -0.001 -10.440   1.712  0.00  0.00    +0.136 C 
ATOM      5  N   UNL     1       0.827 -10.249   2.909  0.00  0.00    -0.305 N 
ATOM      6  N   UNL     1       1.508  -9.227   2.864  0.00  0.00    -0.203 NA
ATOM      7  C   UNL     1       1.318  -8.446   1.616  0.00  0.00    +0.218 C 
ATOM      8  C   UNL     1       0.925  -7.024   1.942  0.00  0.00    +0.243 C 
ATOM      9  O   UNL     1       1.706  -6.125   2.171  0.00  0.00    -0.273 OA
ATOM     10  H   UNL     1       0.836 -10.866   3.658  0.00  0.00    +0.183 HD
ENDROOT
BRANCH   4  11
ATOM     11  C   UNL     1      -1.410 -10.812   2.097  0.00  0.00    -0.023 A 
ATOM     12  C   UNL     1      -2.461 -10.507   1.253  0.00  0.00    +0.006 A 
ATOM     13  C   UNL     1      -3.753 -10.848   1.606  0.00  0.00    +0.000 A 
ATOM     14  C   UNL     1      -3.994 -11.496   2.803  0.00  0.00    +0.000 A 
ATOM     15  C   UNL     1      -2.943 -11.802   3.647  0.00  0.00    +0.000 A 
ATOM     16  C   UNL     1      -1.650 -11.464   3.292  0.00  0.00    +0.006 A 
ENDBRANCH   4  11
BRANCH   2  17
ATOM     17  C   UNL     1      -1.601  -8.802   2.896  0.00  0.00    -0.009 A 
ATOM     18  C   UNL     1      -0.750  -9.073   3.956  0.00  0.00    +0.008 A 
ATOM     19  C   UNL     1      -1.282  -9.655   5.097  0.00  0.00    +0.020 A 
ATOM     20  C   UNL     1      -2.633  -9.943   5.138  0.00  0.00    +0.111 A 
ATOM     21  N   UNL     1      -3.412  -9.672   4.110  0.00  0.00    -0.263 NA
ATOM     22  C   UNL     1      -2.942  -9.113   3.012  0.00  0.00    +0.116 A 
ENDBRANCH   2  17
BRANCH   1  23
ATOM     23  C   UNL     1      -1.122  -5.644   2.215  0.00  0.00    +0.113 C 
BRANCH  23  24
ATOM     24  C   UNL     1      -1.341  -4.887   0.904  0.00  0.00    +0.052 C 
BRANCH  24  31
ATOM     25  C   UNL     1       0.118  -0.590   1.609  0.00  0.00    +0.121 A 
ATOM     26  C   UNL     1      -0.908   0.344   1.839  0.00  0.00    +0.047 A 
ATOM     27  C   UNL     1      -2.214   0.001   1.852  0.00  0.00    +0.029 A 
ATOM     28  C   UNL     1      -2.602  -1.394   1.618  0.00  0.00    +0.043 A 
ATOM     29  N   UNL     1      -3.771  -1.983   1.578  0.00  0.00    -0.380 N 
ATOM     30  C   UNL     1      -3.567  -3.410   1.304  0.00  0.00    +0.144 C 
ATOM     31  C   UNL     1      -2.071  -3.599   1.183  0.00  0.00    -0.040 C 
ATOM     32  C   UNL     1      -1.522  -2.378   1.375  0.00  0.00    +0.002 A 
ATOM     33  C   UNL     1      -0.136  -1.900   1.378  0.00  0.00    +0.055 A 
ATOM     34  H   UNL     1      -4.629  -1.548   1.708  0.00  0.00    +0.160 HD
BRANCH  25  36
ATOM     35  C   UNL     1       1.629   1.228   1.862  0.00  0.00    +0.277 C 
ATOM     36  O   UNL     1       1.408  -0.161   1.613  0.00  0.00    -0.495 OA
ENDBRANCH  25  36
ENDBRANCH  24  31
ENDBRANCH  23  24
ENDBRANCH   1  23
TORSDOF 6
