REMARK  Name = ZINC23353455
REMARK  8 active torsions:
REMARK  status: ('A' for Active; 'I' for Inactive)
REMARK    1  A    between atoms: C_1  and  C_2
REMARK    2  A    between atoms: C_2  and  C_3
REMARK    3  A    between atoms: C_3  and  N_4
REMARK    4  A    between atoms: C_7  and  C_9
REMARK    5  A    between atoms: C_17  and  N_21
REMARK    6  A    between atoms: N_21  and  C_22
REMARK    7  A    between atoms: C_22  and  C_23
REMARK    8  A    between atoms: C_23  and  N_30
REMARK                            x       y       z     vdW  Elec       q    Type
REMARK                         _______ _______ _______ _____ _____    ______ ____
ROOT
ATOM      1  N   UNL     1      -2.161  -2.836   0.428  0.00  0.00    -0.267 N 
ATOM      2  C   UNL     1      -2.033  -3.485  -0.741  0.00  0.00    +0.043 A 
ATOM      3  C   UNL     1      -1.596  -4.737  -0.459  0.00  0.00    +0.004 A 
ATOM      4  C   UNL     1      -1.474  -4.798   0.940  0.00  0.00    +0.151 A 
ATOM      5  N   UNL     1      -1.827  -3.611   1.402  0.00  0.00    -0.166 NA
ATOM      6  C   UNL     1      -1.316  -5.796  -1.489  0.00  0.00    +0.023 C 
ATOM      7  C   UNL     1      -1.210  -5.118  -2.861  0.00  0.00    -0.067 C 
ATOM      8  C   UNL     1      -2.415  -4.196  -3.070  0.00  0.00    -0.009 C 
ATOM      9  C   UNL     1      -2.306  -2.985  -2.136  0.00  0.00    +0.054 C 
ENDROOT
BRANCH   4  10
ATOM     10  C   UNL     1      -1.031  -5.960   1.737  0.00  0.00    +0.267 C 
ATOM     11  O   UNL     1      -0.728  -6.998   1.182  0.00  0.00    -0.268 OA
ATOM     12  N   UNL     1      -0.963  -5.869   3.080  0.00  0.00    -0.296 N 
ATOM     13  C   UNL     1      -1.305  -4.681   3.877  0.00  0.00    +0.108 C 
ATOM     14  C   UNL     1      -1.050  -5.034   5.357  0.00  0.00    +0.020 C 
ATOM     15  C   UNL     1      -0.042  -6.210   5.266  0.00  0.00    +0.020 C 
ATOM     16  C   UNL     1      -0.541  -6.946   3.994  0.00  0.00    +0.108 C 
ENDBRANCH   4  10
BRANCH   7  17
ATOM     17  N   UNL     1      -1.190  -6.142  -3.914  0.00  0.00    +0.382 N 
ATOM     18  H   UNL     1      -0.445  -6.798  -3.731  0.00  0.00    -0.085 HD
ATOM     19  H   UNL     1      -2.072  -6.631  -3.925  0.00  0.00    -0.085 HD
BRANCH  17  20
ATOM     20  C   UNL     1      -0.969  -5.501  -5.217  0.00  0.00    -0.060 C 
BRANCH  20  21
ATOM     21  C   UNL     1      -0.812  -6.576  -6.294  0.00  0.00    +0.007 C 
ATOM     22  C   UNL     1       0.054  -6.054  -7.408  0.00  0.00    +0.020 C 
ATOM     23  C   UNL     1       0.019  -4.517  -7.511  0.00  0.00    +0.002 C 
ATOM     24  C   UNL     1      -1.397  -3.938  -7.325  0.00  0.00    +0.000 C 
ATOM     25  C   UNL     1      -2.447  -4.744  -8.040  0.00  0.00    +0.000 C 
ATOM     26  C   UNL     1      -3.044  -5.761  -7.046  0.00  0.00    +0.002 C 
ATOM     27  C   UNL     1      -2.196  -6.932  -6.875  0.00  0.00    +0.020 C 
BRANCH  21  28
ATOM     28  N   UNL     1      -0.200  -7.776  -5.709  0.00  0.00    -0.294 NA
ATOM     29  C   UNL     1       1.157  -7.490  -5.221  0.00  0.00    +0.113 C 
ATOM     30  C   UNL     1       1.735  -8.748  -4.567  0.00  0.00    +0.175 C 
ATOM     31  O   UNL     1       1.714  -9.823  -5.511  0.00  0.00    -0.377 OA
ATOM     32  C   UNL     1       0.407 -10.128  -6.006  0.00  0.00    +0.175 C 
ATOM     33  C   UNL     1      -0.184  -8.884  -6.675  0.00  0.00    +0.113 C 
ENDBRANCH  21  28
ENDBRANCH  20  21
ENDBRANCH  17  20
ENDBRANCH   7  17
BRANCH   1  34
ATOM     34  C   UNL     1      -2.608  -1.449   0.574  0.00  0.00    +0.143 C 
BRANCH  34  36
ATOM     35  C   UNL     1      -1.866   0.935   0.669  0.00  0.00    +0.005 C 
ATOM     36  C   UNL     1      -1.399  -0.514   0.517  0.00  0.00    +0.020 C 
ENDBRANCH  34  36
ENDBRANCH   1  34
TORSDOF 7
