REMARK  Name = ZINC12415149
REMARK  7 active torsions:
REMARK  status: ('A' for Active; 'I' for Inactive)
REMARK    1  A    between atoms: C_1  and  C_2
REMARK    2  A    between atoms: N_14  and  C_28
REMARK    3  A    between atoms: C_15  and  S_17
REMARK    4  A    between atoms: S_17  and  C_18
REMARK    5  A    between atoms: C_18  and  C_19
REMARK    6  A    between atoms: C_23  and  N_25
REMARK    7  A    between atoms: C_28  and  C_29
REMARK                            x       y       z     vdW  Elec       q    Type
REMARK                         _______ _______ _______ _____ _____    ______ ____
ROOT
ATOM      1  C   UNL     1      -1.752  -7.488   7.117  0.00  0.00    +0.109 C 
ATOM      2  C   UNL     1      -0.671  -7.119   6.134  0.00  0.00    +0.213 C 
ATOM      3  O   UNL     1      -0.025  -7.989   5.588  0.00  0.00    -0.276 OA
ATOM      4  N   UNL     1      -0.421  -5.823   5.862  0.00  0.00    -0.297 N 
ATOM      5  C   UNL     1       0.627  -5.431   4.907  0.00  0.00    +0.113 C 
ATOM      6  C   UNL     1      -0.010  -4.731   3.706  0.00  0.00    +0.056 C 
ATOM      7  C   UNL     1      -0.990  -3.671   4.203  0.00  0.00    -0.020 A 
ATOM      8  C   UNL     1      -1.491  -3.719   5.453  0.00  0.00    +0.013 A 
ATOM      9  S   UNL     1      -2.572  -2.321   5.574  0.00  0.00    -0.072 S 
ATOM     10  C   UNL     1      -2.346  -1.668   3.939  0.00  0.00    +0.117 A 
ATOM     11  C   UNL     1      -1.434  -2.563   3.354  0.00  0.00    +0.076 A 
ATOM     12  C   UNL     1      -1.064  -2.280   2.001  0.00  0.00    +0.264 A 
ATOM     13  O   UNL     1      -0.281  -3.005   1.410  0.00  0.00    -0.267 OA
ATOM     14  N   UNL     1      -1.587  -1.201   1.391  0.00  0.00    -0.280 N 
ATOM     15  C   UNL     1      -2.469  -0.382   2.036  0.00  0.00    +0.173 A 
ATOM     16  N   UNL     1      -2.831  -0.623   3.280  0.00  0.00    -0.216 NA
ATOM     17  C   UNL     1      -1.190  -4.742   6.509  0.00  0.00    +0.150 C 
ENDROOT
BRANCH  15  18
ATOM     18  S   UNL     1      -3.134   1.015   1.192  0.00  0.00    -0.083 S 
BRANCH  18  19
ATOM     19  C   UNL     1      -4.195   1.692   2.493  0.00  0.00    +0.112 C 
BRANCH  19  20
ATOM     20  C   UNL     1      -4.887   2.930   1.983  0.00  0.00    -0.035 A 
ATOM     21  C   UNL     1      -6.114   2.827   1.355  0.00  0.00    +0.004 A 
ATOM     22  C   UNL     1      -6.749   3.963   0.888  0.00  0.00    +0.003 A 
ATOM     23  C   UNL     1      -6.156   5.201   1.048  0.00  0.00    +0.033 A 
ATOM     24  C   UNL     1      -4.929   5.304   1.676  0.00  0.00    +0.126 A 
ATOM     25  C   UNL     1      -4.296   4.169   2.148  0.00  0.00    +0.037 A 
BRANCH  24  26
ATOM     26  N   UNL     1      -4.294   6.630   1.848  0.00  0.00    +0.056 N 
ATOM     27  O   UNL     1      -4.854   7.631   1.437  0.00  0.00    -0.126 OA
ATOM     28  O   UNL     1      -3.213   6.721   2.401  0.00  0.00    -0.126 OA
ENDBRANCH  24  26
ENDBRANCH  19  20
ENDBRANCH  18  19
ENDBRANCH  15  18
BRANCH  14  29
ATOM     29  C   UNL     1      -1.208  -0.902   0.008  0.00  0.00    +0.201 C 
BRANCH  29  30
ATOM     30  C   UNL     1       0.002  -0.004   0.002  0.00  0.00    +0.125 A 
ATOM     31  C   UNL     1       1.284  -0.412  -0.012  0.00  0.00    +0.046 A 
ATOM     32  C   UNL     1       2.084   0.754  -0.014  0.00  0.00    +0.041 A 
ATOM     33  C   UNL     1       1.244   1.804  -0.000  0.00  0.00    +0.195 A 
ATOM     34  O   UNL     1      -0.016   1.339   0.009  0.00  0.00    -0.466 OA
ENDBRANCH  29  30
ENDBRANCH  14  29
TORSDOF 6
