REMARK  Name = ZINC39595886
REMARK  7 active torsions:
REMARK  status: ('A' for Active; 'I' for Inactive)
REMARK    1  A    between atoms: C_1  and  C_2
REMARK    2  A    between atoms: C_2  and  C_4
REMARK    3  A    between atoms: C_2  and  O_28
REMARK    4  A    between atoms: C_4  and  N_5
REMARK    5  A    between atoms: C_6  and  C_8
REMARK    6  A    between atoms: C_19  and  C_21
REMARK    7  A    between atoms: O_28  and  C_29
REMARK                            x       y       z     vdW  Elec       q    Type
REMARK                         _______ _______ _______ _____ _____    ______ ____
ROOT
ATOM      1  C   UNL     1       2.240  -3.042   2.652  0.00  0.00    +0.100 C 
ATOM      2  C   UNL     1       0.836  -3.689   2.662  0.00  0.00    +0.121 C 
ATOM      3  N   UNL     1       0.937  -4.788   3.650  0.00  0.00    -0.296 N 
ATOM      4  C   UNL     1       1.768  -4.227   4.742  0.00  0.00    +0.115 C 
ATOM      5  C   UNL     1       2.847  -3.397   4.020  0.00  0.00    -0.004 C 
ATOM      6  C   UNL     1       3.151  -2.127   4.808  0.00  0.00    -0.010 C 
ATOM      7  C   UNL     1       3.808  -2.503   6.139  0.00  0.00    -0.082 C 
ATOM      8  N   UNL     1       5.045  -3.251   5.883  0.00  0.00    +0.379 N 
ATOM      9  C   UNL     1       4.733  -4.516   5.206  0.00  0.00    -0.082 C 
ATOM     10  C   UNL     1       4.115  -4.225   3.836  0.00  0.00    -0.010 C 
ATOM     11  C   UNL     1       0.397  -6.021   3.573  0.00  0.00    +0.247 C 
ATOM     12  O   UNL     1      -0.172  -6.372   2.558  0.00  0.00    -0.270 OA
ATOM     13  H   UNL     1       5.655  -2.700   5.298  0.00  0.00    -0.086 HD
ATOM     14  H   UNL     1       5.507  -3.445   6.758  0.00  0.00    -0.086 HD
ENDROOT
BRANCH  11  15
ATOM     15  C   UNL     1       0.496  -6.944   4.723  0.00  0.00    +0.037 A 
ATOM     16  C   UNL     1       0.692  -6.442   6.010  0.00  0.00    +0.014 A 
ATOM     17  C   UNL     1       0.783  -7.308   7.079  0.00  0.00    +0.016 A 
ATOM     18  C   UNL     1       0.681  -8.675   6.877  0.00  0.00    +0.018 A 
ATOM     19  C   UNL     1       0.487  -9.179   5.602  0.00  0.00    +0.016 A 
ATOM     20  C   UNL     1       0.388  -8.322   4.526  0.00  0.00    +0.014 A 
ATOM     21 BR   UNL     1       0.808  -9.856   8.348  0.00  0.00    -0.050 Br
ENDBRANCH  11  15
BRANCH   1  23
ATOM     22  N   UNL     1       3.105  -0.858   1.878  0.00  0.00    -0.312 N 
ATOM     23  C   UNL     1       2.127  -1.547   2.500  0.00  0.00    +0.218 C 
ATOM     24  O   UNL     1       1.157  -0.964   2.936  0.00  0.00    -0.275 OA
ATOM     25  H   UNL     1       3.880  -1.324   1.529  0.00  0.00    +0.149 HD
BRANCH  22  26
ATOM     26  C   UNL     1       2.996   0.596   1.730  0.00  0.00    +0.148 C 
BRANCH  26  28
ATOM     27  C   UNL     1       4.114   2.645   0.840  0.00  0.00    +0.053 C 
ATOM     28  C   UNL     1       4.228   1.127   0.995  0.00  0.00    +0.187 C 
BRANCH  28  29
ATOM     29  O   UNL     1       5.403   0.812   1.745  0.00  0.00    -0.488 OA
BRANCH  29  30
ATOM     30  C   UNL     1       6.535   0.556   1.038  0.00  0.00    +0.121 A 
ATOM     31  C   UNL     1       7.674   0.107   1.690  0.00  0.00    +0.048 A 
ATOM     32  C   UNL     1       8.825  -0.153   0.971  0.00  0.00    +0.042 A 
ATOM     33  C   UNL     1       8.842   0.036  -0.401  0.00  0.00    +0.124 A 
ATOM     34  C   UNL     1       7.706   0.485  -1.053  0.00  0.00    +0.042 A 
ATOM     35  C   UNL     1       6.552   0.739  -0.337  0.00  0.00    +0.048 A 
ATOM     36  F   UNL     1       9.967  -0.217  -1.103  0.00  0.00    -0.205 F 
ENDBRANCH  29  30
ENDBRANCH  28  29
ENDBRANCH  26  28
ENDBRANCH  22  26
ENDBRANCH   1  23
TORSDOF 6
