REMARK  Name = ZINC12523571
REMARK  9 active torsions:
REMARK  status: ('A' for Active; 'I' for Inactive)
REMARK    1  A    between atoms: C_1  and  C_2
REMARK    2  A    between atoms: C_11  and  N_30
REMARK    3  A    between atoms: C_13  and  S_15
REMARK    4  A    between atoms: S_15  and  C_16
REMARK    5  A    between atoms: C_16  and  C_17
REMARK    6  A    between atoms: C_17  and  C_18
REMARK    7  A    between atoms: N_20  and  C_21
REMARK    8  A    between atoms: C_24  and  C_27
REMARK    9  A    between atoms: C_27  and  C_29
REMARK                            x       y       z     vdW  Elec       q    Type
REMARK                         _______ _______ _______ _____ _____    ______ ____
ROOT
ATOM      1  C   UNL     1      -4.588   4.246   0.704  0.00  0.00    +0.008 C 
ATOM      2  C   UNL     1      -3.219   3.620   0.431  0.00  0.00    -0.009 C 
ATOM      3  C   UNL     1      -2.180   4.221   1.383  0.00  0.00    +0.008 C 
ATOM      4  C   UNL     1      -0.776   3.789   0.959  0.00  0.00    +0.037 C 
ATOM      5  C   UNL     1      -0.746   2.269   0.825  0.00  0.00    -0.025 A 
ATOM      6  C   UNL     1      -1.890   1.566   0.711  0.00  0.00    -0.004 A 
ATOM      7  S   UNL     1      -1.382  -0.128   0.585  0.00  0.00    -0.073 S 
ATOM      8  C   UNL     1       0.373   0.111   0.693  0.00  0.00    +0.115 A 
ATOM      9  C   UNL     1       0.505   1.508   0.825  0.00  0.00    +0.051 A 
ATOM     10  C   UNL     1       1.839   1.990   0.936  0.00  0.00    +0.129 A 
ATOM     11  N   UNL     1       2.842   1.128   0.908  0.00  0.00    -0.207 NA
ATOM     12  C   UNL     1       2.646  -0.179   0.781  0.00  0.00    +0.191 A 
ATOM     13  N   UNL     1       1.424  -0.684   0.674  0.00  0.00    -0.215 NA
ATOM     14  C   UNL     1      -3.289   2.104   0.689  0.00  0.00    +0.046 C 
ENDROOT
BRANCH  10  15
ATOM     15  N   UNL     1       2.085   3.344   1.070  0.00  0.00    -0.343 N 
ATOM     16  H   UNL     1       2.952   3.652   1.376  0.00  0.00    +0.144 HD
ATOM     17  H   UNL     1       1.389   3.986   0.859  0.00  0.00    +0.144 HD
ENDBRANCH  10  15
BRANCH  12  18
ATOM     18  S   UNL     1       4.035  -1.263   0.753  0.00  0.00    -0.085 S 
BRANCH  18  19
ATOM     19  C   UNL     1       5.376  -0.059   0.929  0.00  0.00    +0.086 C 
BRANCH  19  20
ATOM     20  C   UNL     1       6.720  -0.790   0.930  0.00  0.00    +0.107 C 
BRANCH  20  21
ATOM     21  C   UNL     1       7.837   0.211   1.077  0.00  0.00    +0.218 C 
ATOM     22  O   UNL     1       7.582   1.393   1.171  0.00  0.00    -0.275 OA
ATOM     23  N   UNL     1       9.118  -0.206   1.103  0.00  0.00    -0.285 N 
ATOM     24  H   UNL     1       9.319  -1.155   1.105  0.00  0.00    +0.155 HD
BRANCH  23  25
ATOM     25  C   UNL     1      10.154   0.725   1.128  0.00  0.00    +0.033 A 
ATOM     26  C   UNL     1      11.325   0.442   1.825  0.00  0.00    +0.024 A 
ATOM     27  C   UNL     1      12.349   1.353   1.849  0.00  0.00    +0.013 A 
ATOM     28  C   UNL     1      12.211   2.575   1.178  0.00  0.00    +0.017 A 
ATOM     29  C   UNL     1      11.029   2.858   0.482  0.00  0.00    +0.013 A 
ATOM     30  C   UNL     1      10.012   1.938   0.460  0.00  0.00    +0.024 A 
BRANCH  28  31
ATOM     31  C   UNL     1      13.303   3.557   1.204  0.00  0.00    +0.160 C 
ATOM     32  O   UNL     1      13.182   4.614   0.623  0.00  0.00    -0.292 OA
ATOM     33  C   UNL     1      14.574   3.250   1.954  0.00  0.00    +0.091 C 
ENDBRANCH  28  31
ENDBRANCH  23  25
ENDBRANCH  20  21
ENDBRANCH  19  20
ENDBRANCH  18  19
ENDBRANCH  12  18
TORSDOF 7
