REMARK  Name = ZINC15013023
REMARK  3 active torsions:
REMARK  status: ('A' for Active; 'I' for Inactive)
REMARK    1  A    between atoms: C_3  and  O_27
REMARK    2  A    between atoms: C_6  and  C_7
REMARK    3  A    between atoms: N_14  and  C_17
REMARK                            x       y       z     vdW  Elec       q    Type
REMARK                         _______ _______ _______ _____ _____    ______ ____
ROOT
ATOM      1  C   UNL     1       6.039   1.711  -0.248  0.00  0.00    +0.026 C 
ATOM      2  C   UNL     1       4.825   1.061  -0.363  0.00  0.00    +0.100 C 
ATOM      3  C   UNL     1       4.707  -0.395  -0.149  0.00  0.00    +0.257 C 
ATOM      4  O   UNL     1       5.680  -1.066   0.137  0.00  0.00    -0.270 OA
ATOM      5  N   UNL     1       3.489  -0.961  -0.278  0.00  0.00    -0.235 N 
ATOM      6  C   UNL     1       2.408  -0.234  -0.593  0.00  0.00    +0.320 C 
ATOM      7  O   UNL     1       1.340  -0.805  -0.695  0.00  0.00    -0.251 OA
ATOM      8  N   UNL     1       2.441   1.090  -0.802  0.00  0.00    -0.190 N 
ATOM      9  C   UNL     1       3.590   1.790  -0.712  0.00  0.00    +0.263 C 
ATOM     10  O   UNL     1       3.608   2.991  -0.908  0.00  0.00    -0.269 OA
ATOM     11  H   UNL     1       3.393  -1.916  -0.141  0.00  0.00    +0.159 HD
ENDROOT
BRANCH   8  12
ATOM     12  C   UNL     1       1.253   1.762  -1.128  0.00  0.00    +0.049 A 
ATOM     13  C   UNL     1       0.643   1.537  -2.354  0.00  0.00    +0.028 A 
ATOM     14  C   UNL     1      -0.527   2.199  -2.677  0.00  0.00    +0.051 A 
ATOM     15  C   UNL     1      -1.094   3.087  -1.778  0.00  0.00    +0.166 A 
ATOM     16  C   UNL     1      -0.486   3.311  -0.544  0.00  0.00    +0.168 A 
ATOM     17  C   UNL     1       0.689   2.651  -0.224  0.00  0.00    +0.073 A 
ATOM     18  O   UNL     1      -1.229   4.222   0.149  0.00  0.00    -0.453 OA
ATOM     19  C   UNL     1      -2.076   4.854  -0.829  0.00  0.00    +0.466 C 
ATOM     20  O   UNL     1      -2.222   3.853  -1.853  0.00  0.00    -0.453 OA
ENDBRANCH   8  12
BRANCH   1  26
ATOM     21  C   UNL     1       7.040   3.847  -1.024  0.00  0.00    +0.011 A 
ATOM     22  C   UNL     1       7.078   5.213  -1.021  0.00  0.00    +0.047 A 
ATOM     23  C   UNL     1       6.183   5.934  -0.238  0.00  0.00    +0.135 A 
ATOM     24  C   UNL     1       5.240   5.271   0.543  0.00  0.00    +0.083 A 
ATOM     25  C   UNL     1       5.188   3.906   0.544  0.00  0.00    +0.031 A 
ATOM     26  C   UNL     1       6.089   3.172  -0.244  0.00  0.00    -0.023 A 
ATOM     27 CL   UNL     1       4.127   6.181   1.517  0.00  0.00    -0.080 Cl
BRANCH  23  28
ATOM     28  O   UNL     1       6.230   7.290  -0.234  0.00  0.00    -0.505 OA
ATOM     29  H   UNL     1       6.816   7.662   0.439  0.00  0.00    +0.292 HD
ENDBRANCH  23  28
ENDBRANCH   1  26
TORSDOF 3
