REMARK  Name = ZINC27836249
REMARK  2 active torsions:
REMARK  status: ('A' for Active; 'I' for Inactive)
REMARK    1  A    between atoms: C_5  and  O_22
REMARK    2  A    between atoms: C_6  and  C_7
REMARK                            x       y       z     vdW  Elec       q    Type
REMARK                         _______ _______ _______ _____ _____    ______ ____
ROOT
ATOM      1  C   UNL     1      -1.292  -0.776   0.011  0.00  0.00    +0.194 C 
ATOM      2  N   UNL     1      -2.363   0.072  -0.543  0.00  0.00    -0.316 N 
ATOM      3  C   UNL     1      -2.456   0.132  -1.912  0.00  0.00    +0.080 A 
ATOM      4  C   UNL     1      -1.972  -0.888  -2.743  0.00  0.00    +0.068 A 
ATOM      5  C   UNL     1      -2.136  -0.666  -4.170  0.00  0.00    -0.023 A 
ATOM      6  C   UNL     1      -2.742   0.498  -4.491  0.00  0.00    -0.005 A 
ATOM      7  S   UNL     1      -3.085   1.275  -2.937  0.00  0.00    -0.078 S 
ATOM      8  C   UNL     1      -3.049   1.004  -5.866  0.00  0.00    +0.043 C 
ATOM      9  C   UNL     1      -2.237   0.181  -6.877  0.00  0.00    +0.005 C 
ATOM     10  C   UNL     1      -2.405  -1.306  -6.552  0.00  0.00    +0.005 C 
ATOM     11  C   UNL     1      -1.678  -1.639  -5.248  0.00  0.00    +0.037 C 
ATOM     12  C   UNL     1      -1.361  -2.071  -2.096  0.00  0.00    +0.248 C 
ATOM     13  O   UNL     1      -1.081  -3.070  -2.735  0.00  0.00    -0.270 OA
ATOM     14  N   UNL     1      -1.126  -1.996  -0.770  0.00  0.00    -0.289 N 
ATOM     15  H   UNL     1      -2.972   0.564   0.031  0.00  0.00    +0.149 HD
ATOM     16  H   UNL     1      -0.830  -2.798  -0.312  0.00  0.00    +0.151 HD
ENDROOT
BRANCH   1  22
ATOM     17  C   UNL     1      -0.017   1.377   0.010  0.00  0.00    +0.030 A 
ATOM     18  C   UNL     1       1.171   2.087   0.002  0.00  0.00    +0.043 A 
ATOM     19  C   UNL     1       2.381   1.414  -0.014  0.00  0.00    +0.039 A 
ATOM     20  C   UNL     1       2.404   0.032  -0.021  0.00  0.00    +0.061 A 
ATOM     21  C   UNL     1       1.213  -0.680  -0.013  0.00  0.00    +0.137 A 
ATOM     22  C   UNL     1       0.002  -0.004   0.002  0.00  0.00    +0.034 A 
ATOM     23 BR   UNL     1       4.056  -0.886  -0.043  0.00  0.00    -0.046 Br
ATOM     24 CL   UNL     1       1.145   3.822   0.012  0.00  0.00    -0.083 Cl
BRANCH  21  25
ATOM     25  O   UNL     1       1.233  -2.040  -0.021  0.00  0.00    -0.505 OA
ATOM     26  H   UNL     1       1.248  -2.438   0.860  0.00  0.00    +0.292 HD
ENDBRANCH  21  25
ENDBRANCH   1  22
TORSDOF 2
