REMARK  Name = ZINC36629069
REMARK  10 active torsions:
REMARK  status: ('A' for Active; 'I' for Inactive)
REMARK    1  A    between atoms: C_1  and  C_2
REMARK    2  A    between atoms: C_2  and  C_3
REMARK    3  A    between atoms: C_3  and  N_4
REMARK    4  A    between atoms: C_10  and  N_16
REMARK    5  A    between atoms: C_11  and  C_12
REMARK    6  A    between atoms: C_12  and  O_14
REMARK    7  A    between atoms: O_14  and  C_15
REMARK    8  A    between atoms: C_17  and  C_19
REMARK    9  A    between atoms: C_20  and  C_31
REMARK   10  A    between atoms: C_23  and  C_24
REMARK                            x       y       z     vdW  Elec       q    Type
REMARK                         _______ _______ _______ _____ _____    ______ ____
ROOT
ATOM      1  N   UNL     1       0.738  -1.966  -1.265  0.00  0.00    +0.383 N 
ATOM      2  C   UNL     1       1.532  -2.438  -2.407  0.00  0.00    -0.074 C 
ATOM      3  C   UNL     1       1.827  -3.935  -2.263  0.00  0.00    +0.018 C 
ATOM      4  C   UNL     1       0.507  -4.650  -2.013  0.00  0.00    -0.025 A 
ATOM      5  C   UNL     1      -0.580  -3.951  -1.616  0.00  0.00    -0.021 A 
ATOM      6  S   UNL     1      -1.856  -5.162  -1.454  0.00  0.00    -0.079 S 
ATOM      7  C   UNL     1      -1.000  -6.541  -1.888  0.00  0.00    +0.086 A 
ATOM      8  C   UNL     1       0.279  -6.074  -2.162  0.00  0.00    +0.091 A 
ATOM      9  C   UNL     1      -0.641  -2.475  -1.376  0.00  0.00    -0.035 C 
ATOM     10  H   UNL     1       1.152  -2.301  -0.408  0.00  0.00    -0.081 HD
ENDROOT
BRANCH   7  11
ATOM     11  N   UNL     1      -1.463  -7.845  -1.955  0.00  0.00    -0.275 N 
ATOM     12  C   UNL     1      -2.747  -8.120  -1.651  0.00  0.00    +0.254 C 
ATOM     13  O   UNL     1      -3.499  -7.224  -1.317  0.00  0.00    -0.270 OA
ATOM     14  H   UNL     1      -0.864  -8.559  -2.221  0.00  0.00    +0.156 HD
BRANCH  12  15
ATOM     15  C   UNL     1      -3.239  -9.506  -1.723  0.00  0.00    +0.106 A 
ATOM     16  C   UNL     1      -3.236 -10.424  -0.714  0.00  0.00    +0.147 A 
ATOM     17  O   UNL     1      -3.765 -11.559  -1.179  0.00  0.00    -0.359 OA
ATOM     18  N   UNL     1      -4.131 -11.389  -2.533  0.00  0.00    -0.077 NA
ATOM     19  C   UNL     1      -3.836 -10.165  -2.895  0.00  0.00    +0.127 A 
ATOM     20  C   UNL     1      -2.721 -10.197   0.684  0.00  0.00    +0.090 C 
BRANCH  19  21
ATOM     21  C   UNL     1      -4.057  -9.561  -4.231  0.00  0.00    +0.023 A 
ATOM     22  C   UNL     1      -3.681  -8.241  -4.473  0.00  0.00    +0.011 A 
ATOM     23  C   UNL     1      -3.889  -7.684  -5.718  0.00  0.00    +0.001 A 
ATOM     24  C   UNL     1      -4.471  -8.433  -6.726  0.00  0.00    +0.001 A 
ATOM     25  C   UNL     1      -4.846  -9.743  -6.493  0.00  0.00    +0.020 A 
ATOM     26  C   UNL     1      -4.637 -10.314  -5.252  0.00  0.00    +0.050 A 
ATOM     27 CL   UNL     1      -5.102 -11.961  -4.962  0.00  0.00    -0.083 Cl
ENDBRANCH  19  21
ENDBRANCH  12  15
ENDBRANCH   7  11
BRANCH   8  28
ATOM     28  C   UNL     1       1.349  -6.980  -2.583  0.00  0.00    +0.342 C 
ATOM     29  O   UNL     1       2.064  -7.505  -1.751  0.00  0.00    -0.245 OA
BRANCH  28  30
ATOM     30  O   UNL     1       1.542  -7.232  -3.894  0.00  0.00    -0.464 OA
ATOM     31  C   UNL     1       2.604  -8.126  -4.233  0.00  0.00    +0.280 C 
ENDBRANCH  28  30
ENDBRANCH   8  28
BRANCH   1  32
ATOM     32  C   UNL     1       0.718  -0.497  -1.257  0.00  0.00    -0.079 C 
BRANCH  32  34
ATOM     33  C   UNL     1      -0.019   1.526   0.010  0.00  0.00    +0.002 C 
ATOM     34  C   UNL     1       0.002  -0.004   0.002  0.00  0.00    -0.022 C 
ENDBRANCH  32  34
ENDBRANCH   1  32
TORSDOF 7
