REMARK  Name = ZINC14548519
REMARK  3 active torsions:
REMARK  status: ('A' for Active; 'I' for Inactive)
REMARK    1  A    between atoms: C_1  and  C_2
REMARK    2  A    between atoms: C_4  and  N_23
REMARK    3  A    between atoms: C_9  and  C_18
REMARK                            x       y       z     vdW  Elec       q    Type
REMARK                         _______ _______ _______ _____ _____    ______ ____
ROOT
ATOM      1  C   UNL     1      -0.090   5.342   0.044  0.00  0.00    +0.046 C 
ATOM      2  C   UNL     1      -0.056   3.835   0.027  0.00  0.00    -0.027 A 
ATOM      3  C   UNL     1      -1.238   3.128   0.035  0.00  0.00    +0.038 A 
ATOM      4  C   UNL     1      -1.222   1.745   0.017  0.00  0.00    +0.127 A 
ATOM      5  C   UNL     1      -0.013   1.076   0.008  0.00  0.00    +0.038 A 
ATOM      6  C   UNL     1       1.175   1.776   0.000  0.00  0.00    -0.017 A 
ATOM      7  C   UNL     1       1.173   3.174   0.003  0.00  0.00    +0.034 A 
ATOM      8  N   UNL     1       2.325   3.956  -0.030  0.00  0.00    -0.336 N 
ATOM      9  C   UNL     1       3.612   3.244   0.031  0.00  0.00    +0.111 C 
ATOM     10  C   UNL     1       3.467   1.991  -0.806  0.00  0.00    +0.029 C 
ATOM     11  C   UNL     1       2.484   1.088   0.003  0.00  0.00    +0.049 C 
ATOM     12  C   UNL     1       2.685  -0.252  -0.601  0.00  0.00    -0.023 C 
ATOM     13  C   UNL     1       3.925  -0.321  -1.073  0.00  0.00    -0.030 C 
ATOM     14  C   UNL     1       4.644   1.010  -0.845  0.00  0.00    +0.033 C 
ATOM     15  H   UNL     1       2.284   4.690   0.661  0.00  0.00    +0.147 HD
ENDROOT
BRANCH   9  16
ATOM     16  C   UNL     1       3.927   2.876   1.458  0.00  0.00    +0.010 A 
ATOM     17  C   UNL     1       5.124   2.871   2.094  0.00  0.00    +0.013 A 
ATOM     18  C   UNL     1       5.176   2.492   3.422  0.00  0.00    +0.008 A 
ATOM     19  C   UNL     1       4.028   2.136   4.049  0.00  0.00    +0.045 A 
ATOM     20  S   UNL     1       2.820   2.338   2.751  0.00  0.00    -0.100 S 
ENDBRANCH   9  16
BRANCH   4  21
ATOM     21  N   UNL     1      -2.493   0.987   0.014  0.00  0.00    +0.056 N 
ATOM     22  O   UNL     1      -2.475  -0.231   0.002  0.00  0.00    -0.126 OA
ATOM     23  O   UNL     1      -3.556   1.580   0.022  0.00  0.00    -0.126 OA
ENDBRANCH   4  21
TORSDOF 2
