REMARK  Name = ZINC13388260
REMARK  8 active torsions:
REMARK  status: ('A' for Active; 'I' for Inactive)
REMARK    1  A    between atoms: C_1  and  C_2
REMARK    2  A    between atoms: C_8  and  N_10
REMARK    3  A    between atoms: N_10  and  C_11
REMARK    4  A    between atoms: N_16  and  C_19
REMARK    5  A    between atoms: C_22  and  N_25
REMARK    6  A    between atoms: C_29  and  N_33
REMARK    7  A    between atoms: N_33  and  C_34
REMARK    8  A    between atoms: C_40  and  C_42
REMARK                            x       y       z     vdW  Elec       q    Type
REMARK                         _______ _______ _______ _____ _____    ______ ____
ROOT
ATOM      1  C   UNL     1       4.919  -3.602   1.888  0.00  0.00    +0.044 A 
ATOM      2  C   UNL     1       4.074  -4.703   1.908  0.00  0.00    +0.026 A 
ATOM      3  C   UNL     1       4.587  -5.971   1.718  0.00  0.00    +0.026 A 
ATOM      4  C   UNL     1       5.948  -6.144   1.507  0.00  0.00    +0.044 A 
ATOM      5  C   UNL     1       6.793  -5.043   1.486  0.00  0.00    +0.026 A 
ATOM      6  C   UNL     1       6.279  -3.775   1.672  0.00  0.00    +0.026 A 
ENDROOT
BRANCH   1  11
ATOM      7  C   UNL     1       3.742  -0.123   1.650  0.00  0.00    +0.026 C 
ATOM      8  C   UNL     1       3.420  -0.474   3.117  0.00  0.00    +0.090 C 
ATOM      9  C   UNL     1       3.893  -1.905   3.252  0.00  0.00    +0.225 C 
ATOM     10  O   UNL     1       3.826  -2.574   4.260  0.00  0.00    -0.275 OA
ATOM     11  N   UNL     1       4.397  -2.314   2.081  0.00  0.00    -0.212 N 
ATOM     12  C   UNL     1       4.362  -1.393   1.106  0.00  0.00    +0.213 C 
ATOM     13  O   UNL     1       4.761  -1.549  -0.028  0.00  0.00    -0.277 OA
BRANCH   7  14
ATOM     14  N   UNL     1       4.699   0.989   1.582  0.00  0.00    +0.389 N 
ATOM     15  H   UNL     1       5.569   0.711   2.009  0.00  0.00    -0.084 HD
ATOM     16  H   UNL     1       4.323   1.786   2.073  0.00  0.00    -0.084 HD
BRANCH  14  23
ATOM     17  C   UNL     1       5.572   3.660   0.872  0.00  0.00    +0.006 C 
ATOM     18  C   UNL     1       6.023   2.419   0.099  0.00  0.00    -0.028 C 
ATOM     19  C   UNL     1       6.269   2.792  -1.364  0.00  0.00    +0.002 C 
ATOM     20  C   UNL     1       4.976   3.332  -1.978  0.00  0.00    +0.000 C 
ATOM     21  C   UNL     1       3.888   2.259  -1.900  0.00  0.00    -0.002 C 
ATOM     22  C   UNL     1       3.642   1.887  -0.437  0.00  0.00    -0.015 C 
ATOM     23  C   UNL     1       4.935   1.347   0.177  0.00  0.00    -0.068 C 
ENDBRANCH  14  23
ENDBRANCH   7  14
ENDBRANCH   1  11
BRANCH   4  24
ATOM     24  N   UNL     1       6.470  -7.432   1.315  0.00  0.00    -0.212 N 
ATOM     25  C   UNL     1       7.270  -8.030   2.206  0.00  0.00    +0.225 C 
ATOM     26  O   UNL     1       7.632  -7.549   3.258  0.00  0.00    -0.275 OA
ATOM     27  C   UNL     1       7.650  -9.402   1.692  0.00  0.00    +0.090 C 
ATOM     28  C   UNL     1       6.922  -9.494   0.336  0.00  0.00    +0.026 C 
ATOM     29  C   UNL     1       6.204  -8.167   0.228  0.00  0.00    +0.213 C 
ATOM     30  O   UNL     1       5.501  -7.822  -0.698  0.00  0.00    -0.277 OA
BRANCH  28  31
ATOM     31  N   UNL     1       7.889  -9.658  -0.759  0.00  0.00    +0.389 N 
ATOM     32  H   UNL     1       8.461  -8.830  -0.829  0.00  0.00    -0.084 HD
ATOM     33  H   UNL     1       8.475 -10.458  -0.573  0.00  0.00    -0.084 HD
BRANCH  31  34
ATOM     34  C   UNL     1       7.168  -9.863  -2.022  0.00  0.00    -0.068 C 
ATOM     35  C   UNL     1       6.397 -11.183  -1.961  0.00  0.00    -0.015 C 
ATOM     36  C   UNL     1       5.646 -11.396  -3.277  0.00  0.00    -0.002 C 
ATOM     37  C   UNL     1       6.646 -11.442  -4.434  0.00  0.00    +0.000 C 
ATOM     38  C   UNL     1       7.417 -10.122  -4.495  0.00  0.00    +0.002 C 
ATOM     39  C   UNL     1       8.168  -9.909  -3.179  0.00  0.00    -0.028 C 
ATOM     40  C   UNL     1       9.149 -11.062  -2.959  0.00  0.00    +0.006 C 
ENDBRANCH  31  34
ENDBRANCH  28  31
ENDBRANCH   4  24
TORSDOF 6
