REMARK  Name = ZINC34748301
REMARK  7 active torsions:
REMARK  status: ('A' for Active; 'I' for Inactive)
REMARK    1  A    between atoms: C_1  and  C_2
REMARK    2  A    between atoms: C_2  and  C_3
REMARK    3  A    between atoms: C_3  and  N_4
REMARK    4  A    between atoms: C_14  and  C_18
REMARK    5  A    between atoms: C_15  and  C_17
REMARK    6  A    between atoms: N_21  and  C_22
REMARK    7  A    between atoms: C_22  and  C_23
REMARK                            x       y       z     vdW  Elec       q    Type
REMARK                         _______ _______ _______ _____ _____    ______ ____
ROOT
ATOM      1  N   UNL     1       0.267  -2.768  -0.108  0.00  0.00    +0.382 N 
ATOM      2  C   UNL     1       0.352  -4.208   0.169  0.00  0.00    -0.060 C 
ATOM      3  C   UNL     1       1.039  -4.913  -1.005  0.00  0.00    +0.089 C 
ATOM      4  N   UNL     1       0.316  -4.574  -2.240  0.00  0.00    -0.304 N 
ATOM      5  C   UNL     1       0.042  -3.155  -2.516  0.00  0.00    +0.089 C 
ATOM      6  C   UNL     1      -0.598  -2.533  -1.271  0.00  0.00    -0.060 C 
ATOM      7  C   UNL     1      -0.092  -5.554  -3.111  0.00  0.00    +0.202 A 
ATOM      8  N   UNL     1      -1.276  -6.109  -2.956  0.00  0.00    -0.208 NA
ATOM      9  C   UNL     1      -1.697  -7.059  -3.783  0.00  0.00    +0.117 A 
ATOM     10  C   UNL     1      -0.910  -7.517  -4.856  0.00  0.00    +0.075 A 
ATOM     11  C   UNL     1      -1.522  -8.559  -5.663  0.00  0.00    -0.026 A 
ATOM     12  C   UNL     1      -2.748  -8.999  -5.345  0.00  0.00    -0.008 A 
ATOM     13  S   UNL     1      -3.178  -8.028  -3.913  0.00  0.00    -0.073 S 
ATOM     14  C   UNL     1      -3.567 -10.061  -6.033  0.00  0.00    +0.052 C 
ATOM     15  C   UNL     1      -0.787  -9.139  -6.844  0.00  0.00    +0.045 C 
ATOM     16  C   UNL     1       0.370  -6.896  -4.998  0.00  0.00    +0.264 A 
ATOM     17  O   UNL     1       1.121  -7.228  -5.899  0.00  0.00    -0.267 OA
ATOM     18  N   UNL     1       0.733  -5.935  -4.128  0.00  0.00    -0.271 N 
ATOM     19  H   UNL     1       1.191  -2.410  -0.299  0.00  0.00    -0.082 HD
ENDROOT
BRANCH   1  20
ATOM     20  C   UNL     1      -0.291  -2.078   1.063  0.00  0.00    -0.079 C 
BRANCH  20  22
ATOM     21  C   UNL     1       0.091  -1.499   3.463  0.00  0.00    +0.002 C 
ATOM     22  C   UNL     1       0.672  -2.218   2.244  0.00  0.00    -0.022 C 
ENDBRANCH  20  22
ENDBRANCH   1  20
BRANCH  18  23
ATOM     23  C   UNL     1       2.040  -5.291  -4.273  0.00  0.00    +0.224 C 
BRANCH  23  24
ATOM     24  C   UNL     1       3.084  -6.106  -3.554  0.00  0.00    +0.236 C 
ATOM     25  O   UNL     1       2.767  -7.125  -2.978  0.00  0.00    -0.274 OA
ATOM     26  N   UNL     1       4.370  -5.703  -3.552  0.00  0.00    -0.300 N 
ATOM     27  C   UNL     1       4.769  -4.467  -4.241  0.00  0.00    +0.108 C 
ATOM     28  C   UNL     1       5.526  -3.575  -3.253  0.00  0.00    +0.019 C 
ATOM     29  C   UNL     1       6.692  -4.362  -2.650  0.00  0.00    +0.003 C 
ATOM     30  C   UNL     1       6.151  -5.575  -1.889  0.00  0.00    +0.019 C 
ATOM     31  C   UNL     1       5.399  -6.487  -2.856  0.00  0.00    +0.108 C 
ENDBRANCH  23  24
ENDBRANCH  18  23
TORSDOF 4
