REMARK  Name = ZINC34747403
REMARK  5 active torsions:
REMARK  status: ('A' for Active; 'I' for Inactive)
REMARK    1  A    between atoms: C_1  and  C_2
REMARK    2  A    between atoms: C_2  and  C_4
REMARK    3  A    between atoms: C_4  and  N_5
REMARK    4  A    between atoms: N_18  and  C_21
REMARK    5  A    between atoms: C_21  and  C_22
REMARK                            x       y       z     vdW  Elec       q    Type
REMARK                         _______ _______ _______ _____ _____    ______ ____
ROOT
ATOM      1  N   UNL     1      -1.740  -0.860   1.517  0.00  0.00    -0.276 N 
ATOM      2  C   UNL     1      -1.233  -1.816   2.318  0.00  0.00    +0.264 A 
ATOM      3  O   UNL     1      -0.480  -2.663   1.869  0.00  0.00    -0.267 OA
ATOM      4  C   UNL     1      -1.589  -1.823   3.704  0.00  0.00    +0.076 A 
ATOM      5  C   UNL     1      -1.161  -2.757   4.746  0.00  0.00    -0.023 A 
ATOM      6  C   UNL     1      -1.641  -2.549   5.989  0.00  0.00    -0.004 A 
ATOM      7  S   UNL     1      -2.675  -1.117   5.849  0.00  0.00    -0.073 S 
ATOM      8  C   UNL     1      -2.461  -0.801   4.116  0.00  0.00    +0.117 A 
ATOM      9  N   UNL     1      -2.927   0.113   3.273  0.00  0.00    -0.208 NA
ATOM     10  C   UNL     1      -2.579   0.099   2.003  0.00  0.00    +0.202 A 
ATOM     11  N   UNL     1      -3.071   1.060   1.155  0.00  0.00    -0.304 N 
ATOM     12  C   UNL     1      -4.238   0.790   0.301  0.00  0.00    +0.089 C 
ATOM     13  C   UNL     1      -5.249   1.927   0.487  0.00  0.00    -0.059 C 
ATOM     14  N   UNL     1      -4.591   3.213   0.225  0.00  0.00    +0.387 N 
ATOM     15  C   UNL     1      -3.542   3.451   1.224  0.00  0.00    -0.059 C 
ATOM     16  C   UNL     1      -2.450   2.392   1.079  0.00  0.00    +0.089 C 
ATOM     17  C   UNL     1      -1.358  -3.358   7.218  0.00  0.00    +0.043 C 
ATOM     18  C   UNL     1      -0.730  -4.691   6.787  0.00  0.00    +0.005 C 
ATOM     19  C   UNL     1       0.386  -4.404   5.779  0.00  0.00    +0.005 C 
ATOM     20  C   UNL     1      -0.217  -3.922   4.459  0.00  0.00    +0.037 C 
ATOM     21  H   UNL     1      -4.179   3.197  -0.696  0.00  0.00    -0.081 HD
ENDROOT
BRANCH   1  22
ATOM     22  C   UNL     1      -1.380  -0.847   0.097  0.00  0.00    +0.158 C 
BRANCH  22  24
ATOM     23  C   UNL     1       0.016   1.336  -0.212  0.00  0.00    +0.040 C 
ATOM     24  C   UNL     1      -0.049  -0.163  -0.077  0.00  0.00    -0.060 C 
ATOM     25  C   UNL     1       1.053  -0.872  -0.112  0.00  0.00    +0.009 C 
ENDBRANCH  22  24
ENDBRANCH   1  22
BRANCH  14  26
ATOM     26  C   UNL     1      -5.585   4.293   0.295  0.00  0.00    +0.018 C 
BRANCH  26  27
ATOM     27  C   UNL     1      -4.938   5.597  -0.093  0.00  0.00    +0.194 C 
ATOM     28  O   UNL     1      -3.765   5.625  -0.399  0.00  0.00    -0.278 OA
ATOM     29  N   UNL     1      -5.663   6.733  -0.102  0.00  0.00    -0.331 N 
ATOM     30  H   UNL     1      -6.602   6.711   0.142  0.00  0.00    +0.145 HD
ATOM     31  H   UNL     1      -5.247   7.572  -0.352  0.00  0.00    +0.145 HD
ENDBRANCH  26  27
ENDBRANCH  14  26
TORSDOF 4
