REMARK  Name = ZINC38933825
REMARK  6 active torsions:
REMARK  status: ('A' for Active; 'I' for Inactive)
REMARK    1  A    between atoms: C_1  and  C_2
REMARK    2  A    between atoms: C_5  and  S_8
REMARK    3  A    between atoms: S_8  and  N_11
REMARK    4  A    between atoms: C_15  and  C_18
REMARK    5  A    between atoms: C_24  and  C_26
REMARK    6  A    between atoms: C_29  and  C_32
REMARK                            x       y       z     vdW  Elec       q    Type
REMARK                         _______ _______ _______ _____ _____    ______ ____
ROOT
ATOM      1  C   UNL     1       4.476  -4.703   2.437  0.00  0.00    +0.225 C 
ATOM      2  O   UNL     1       4.075  -5.518   3.241  0.00  0.00    -0.275 OA
ATOM      3  N   UNL     1       5.655  -4.082   2.638  0.00  0.00    -0.238 N 
ATOM      4  C   UNL     1       6.410  -4.374   3.763  0.00  0.00    +0.314 A 
ATOM      5  N   UNL     1       6.099  -5.233   4.704  0.00  0.00    -0.092 NA
ATOM      6  N   UNL     1       7.028  -5.248   5.594  0.00  0.00    -0.106 NA
ATOM      7  C   UNL     1       7.968  -4.399   5.256  0.00  0.00    +0.250 A 
ATOM      8  O   UNL     1       7.598  -3.832   4.087  0.00  0.00    -0.405 OA
ATOM      9  H   UNL     1       5.976  -3.430   1.995  0.00  0.00    +0.159 HD
ENDROOT
BRANCH   1  14
ATOM     10  N   UNL     1       1.651  -4.999  -0.034  0.00  0.00    -0.176 NA
ATOM     11  C   UNL     1       2.364  -5.199  -1.304  0.00  0.00    +0.109 C 
ATOM     12  C   UNL     1       3.645  -4.360  -1.286  0.00  0.00    +0.018 C 
ATOM     13  C   UNL     1       4.465  -4.714  -0.043  0.00  0.00    +0.015 C 
ATOM     14  C   UNL     1       3.656  -4.385   1.214  0.00  0.00    +0.091 C 
ATOM     15  C   UNL     1       2.376  -5.218   1.225  0.00  0.00    +0.122 C 
BRANCH  10  16
ATOM     16  S   UNL     1       0.063  -4.530  -0.023  0.00  0.00    +0.061 S 
ATOM     17  O   UNL     1      -0.476  -4.950   1.223  0.00  0.00    -0.153 OA
ATOM     18  O   UNL     1      -0.490  -4.937  -1.267  0.00  0.00    -0.153 OA
BRANCH  16  23
ATOM     19  C   UNL     1      -0.018   1.503   0.010  0.00  0.00    +0.044 C 
ATOM     20  C   UNL     1       0.002  -0.004   0.002  0.00  0.00    -0.050 A 
ATOM     21  C   UNL     1       0.006  -0.689  -1.199  0.00  0.00    +0.005 A 
ATOM     22  C   UNL     1       0.025  -2.071  -1.206  0.00  0.00    +0.029 A 
ATOM     23  C   UNL     1       0.040  -2.768  -0.013  0.00  0.00    +0.105 A 
ATOM     24  C   UNL     1       0.037  -2.084   1.188  0.00  0.00    +0.029 A 
ATOM     25  C   UNL     1       0.023  -0.702   1.195  0.00  0.00    +0.005 A 
ENDBRANCH  16  23
ENDBRANCH  10  16
ENDBRANCH   1  14
BRANCH   7  26
ATOM     26  C   UNL     1       9.207  -4.119   6.012  0.00  0.00    +0.039 A 
ATOM     27  C   UNL     1      10.122  -3.180   5.534  0.00  0.00    +0.014 A 
ATOM     28  C   UNL     1      11.276  -2.922   6.245  0.00  0.00    +0.013 A 
ATOM     29  C   UNL     1      11.527  -3.592   7.429  0.00  0.00    +0.055 A 
ATOM     30  C   UNL     1      10.624  -4.524   7.908  0.00  0.00    +0.013 A 
ATOM     31  C   UNL     1       9.463  -4.787   7.210  0.00  0.00    +0.014 A 
BRANCH  29  32
ATOM     32  C   UNL     1      12.790  -3.306   8.200  0.00  0.00    +0.417 C 
ATOM     33  F   UNL     1      12.556  -2.267   9.108  0.00  0.00    -0.166 F 
ATOM     34  F   UNL     1      13.182  -4.454   8.895  0.00  0.00    -0.166 F 
ATOM     35  F   UNL     1      13.803  -2.930   7.311  0.00  0.00    -0.166 F 
ENDBRANCH  29  32
ENDBRANCH   7  26
TORSDOF 5
