REMARK  Name = ZINC10644888
REMARK  9 active torsions:
REMARK  status: ('A' for Active; 'I' for Inactive)
REMARK    1  A    between atoms: C_1  and  C_2
REMARK    2  A    between atoms: C_5  and  N_9
REMARK    3  A    between atoms: C_10  and  C_12
REMARK    4  A    between atoms: C_12  and  O_13
REMARK    5  A    between atoms: O_13  and  C_14
REMARK    6  A    between atoms: C_14  and  C_16
REMARK    7  A    between atoms: C_17  and  N_27
REMARK    8  A    between atoms: C_19  and  C_26
REMARK    9  A    between atoms: C_21  and  C_25
REMARK                            x       y       z     vdW  Elec       q    Type
REMARK                         _______ _______ _______ _____ _____    ______ ____
ROOT
ATOM      1  C   UNL     1       1.069  -8.153  -2.796  0.00  0.00    +0.348 C 
ATOM      2  O   UNL     1       1.183  -8.897  -1.839  0.00  0.00    -0.244 OA
ENDROOT
BRANCH   1   3
ATOM      3  C   UNL     1       0.856  -8.689  -4.088  0.00  0.00    +0.119 A 
ATOM      4  C   UNL     1       0.745 -10.013  -4.456  0.00  0.00    +0.055 A 
ATOM      5  C   UNL     1       0.524 -10.322  -5.860  0.00  0.00    +0.030 A 
ATOM      6  C   UNL     1       0.379 -11.591  -6.474  0.00  0.00    -0.037 A 
ATOM      7  C   UNL     1       0.177 -11.655  -7.832  0.00  0.00    +0.025 A 
ATOM      8  C   UNL     1       0.116 -10.493  -8.588  0.00  0.00    +0.014 A 
ATOM      9  N   UNL     1       0.251  -9.315  -8.013  0.00  0.00    -0.353 N 
ATOM     10  C   UNL     1       0.446  -9.201  -6.717  0.00  0.00    +0.088 A 
ATOM     11  S   UNL     1       0.659  -7.815  -5.628  0.00  0.00    -0.062 S 
ATOM     12  C   UNL     1      -0.107 -10.579 -10.076  0.00  0.00    +0.063 C 
ATOM     13  C   UNL     1       0.447 -12.852  -5.651  0.00  0.00    +0.044 C 
ATOM     14  H   UNL     1       0.206  -8.513  -8.558  0.00  0.00    +0.166 HD
BRANCH   4  15
ATOM     15  N   UNL     1       0.841 -11.024  -3.511  0.00  0.00    -0.356 N 
ATOM     16  H   UNL     1       1.268 -10.851  -2.658  0.00  0.00    +0.142 HD
ATOM     17  H   UNL     1       0.481 -11.904  -3.705  0.00  0.00    +0.142 HD
ENDBRANCH   4  15
ENDBRANCH   1   3
BRANCH   1  18
ATOM     18  O   UNL     1       1.145  -6.816  -2.624  0.00  0.00    -0.451 OA
BRANCH  18  19
ATOM     19  C   UNL     1       1.362  -6.345  -1.292  0.00  0.00    +0.328 C 
BRANCH  19  21
ATOM     20  N   UNL     1       1.616  -4.169  -0.143  0.00  0.00    -0.281 N 
ATOM     21  C   UNL     1       1.419  -4.839  -1.296  0.00  0.00    +0.255 C 
ATOM     22  O   UNL     1       1.287  -4.229  -2.337  0.00  0.00    -0.272 OA
ATOM     23  H   UNL     1       1.737  -4.657   0.686  0.00  0.00    +0.155 HD
BRANCH  20  28
ATOM     24  C   UNL     1       1.734   1.504  -0.142  0.00  0.00    +0.044 C 
ATOM     25  C   UNL     1       1.703  -0.003  -0.142  0.00  0.00    -0.049 A 
ATOM     26  C   UNL     1       1.135  -0.681  -1.205  0.00  0.00    +0.005 A 
ATOM     27  C   UNL     1       1.105  -2.062  -1.208  0.00  0.00    +0.025 A 
ATOM     28  C   UNL     1       1.646  -2.769  -0.143  0.00  0.00    +0.052 A 
ATOM     29  C   UNL     1       2.216  -2.085   0.923  0.00  0.00    +0.062 A 
ATOM     30  C   UNL     1       2.248  -0.703   0.918  0.00  0.00    +0.025 A 
ATOM     31 CL   UNL     1       2.894  -2.965   2.258  0.00  0.00    -0.082 Cl
ENDBRANCH  20  28
ENDBRANCH  19  21
ENDBRANCH  18  19
ENDBRANCH   1  18
TORSDOF 6
