REMARK  Name = ZINC38776898
REMARK  10 active torsions:
REMARK  status: ('A' for Active; 'I' for Inactive)
REMARK    1  A    between atoms: C_1  and  C_2
REMARK    2  A    between atoms: C_2  and  O_3
REMARK    3  A    between atoms: O_3  and  C_4
REMARK    4  A    between atoms: C_7  and  C_10
REMARK    5  A    between atoms: N_12  and  C_13
REMARK    6  A    between atoms: C_13  and  C_15
REMARK    7  A    between atoms: C_13  and  C_19
REMARK    8  A    between atoms: C_15  and  C_16
REMARK    9  A    between atoms: C_16  and  S_17
REMARK   10  A    between atoms: S_17  and  C_18
REMARK                            x       y       z     vdW  Elec       q    Type
REMARK                         _______ _______ _______ _____ _____    ______ ____
ROOT
ATOM      1  C   UNL     1      -3.408  -8.049  -0.014  0.00  0.00    +0.160 C 
ENDROOT
BRANCH   1   2
ATOM      2  C   UNL     1      -4.790  -8.306  -0.559  0.00  0.00    +0.236 C 
ATOM      3  O   UNL     1      -5.580  -7.391  -0.663  0.00  0.00    -0.274 OA
ATOM      4  N   UNL     1      -5.148  -9.551  -0.930  0.00  0.00    -0.300 N 
ATOM      5  C   UNL     1      -4.245 -10.688  -0.704  0.00  0.00    +0.106 C 
ATOM      6  C   UNL     1      -5.002 -11.771   0.070  0.00  0.00    +0.009 C 
ATOM      7  C   UNL     1      -6.287 -12.126  -0.680  0.00  0.00    -0.037 C 
ATOM      8  C   UNL     1      -7.182 -10.891  -0.787  0.00  0.00    +0.009 C 
ATOM      9  C   UNL     1      -6.450  -9.798  -1.563  0.00  0.00    +0.106 C 
ATOM     10  C   UNL     1      -7.027 -13.237   0.066  0.00  0.00    +0.140 C 
ATOM     11  C   UNL     1      -6.113 -14.457   0.001  0.00  0.00    +0.042 C 
ATOM     12  N   UNL     1      -5.917 -14.816   1.209  0.00  0.00    -0.243 NA
ATOM     13  C   UNL     1      -6.493 -13.959   2.087  0.00  0.00    +0.216 C 
ATOM     14  N   UNL     1      -7.151 -12.980   1.501  0.00  0.00    -0.264 NA
ATOM     15  C   UNL     1      -5.532 -14.935  -1.305  0.00  0.00    +0.034 C 
ATOM     16  C   UNL     1      -4.956 -13.685  -1.996  0.00  0.00    -0.076 C 
ATOM     17  N   UNL     1      -5.954 -12.613  -2.027  0.00  0.00    +0.385 N 
ATOM     18  H   UNL     1      -6.793 -12.959  -2.467  0.00  0.00    -0.085 HD
ATOM     19  H   UNL     1      -5.593 -11.845  -2.573  0.00  0.00    -0.085 HD
ENDBRANCH   1   2
BRANCH   1  22
ATOM     20  C   UNL     1      -1.731  -6.315  -0.354  0.00  0.00    +0.245 C 
ATOM     21  O   UNL     1      -0.869  -7.162  -0.211  0.00  0.00    -0.270 OA
ATOM     22  N   UNL     1      -3.032  -6.657  -0.273  0.00  0.00    -0.300 N 
ATOM     23  H   UNL     1      -3.719  -5.982  -0.387  0.00  0.00    +0.150 HD
BRANCH  20  27
ATOM     24  C   UNL     1      -0.639  -2.281  -1.106  0.00  0.00    +0.121 A 
ATOM     25  C   UNL     1       0.347  -3.247  -0.943  0.00  0.00    +0.046 A 
ATOM     26  C   UNL     1      -0.003  -4.556  -0.699  0.00  0.00    +0.016 A 
ATOM     27  C   UNL     1      -1.351  -4.913  -0.615  0.00  0.00    +0.037 A 
ATOM     28  C   UNL     1      -2.339  -3.939  -0.779  0.00  0.00    +0.016 A 
ATOM     29  C   UNL     1      -1.981  -2.631  -1.018  0.00  0.00    +0.046 A 
BRANCH  24  30
ATOM     30  O   UNL     1      -0.290  -0.992  -1.346  0.00  0.00    -0.492 OA
BRANCH  30  32
ATOM     31  C   UNL     1       1.304   0.791  -1.699  0.00  0.00    +0.048 C 
ATOM     32  C   UNL     1       1.107  -0.701  -1.424  0.00  0.00    +0.225 C 
ENDBRANCH  30  32
ENDBRANCH  24  30
ENDBRANCH  20  27
ENDBRANCH   1  22
BRANCH   1  33
ATOM     33  C   UNL     1      -3.398  -8.308   1.494  0.00  0.00    +0.042 C 
BRANCH  33  34
ATOM     34  C   UNL     1      -1.968  -8.188   2.022  0.00  0.00    +0.071 C 
BRANCH  34  35
ATOM     35  S   UNL     1      -1.956  -8.495   3.810  0.00  0.00    -0.164 S 
ATOM     36  C   UNL     1      -0.211  -8.317   4.274  0.00  0.00    +0.084 C 
ENDBRANCH  34  35
ENDBRANCH  33  34
ENDBRANCH   1  33
TORSDOF 8
