REMARK  Name = ZINC35791436
REMARK  6 active torsions:
REMARK  status: ('A' for Active; 'I' for Inactive)
REMARK    1  A    between atoms: C_1  and  C_2
REMARK    2  A    between atoms: C_6  and  C_8
REMARK    3  A    between atoms: N_18  and  C_19
REMARK    4  A    between atoms: C_19  and  C_20
REMARK    5  A    between atoms: C_23  and  C_27
REMARK    6  A    between atoms: C_25  and  C_26
REMARK                            x       y       z     vdW  Elec       q    Type
REMARK                         _______ _______ _______ _____ _____    ______ ____
ROOT
ATOM      1  C   UNL     1       0.268  -3.012   1.978  0.00  0.00    +0.011 C 
ATOM      2  C   UNL     1       1.632  -3.639   1.827  0.00  0.00    +0.009 A 
ATOM      3  C   UNL     1       2.698  -3.088   1.214  0.00  0.00    +0.021 A 
ATOM      4  C   UNL     1       3.764  -4.005   1.315  0.00  0.00    +0.019 A 
ATOM      5  C   UNL     1       3.306  -5.084   1.983  0.00  0.00    +0.086 A 
ATOM      6  N   UNL     1       1.997  -4.871   2.292  0.00  0.00    -0.352 N 
ATOM      7  C   UNL     1       1.105  -5.800   2.994  0.00  0.00    +0.119 C 
ATOM      8  C   UNL     1       0.332  -5.031   4.069  0.00  0.00    +0.003 C 
ATOM      9  C   UNL     1      -0.945  -4.454   3.471  0.00  0.00    -0.075 C 
ATOM     10  N   UNL     1      -0.746  -4.071   2.071  0.00  0.00    +0.391 N 
ATOM     11  H   UNL     1      -0.440  -4.876   1.545  0.00  0.00    -0.080 HD
ENDROOT
BRANCH   1  17
ATOM     12  C   UNL     1      -0.776   1.482   0.039  0.00  0.00    +0.044 C 
ATOM     13  C   UNL     1      -0.522   0.008  -0.145  0.00  0.00    -0.050 A 
ATOM     14  C   UNL     1      -0.554  -0.546  -1.412  0.00  0.00    +0.003 A 
ATOM     15  C   UNL     1      -0.321  -1.898  -1.581  0.00  0.00    +0.000 A 
ATOM     16  C   UNL     1      -0.055  -2.696  -0.483  0.00  0.00    +0.002 A 
ATOM     17  C   UNL     1      -0.022  -2.142   0.782  0.00  0.00    -0.055 A 
ATOM     18  C   UNL     1      -0.251  -0.789   0.951  0.00  0.00    +0.005 A 
ENDBRANCH   1  17
BRANCH  10  19
ATOM     19  C   UNL     1      -2.015  -3.582   1.514  0.00  0.00    -0.041 C 
BRANCH  19  20
ATOM     20  C   UNL     1      -3.007  -4.715   1.454  0.00  0.00    -0.061 A 
ATOM     21  C   UNL     1      -2.594  -6.010   1.708  0.00  0.00    +0.002 A 
ATOM     22  C   UNL     1      -3.504  -7.048   1.652  0.00  0.00    +0.003 A 
ATOM     23  C   UNL     1      -4.827  -6.793   1.343  0.00  0.00    -0.050 A 
ATOM     24  C   UNL     1      -5.240  -5.498   1.090  0.00  0.00    +0.007 A 
ATOM     25  C   UNL     1      -4.330  -4.458   1.149  0.00  0.00    -0.049 A 
ATOM     26  C   UNL     1      -4.782  -3.046   0.879  0.00  0.00    +0.044 C 
ATOM     27  C   UNL     1      -5.819  -7.926   1.281  0.00  0.00    +0.044 C 
ENDBRANCH  19  20
ENDBRANCH  10  19
TORSDOF 3
