REMARK  Name = ZINC12702366
REMARK  9 active torsions:
REMARK  status: ('A' for Active; 'I' for Inactive)
REMARK    1  A    between atoms: C_3  and  C_6
REMARK    2  A    between atoms: C_6  and  N_7
REMARK    3  A    between atoms: N_7  and  C_8
REMARK    4  A    between atoms: C_8  and  C_10
REMARK    5  A    between atoms: C_8  and  C_17
REMARK    6  A    between atoms: N_19  and  C_20
REMARK    7  A    between atoms: C_25  and  C_27
REMARK    8  A    between atoms: C_28  and  N_35
REMARK    9  A    between atoms: C_29  and  C_32
REMARK                            x       y       z     vdW  Elec       q    Type
REMARK                         _______ _______ _______ _____ _____    ______ ____
ROOT
ATOM      1  N   UNL     1      -0.085   3.143   5.715  0.00  0.00    -0.277 N 
ATOM      2  C   UNL     1       0.284   3.282   7.004  0.00  0.00    +0.258 C 
ATOM      3  O   UNL     1       1.462   3.230   7.309  0.00  0.00    -0.269 OA
ENDROOT
BRANCH   2   4
ATOM      4  C   UNL     1      -0.731   3.495   8.038  0.00  0.00    +0.115 A 
ATOM      5  C   UNL     1      -0.727   4.389   9.110  0.00  0.00    +0.076 A 
ATOM      6  C   UNL     1      -1.885   4.300   9.883  0.00  0.00    +0.155 A 
ATOM      7  N   UNL     1      -2.812   3.427   9.556  0.00  0.00    -0.203 NA
ATOM      8  S   UNL     1      -2.296   2.678   8.268  0.00  0.00    +0.019 S 
BRANCH   6   9
ATOM      9  C   UNL     1      -2.065   5.171  11.059  0.00  0.00    +0.262 C 
ATOM     10  O   UNL     1      -1.203   5.976  11.357  0.00  0.00    -0.269 OA
ATOM     11  N   UNL     1      -3.183   5.075  11.805  0.00  0.00    -0.324 N 
ATOM     12  H   UNL     1      -3.870   4.433  11.567  0.00  0.00    +0.145 HD
ATOM     13  H   UNL     1      -3.301   5.648  12.578  0.00  0.00    +0.145 HD
ENDBRANCH   6   9
BRANCH   5  14
ATOM     14  N   UNL     1       0.311   5.271   9.376  0.00  0.00    -0.355 N 
ATOM     15  H   UNL     1       1.091   5.289   8.800  0.00  0.00    +0.142 HD
ATOM     16  H   UNL     1       0.257   5.870  10.137  0.00  0.00    +0.142 HD
ENDBRANCH   5  14
ENDBRANCH   2   4
BRANCH   1  17
ATOM     17  C   UNL     1      -1.481   3.357   5.327  0.00  0.00    +0.151 C 
BRANCH  17  20
ATOM     18  C   UNL     1      -2.243   7.081   5.076  0.00  0.00    +0.008 A 
ATOM     19  C   UNL     1      -1.869   5.821   4.648  0.00  0.00    +0.013 A 
ATOM     20  C   UNL     1      -1.847   4.803   5.543  0.00  0.00    +0.007 A 
ATOM     21  S   UNL     1      -2.372   5.618   7.042  0.00  0.00    -0.100 S 
ATOM     22  C   UNL     1      -2.576   7.262   6.377  0.00  0.00    +0.045 A 
ENDBRANCH  17  20
ENDBRANCH   1  17
BRANCH   1  23
ATOM     23  C   UNL     1       0.909   2.779   4.703  0.00  0.00    +0.193 C 
BRANCH  23  24
ATOM     24  C   UNL     1       0.683   1.355   4.266  0.00  0.00    -0.018 A 
ATOM     25  C   UNL     1      -0.593   0.923   3.954  0.00  0.00    +0.007 A 
ATOM     26  C   UNL     1      -0.801  -0.382   3.547  0.00  0.00    +0.020 A 
ATOM     27  C   UNL     1       0.267  -1.258   3.463  0.00  0.00    +0.041 A 
ATOM     28  C   UNL     1       1.542  -0.826   3.780  0.00  0.00    +0.020 A 
ATOM     29  C   UNL     1       1.750   0.480   4.182  0.00  0.00    +0.007 A 
ATOM     30 CL   UNL     1       0.005  -2.899   2.960  0.00  0.00    -0.084 Cl
ENDBRANCH  23  24
BRANCH  23  31
ATOM     31  C   UNL     1       0.776   3.697   3.515  0.00  0.00    +0.238 C 
ATOM     32  O   UNL     1      -0.321   4.062   3.151  0.00  0.00    -0.273 OA
ATOM     33  N   UNL     1       1.877   4.112   2.858  0.00  0.00    -0.311 N 
ATOM     34  H   UNL     1       2.755   3.820   3.149  0.00  0.00    +0.149 HD
BRANCH  33  35
ATOM     35  C   UNL     1       1.748   5.004   1.703  0.00  0.00    +0.073 C 
ATOM     36  C   UNL     1       2.964   4.853   0.765  0.00  0.00    +0.022 C 
ATOM     37  C   UNL     1       3.289   6.261   0.235  0.00  0.00    +0.002 C 
ATOM     38  C   UNL     1       2.259   7.218   0.868  0.00  0.00    +0.002 C 
ATOM     39  C   UNL     1       1.798   6.486   2.153  0.00  0.00    +0.022 C 
ENDBRANCH  33  35
ENDBRANCH  23  31
ENDBRANCH   1  23
TORSDOF 9
