REMARK  Name = ZINC34871837
REMARK  8 active torsions:
REMARK  status: ('A' for Active; 'I' for Inactive)
REMARK    1  A    between atoms: C_1  and  C_2
REMARK    2  A    between atoms: C_5  and  S_8
REMARK    3  A    between atoms: S_8  and  N_11
REMARK    4  A    between atoms: N_14  and  C_17
REMARK    5  A    between atoms: C_17  and  C_18
REMARK    6  A    between atoms: C_26  and  C_28
REMARK    7  A    between atoms: C_32  and  O_34
REMARK    8  A    between atoms: O_34  and  C_35
REMARK                            x       y       z     vdW  Elec       q    Type
REMARK                         _______ _______ _______ _____ _____    ______ ____
ROOT
ATOM      1  C   UNL     1       5.668  -7.890   1.042  0.00  0.00    +0.063 A 
ATOM      2  C   UNL     1       5.597  -8.794   2.080  0.00  0.00    +0.096 A 
ATOM      3  C   UNL     1       6.542  -8.745   3.106  0.00  0.00    +0.275 A 
ATOM      4  O   UNL     1       6.484  -9.544   4.029  0.00  0.00    -0.266 OA
ATOM      5  N   UNL     1       7.531  -7.804   3.077  0.00  0.00    -0.171 N 
ATOM      6  C   UNL     1       7.527  -6.947   2.010  0.00  0.00    +0.199 A 
ATOM      7  N   UNL     1       6.648  -6.989   1.041  0.00  0.00    -0.225 NA
ATOM      8  S   UNL     1       8.933  -5.908   2.342  0.00  0.00    -0.028 S 
ATOM      9  C   UNL     1       9.437  -6.676   3.873  0.00  0.00    +0.132 A 
ATOM     10  N   UNL     1       8.543  -7.619   4.013  0.00  0.00    -0.154 NA
ENDROOT
BRANCH   9  11
ATOM     11  C   UNL     1      10.574  -6.333   4.756  0.00  0.00    +0.012 A 
ATOM     12  C   UNL     1      10.804  -7.068   5.920  0.00  0.00    +0.011 A 
ATOM     13  C   UNL     1      11.865  -6.746   6.741  0.00  0.00    +0.004 A 
ATOM     14  C   UNL     1      12.702  -5.695   6.415  0.00  0.00    +0.045 A 
ATOM     15  C   UNL     1      12.481  -4.958   5.260  0.00  0.00    +0.121 A 
ATOM     16  C   UNL     1      11.423  -5.278   4.425  0.00  0.00    +0.056 A 
BRANCH  15  17
ATOM     17  O   UNL     1      13.307  -3.926   4.944  0.00  0.00    -0.495 OA
ATOM     18  C   UNL     1      14.382  -3.656   5.846  0.00  0.00    +0.277 C 
ENDBRANCH  15  17
ENDBRANCH   9  11
BRANCH   1  19
ATOM     19  C   UNL     1       4.659  -7.926  -0.076  0.00  0.00    +0.140 C 
BRANCH  19  23
ATOM     20  N   UNL     1       1.651  -4.999  -0.034  0.00  0.00    -0.174 NA
ATOM     21  C   UNL     1       2.370  -5.200  -1.302  0.00  0.00    +0.125 C 
ATOM     22  C   UNL     1       3.038  -6.579  -1.269  0.00  0.00    +0.102 C 
ATOM     23  N   UNL     1       3.867  -6.689  -0.061  0.00  0.00    -0.294 NA
ATOM     24  C   UNL     1       3.048  -6.604   1.156  0.00  0.00    +0.102 C 
ATOM     25  C   UNL     1       2.382  -5.220   1.223  0.00  0.00    +0.125 C 
BRANCH  20  26
ATOM     26  S   UNL     1       0.063  -4.530  -0.023  0.00  0.00    +0.061 S 
ATOM     27  O   UNL     1      -0.476  -4.950   1.223  0.00  0.00    -0.153 OA
ATOM     28  O   UNL     1      -0.490  -4.937  -1.267  0.00  0.00    -0.153 OA
BRANCH  26  33
ATOM     29  C   UNL     1      -0.018   1.503   0.010  0.00  0.00    +0.044 C 
ATOM     30  C   UNL     1       0.002  -0.004   0.002  0.00  0.00    -0.050 A 
ATOM     31  C   UNL     1       0.006  -0.689  -1.199  0.00  0.00    +0.005 A 
ATOM     32  C   UNL     1       0.025  -2.071  -1.206  0.00  0.00    +0.029 A 
ATOM     33  C   UNL     1       0.040  -2.768  -0.013  0.00  0.00    +0.105 A 
ATOM     34  C   UNL     1       0.037  -2.084   1.188  0.00  0.00    +0.029 A 
ATOM     35  C   UNL     1       0.023  -0.702   1.195  0.00  0.00    +0.005 A 
ENDBRANCH  26  33
ENDBRANCH  20  26
ENDBRANCH  19  23
ENDBRANCH   1  19
TORSDOF 6
