REMARK  Name = ZINC13495422
REMARK  14 active torsions:
REMARK  status: ('A' for Active; 'I' for Inactive)
REMARK    1  A    between atoms: C_1  and  C_2
REMARK    2  A    between atoms: C_2  and  C_3
REMARK    3  A    between atoms: C_3  and  C_5
REMARK    4  A    between atoms: C_3  and  N_16
REMARK    5  A    between atoms: N_9  and  C_10
REMARK    6  A    between atoms: N_16  and  C_17
REMARK    7  A    between atoms: N_16  and  C_26
REMARK    8  A    between atoms: C_17  and  C_18
REMARK    9  A    between atoms: C_23  and  O_24
REMARK   10  A    between atoms: O_24  and  C_25
REMARK   11  A    between atoms: C_26  and  C_27
REMARK   12  A    between atoms: C_31  and  O_39
REMARK   13  A    between atoms: O_39  and  C_40
REMARK   14  A    between atoms: C_40  and  C_41
REMARK                            x       y       z     vdW  Elec       q    Type
REMARK                         _______ _______ _______ _____ _____    ______ ____
ROOT
ATOM      1  N   UNL     1      -2.681   4.825   0.970  0.00  0.00    -0.284 NA
ENDROOT
BRANCH   1   2
ATOM      2  C   UNL     1      -3.566   5.710   1.738  0.00  0.00    +0.127 C 
BRANCH   2   3
ATOM      3  C   UNL     1      -2.981   5.940   3.108  0.00  0.00    +0.169 A 
ATOM      4  N   UNL     1      -2.469   5.032   3.903  0.00  0.00    -0.112 NA
ATOM      5  N   UNL     1      -2.077   5.621   4.979  0.00  0.00    -0.023 NA
ATOM      6  N   UNL     1      -2.325   6.881   4.892  0.00  0.00    -0.044 NA
ATOM      7  N   UNL     1      -2.878   7.118   3.751  0.00  0.00    -0.225 N 
BRANCH   7   8
ATOM      8  C   UNL     1      -3.315   8.424   3.249  0.00  0.00    +0.111 C 
ATOM      9  C   UNL     1      -2.114   9.369   3.174  0.00  0.00    +0.027 C 
ATOM     10  C   UNL     1      -2.570  10.732   2.651  0.00  0.00    +0.002 C 
ATOM     11  C   UNL     1      -3.620  11.317   3.598  0.00  0.00    +0.000 C 
ATOM     12  C   UNL     1      -4.821  10.372   3.673  0.00  0.00    +0.002 C 
ATOM     13  C   UNL     1      -4.365   9.008   4.197  0.00  0.00    +0.027 C 
ENDBRANCH   7   8
ENDBRANCH   2   3
BRANCH   2  15
ATOM     14  C   UNL     1      -5.589   4.936   0.493  0.00  0.00    +0.006 C 
ATOM     15  C   UNL     1      -4.944   5.060   1.875  0.00  0.00    +0.023 C 
ENDBRANCH   2  15
ENDBRANCH   1   2
BRANCH   1  16
ATOM     16  C   UNL     1      -2.909   3.417   1.323  0.00  0.00    +0.124 C 
BRANCH  16  17
ATOM     17  C   UNL     1      -1.767   2.579   0.808  0.00  0.00    +0.008 A 
ATOM     18  C   UNL     1      -1.935   1.802  -0.322  0.00  0.00    +0.008 A 
ATOM     19  C   UNL     1      -0.887   1.036  -0.797  0.00  0.00    +0.001 A 
ATOM     20  C   UNL     1       0.329   1.038  -0.138  0.00  0.00    +0.004 A 
ATOM     21  C   UNL     1       0.500   1.810   0.995  0.00  0.00    +0.046 A 
ATOM     22  C   UNL     1      -0.549   2.583   1.471  0.00  0.00    +0.124 A 
BRANCH  22  23
ATOM     23  O   UNL     1      -0.383   3.342   2.586  0.00  0.00    -0.495 OA
ATOM     24  C   UNL     1       0.898   3.297   3.217  0.00  0.00    +0.277 C 
ENDBRANCH  22  23
ENDBRANCH  16  17
ENDBRANCH   1  16
BRANCH   1  25
ATOM     25  C   UNL     1      -2.847   5.039  -0.474  0.00  0.00    +0.126 C 
BRANCH  25  26
ATOM     26  C   UNL     1      -2.120   6.294  -0.883  0.00  0.00    +0.031 A 
ATOM     27  C   UNL     1      -0.839   6.220  -1.323  0.00  0.00    +0.020 A 
ATOM     28  C   UNL     1      -0.162   7.457  -1.716  0.00  0.00    +0.002 A 
ATOM     29  C   UNL     1       1.157   7.441  -2.182  0.00  0.00    +0.055 A 
ATOM     30  C   UNL     1       1.767   8.626  -2.539  0.00  0.00    +0.121 A 
ATOM     31  C   UNL     1       1.077   9.832  -2.438  0.00  0.00    +0.047 A 
ATOM     32  C   UNL     1      -0.223   9.860  -1.982  0.00  0.00    +0.030 A 
ATOM     33  C   UNL     1      -0.857   8.677  -1.616  0.00  0.00    +0.049 A 
ATOM     34  N   UNL     1      -2.158   8.684  -1.156  0.00  0.00    -0.322 N 
ATOM     35  H   UNL     1      -2.707   9.634  -1.075  0.00  0.00    +0.169 HD
ATOM     36  C   UNL     1      -2.772   7.542  -0.801  0.00  0.00    +0.254 A 
ATOM     37  O   UNL     1      -3.922   7.587  -0.398  0.00  0.00    -0.268 OA
BRANCH  30  38
ATOM     38  O   UNL     1       3.050   8.617  -2.992  0.00  0.00    -0.492 OA
BRANCH  38  39
ATOM     39  C   UNL     1       3.622   9.878  -3.345  0.00  0.00    +0.225 C 
ATOM     40  C   UNL     1       5.058   9.669  -3.828  0.00  0.00    +0.048 C 
ENDBRANCH  38  39
ENDBRANCH  30  38
ENDBRANCH  25  26
ENDBRANCH   1  25
TORSDOF 11
