REMARK  Name = ZINC14676312
REMARK  6 active torsions:
REMARK  status: ('A' for Active; 'I' for Inactive)
REMARK    1  A    between atoms: C_1  and  C_2
REMARK    2  A    between atoms: C_2  and  C_4
REMARK    3  A    between atoms: C_2  and  S_18
REMARK    4  A    between atoms: C_9  and  C_12
REMARK    5  A    between atoms: S_18  and  C_19
REMARK    6  A    between atoms: N_23  and  C_24
REMARK                            x       y       z     vdW  Elec       q    Type
REMARK                         _______ _______ _______ _____ _____    ______ ____
ROOT
ATOM      1  C   UNL     1       0.731  -0.503   1.223  0.00  0.00    +0.232 C 
ATOM      2  O   UNL     1       1.911  -0.775   1.156  0.00  0.00    -0.274 OA
ATOM      3  N   UNL     1       0.071  -0.647   2.389  0.00  0.00    -0.264 N 
ATOM      4  C   UNL     1       0.744  -1.108   3.515  0.00  0.00    +0.165 A 
ATOM      5  N   UNL     1       0.283  -1.320   4.734  0.00  0.00    -0.225 NA
ATOM      6  C   UNL     1       1.073  -1.767   5.699  0.00  0.00    +0.080 A 
ATOM      7  C   UNL     1       2.390  -2.013   5.428  0.00  0.00    +0.076 A 
ATOM      8  S   UNL     1       2.459  -1.577   3.695  0.00  0.00    -0.060 S 
ATOM      9  H   UNL     1      -0.872  -0.430   2.443  0.00  0.00    +0.157 HD
ENDROOT
BRANCH   6  10
ATOM     10  C   UNL     1       0.533  -1.998   7.061  0.00  0.00    +0.001 A 
ATOM     11  C   UNL     1       1.369  -2.462   8.075  0.00  0.00    +0.010 A 
ATOM     12  C   UNL     1       0.861  -2.675   9.341  0.00  0.00    +0.001 A 
ATOM     13  C   UNL     1      -0.474  -2.429   9.603  0.00  0.00    +0.000 A 
ATOM     14  C   UNL     1      -1.309  -1.969   8.601  0.00  0.00    +0.001 A 
ATOM     15  C   UNL     1      -0.810  -1.746   7.333  0.00  0.00    +0.010 A 
ENDBRANCH   6  10
BRANCH   1  17
ATOM     16  C   UNL     1      -0.019   1.526   0.010  0.00  0.00    +0.029 C 
ATOM     17  C   UNL     1       0.002  -0.004   0.002  0.00  0.00    +0.137 C 
BRANCH  17  18
ATOM     18  S   UNL     1       0.851  -0.589  -1.490  0.00  0.00    -0.072 S 
BRANCH  18  19
ATOM     19  C   UNL     1      -0.189  -0.057  -2.809  0.00  0.00    +0.210 A 
ATOM     20  N   UNL     1      -1.314   0.616  -2.695  0.00  0.00    -0.101 NA
ATOM     21  N   UNL     1      -1.822   0.843  -3.852  0.00  0.00    -0.022 NA
ATOM     22  N   UNL     1      -1.074   0.343  -4.775  0.00  0.00    -0.043 NA
ATOM     23  N   UNL     1       0.021  -0.258  -4.131  0.00  0.00    -0.217 N 
BRANCH  23  24
ATOM     24  C   UNL     1       1.148  -0.954  -4.757  0.00  0.00    +0.112 C 
ATOM     25  C   UNL     1       1.888   0.007  -5.689  0.00  0.00    +0.027 C 
ATOM     26  C   UNL     1       3.065  -0.720  -6.342  0.00  0.00    +0.002 C 
ATOM     27  C   UNL     1       2.545  -1.912  -7.148  0.00  0.00    +0.000 C 
ATOM     28  C   UNL     1       1.804  -2.873  -6.216  0.00  0.00    +0.002 C 
ATOM     29  C   UNL     1       0.628  -2.146  -5.562  0.00  0.00    +0.027 C 
ENDBRANCH  23  24
ENDBRANCH  18  19
ENDBRANCH  17  18
ENDBRANCH   1  17
TORSDOF 5
