REMARK  Name = ZINC04861034
REMARK  7 active torsions:
REMARK  status: ('A' for Active; 'I' for Inactive)
REMARK    1  A    between atoms: C_1  and  C_2
REMARK    2  A    between atoms: C_2  and  C_3
REMARK    3  A    between atoms: C_2  and  C_4
REMARK    4  A    between atoms: C_2  and  C_5
REMARK    5  A    between atoms: C_18  and  C_20
REMARK    6  A    between atoms: C_20  and  N_62
REMARK    7  A    between atoms: C_26  and  C_28
REMARK                            x       y       z     vdW  Elec       q    Type
REMARK                         _______ _______ _______ _____ _____    ______ ____
ROOT
ATOM      1  C   UNL     1       0.718  -0.497  -1.257  0.00  0.00    -0.000 C 
ATOM      2  C   UNL     1       0.748  -2.029  -1.264  0.00  0.00    +0.009 C 
ATOM      3  C   UNL     1       1.237  -2.532  -2.621  0.00  0.00    +0.037 C 
ATOM      4  C   UNL     1       2.560  -1.848  -2.958  0.00  0.00    -0.023 A 
ATOM      5  C   UNL     1       2.925  -0.709  -2.325  0.00  0.00    -0.004 A 
ATOM      6  S   UNL     1       4.501  -0.277  -3.019  0.00  0.00    -0.073 S 
ATOM      7  C   UNL     1       4.665  -1.619  -4.153  0.00  0.00    +0.116 A 
ATOM      8  C   UNL     1       3.482  -2.365  -3.954  0.00  0.00    +0.075 A 
ATOM      9  C   UNL     1       3.315  -3.548  -4.749  0.00  0.00    +0.260 A 
ATOM     10  O   UNL     1       2.330  -4.260  -4.654  0.00  0.00    -0.267 OA
ATOM     11  N   UNL     1       4.322  -3.821  -5.613  0.00  0.00    -0.312 N 
ATOM     12  H   UNL     1       4.248  -4.637  -6.188  0.00  0.00    +0.170 HD
ATOM     13  C   UNL     1       5.424  -3.043  -5.734  0.00  0.00    +0.094 A 
ATOM     14  N   UNL     1       5.613  -1.953  -5.024  0.00  0.00    -0.229 NA
ATOM     15  C   UNL     1       2.162   0.025  -1.267  0.00  0.00    +0.046 C 
ENDROOT
BRANCH   1  17
ATOM     16  C   UNL     1      -0.019   1.526   0.010  0.00  0.00    +0.011 C 
ATOM     17  C   UNL     1       0.002  -0.004   0.002  0.00  0.00    -0.035 C 
ATOM     18  C   UNL     1       0.742  -0.511   1.242  0.00  0.00    +0.011 C 
ATOM     19  C   UNL     1      -1.433  -0.534   0.013  0.00  0.00    +0.011 C 
ENDBRANCH   1  17
BRANCH  13  20
ATOM     20  C   UNL     1       6.481  -3.444  -6.730  0.00  0.00    -0.003 C 
BRANCH  20  28
ATOM     21  C   UNL     1       7.128  -1.153  -7.169  0.00  0.00    -0.059 C 
ATOM     22  C   UNL     1       8.244  -0.126  -6.952  0.00  0.00    +0.089 C 
ATOM     23  N   UNL     1       9.471  -0.627  -7.589  0.00  0.00    -0.305 N 
ATOM     24  C   UNL     1       9.912  -1.993  -7.271  0.00  0.00    +0.089 C 
ATOM     25  C   UNL     1       8.730  -2.947  -7.476  0.00  0.00    -0.059 C 
ATOM     26  C   UNL     1      10.172   0.146  -8.442  0.00  0.00    +0.219 C 
ATOM     27  O   UNL     1      11.182  -0.283  -8.959  0.00  0.00    -0.275 OA
ATOM     28  N   UNL     1       7.587  -2.467  -6.669  0.00  0.00    +0.386 N 
ATOM     29  H   UNL     1       7.888  -2.364  -5.693  0.00  0.00    -0.081 HD
BRANCH  26  30
ATOM     30  C   UNL     1       9.702   1.543  -8.754  0.00  0.00    +0.075 C 
ATOM     31  C   UNL     1       9.182   1.814 -10.167  0.00  0.00    +0.013 C 
ATOM     32  C   UNL     1      10.540   2.369  -9.732  0.00  0.00    +0.013 C 
ENDBRANCH  26  30
ENDBRANCH  20  28
ENDBRANCH  13  20
TORSDOF 4
