REMARK  Name = ZINC20501870
REMARK  8 active torsions:
REMARK  status: ('A' for Active; 'I' for Inactive)
REMARK    1  A    between atoms: C_1  and  C_2
REMARK    2  A    between atoms: N_7  and  S_9
REMARK    3  A    between atoms: S_9  and  C_12
REMARK    4  A    between atoms: C_16  and  C_18
REMARK    5  A    between atoms: N_22  and  C_23
REMARK    6  A    between atoms: N_29  and  C_30
REMARK    7  A    between atoms: C_30  and  C_31
REMARK    8  A    between atoms: C_31  and  N_32
REMARK                            x       y       z     vdW  Elec       q    Type
REMARK                         _______ _______ _______ _____ _____    ______ ____
ROOT
ATOM      1  C   UNL     1      -1.468   4.395  -3.121  0.00  0.00    +0.058 A 
ATOM      2  C   UNL     1      -2.296   4.787  -4.111  0.00  0.00    +0.075 A 
ATOM      3  S   UNL     1      -3.901   4.616  -3.347  0.00  0.00    -0.059 S 
ATOM      4  C   UNL     1      -3.355   4.024  -1.753  0.00  0.00    +0.152 A 
ATOM      5  N   UNL     1      -4.072   3.697  -0.695  0.00  0.00    -0.336 N 
ATOM      6  N   UNL     1      -1.990   4.000  -1.919  0.00  0.00    -0.319 N 
ATOM      7  H   UNL     1      -3.581   3.268   0.191  0.00  0.00    +0.168 HD
ENDROOT
BRANCH   1  12
ATOM      8  C   UNL     1       1.905   3.728  -4.633  0.00  0.00    +0.106 A 
ATOM      9  C   UNL     1       2.735   4.373  -3.733  0.00  0.00    +0.028 A 
ATOM     10  C   UNL     1       2.203   5.025  -2.636  0.00  0.00    +0.003 A 
ATOM     11  C   UNL     1       0.838   5.041  -2.434  0.00  0.00    +0.010 A 
ATOM     12  C   UNL     1      -0.005   4.387  -3.334  0.00  0.00    +0.001 A 
ATOM     13  C   UNL     1       0.539   3.731  -4.440  0.00  0.00    +0.038 A 
BRANCH   8  14
ATOM     14  S   UNL     1       2.594   2.900  -6.027  0.00  0.00    +0.061 S 
ATOM     15  O   UNL     1       3.936   2.579  -5.688  0.00  0.00    -0.153 OA
ATOM     16  O   UNL     1       1.650   1.913  -6.420  0.00  0.00    -0.153 OA
BRANCH  14  22
ATOM     17  C   UNL     1       0.931   4.303 -10.613  0.00  0.00    +0.009 C 
ATOM     18  C   UNL     1       2.062   4.007  -9.626  0.00  0.00    +0.002 C 
ATOM     19  C   UNL     1       3.210   4.993  -9.855  0.00  0.00    +0.006 C 
ATOM     20  C   UNL     1       4.355   4.677  -8.890  0.00  0.00    +0.017 C 
ATOM     21  C   UNL     1       3.862   4.837  -7.449  0.00  0.00    +0.109 C 
ATOM     22  N   UNL     1       2.668   4.001  -7.263  0.00  0.00    -0.176 NA
ATOM     23  C   UNL     1       1.544   4.155  -8.196  0.00  0.00    +0.112 C 
ENDBRANCH  14  22
ENDBRANCH   8  14
ENDBRANCH   1  12
BRANCH   5  24
ATOM     24  C   UNL     1      -5.425   3.891  -0.699  0.00  0.00    +0.041 A 
ATOM     25  C   UNL     1      -5.957   5.134  -0.344  0.00  0.00    +0.025 A 
ATOM     26  C   UNL     1      -7.323   5.324  -0.357  0.00  0.00    +0.002 A 
ATOM     27  C   UNL     1      -8.167   4.285  -0.709  0.00  0.00    +0.000 A 
ATOM     28  C   UNL     1      -7.647   3.050  -1.056  0.00  0.00    +0.002 A 
ATOM     29  C   UNL     1      -6.283   2.847  -1.054  0.00  0.00    +0.025 A 
ENDBRANCH   5  24
BRANCH   6  30
ATOM     30  C   UNL     1      -1.113   3.565  -0.830  0.00  0.00    +0.139 C 
BRANCH  30  31
ATOM     31  C   UNL     1      -0.778   2.083  -1.005  0.00  0.00    +0.106 C 
BRANCH  31  32
ATOM     32  N   UNL     1      -0.002   1.616   0.152  0.00  0.00    -0.296 NA
ATOM     33  C   UNL     1       1.364   2.159   0.124  0.00  0.00    +0.112 C 
ATOM     34  C   UNL     1       2.117   1.697   1.374  0.00  0.00    +0.175 C 
ATOM     35  O   UNL     1       2.104   0.268   1.432  0.00  0.00    -0.377 OA
ATOM     36  C   UNL     1       0.789  -0.295   1.461  0.00  0.00    +0.175 C 
ATOM     37  C   UNL     1       0.023   0.147   0.211  0.00  0.00    +0.112 C 
ENDBRANCH  31  32
ENDBRANCH  30  31
ENDBRANCH   6  30
TORSDOF 7
