REMARK  Name = ZINC19912281
REMARK  12 active torsions:
REMARK  status: ('A' for Active; 'I' for Inactive)
REMARK    1  A    between atoms: C_1  and  C_2
REMARK    2  A    between atoms: C_2  and  N_3
REMARK    3  A    between atoms: N_6  and  C_9
REMARK    4  A    between atoms: C_9  and  C_10
REMARK    5  A    between atoms: C_10  and  C_12
REMARK    6  A    between atoms: C_10  and  O_35
REMARK    7  A    between atoms: C_12  and  O_13
REMARK    8  A    between atoms: O_13  and  C_14
REMARK    9  A    between atoms: C_22  and  O_25
REMARK   10  A    between atoms: O_25  and  C_26
REMARK   11  A    between atoms: C_28  and  C_34
REMARK   12  A    between atoms: C_30  and  C_32
REMARK                            x       y       z     vdW  Elec       q    Type
REMARK                         _______ _______ _______ _____ _____    ______ ____
ROOT
ATOM      1  C   UNL     1       1.354   0.403   3.729  0.00  0.00    +0.124 A 
ATOM      2  C   UNL     1       2.293  -0.626   3.731  0.00  0.00    +0.046 A 
ATOM      3  C   UNL     1       2.613  -1.268   4.893  0.00  0.00    +0.019 A 
ATOM      4  C   UNL     1       1.994  -0.889   6.085  0.00  0.00    +0.068 A 
ATOM      5  C   UNL     1       1.045   0.148   6.093  0.00  0.00    +0.142 A 
ATOM      6  C   UNL     1       0.735   0.794   4.904  0.00  0.00    +0.092 A 
ATOM      7  O   UNL     1       0.454   0.506   7.251  0.00  0.00    -0.459 OA
ATOM      8  C   UNL     1       0.735  -0.092   8.416  0.00  0.00    +0.245 A 
ATOM      9  C   UNL     1       1.628  -1.096   8.523  0.00  0.00    +0.210 A 
ATOM     10  C   UNL     1       2.312  -1.554   7.361  0.00  0.00    +0.234 A 
ATOM     11  O   UNL     1       3.126  -2.461   7.419  0.00  0.00    -0.283 OA
ENDROOT
BRANCH   1  12
ATOM     12  O   UNL     1       1.046   1.031   2.565  0.00  0.00    -0.489 OA
BRANCH  12  13
ATOM     13  C   UNL     1       1.723   0.585   1.389  0.00  0.00    +0.261 C 
BRANCH  13  14
ATOM     14  C   UNL     1       1.249   1.404   0.186  0.00  0.00    +0.166 C 
BRANCH  14  15
ATOM     15  O   UNL     1       1.643   2.768   0.354  0.00  0.00    -0.387 OA
ATOM     16  H   UNL     1       1.285   3.340   1.223  0.00  0.00    +0.210 HD
ENDBRANCH  14  15
BRANCH  14  17
ATOM     17  C   UNL     1       1.879   0.846  -1.091  0.00  0.00    +0.119 C 
BRANCH  17  21
ATOM     18  N   UNL     1       0.295   2.003  -4.832  0.00  0.00    +0.381 N 
ATOM     19  C   UNL     1       1.737   2.177  -4.612  0.00  0.00    -0.063 C 
ATOM     20  C   UNL     1       2.185   1.282  -3.454  0.00  0.00    +0.066 C 
ATOM     21  N   UNL     1       1.425   1.632  -2.246  0.00  0.00    -0.303 NA
ATOM     22  C   UNL     1      -0.018   1.458  -2.466  0.00  0.00    +0.066 C 
ATOM     23  C   UNL     1      -0.465   2.353  -3.624  0.00  0.00    -0.063 C 
ATOM     24  H   UNL     1       0.111   0.942  -5.054  0.00  0.00    -0.082 HD
BRANCH  18  26
ATOM     25  C   UNL     1      -1.596   2.397  -6.338  0.00  0.00    -0.017 C 
ATOM     26  C   UNL     1      -0.160   2.790  -5.987  0.00  0.00    -0.082 C 
ENDBRANCH  18  26
ENDBRANCH  17  21
ENDBRANCH  14  17
ENDBRANCH  13  14
ENDBRANCH  12  13
ENDBRANCH   1  12
BRANCH   9  27
ATOM     27  O   UNL     1       1.875  -1.668   9.733  0.00  0.00    -0.449 OA
BRANCH  27  28
ATOM     28  C   UNL     1       1.186  -1.205  10.809  0.00  0.00    +0.129 A 
ATOM     29  C   UNL     1       1.702  -0.165  11.569  0.00  0.00    +0.051 A 
ATOM     30  C   UNL     1       0.999   0.308  12.659  0.00  0.00    -0.028 A 
ATOM     31  C   UNL     1      -0.215  -0.262  13.001  0.00  0.00    +0.047 A 
ATOM     32  C   UNL     1      -0.729  -1.303  12.248  0.00  0.00    -0.028 A 
ATOM     33  C   UNL     1      -0.031  -1.776  11.154  0.00  0.00    +0.051 A 
ATOM     34  C   UNL     1      -2.050  -1.923  12.623  0.00  0.00    +0.045 C 
ATOM     35 CL   UNL     1      -1.094   0.330  14.376  0.00  0.00    -0.083 Cl
ATOM     36  C   UNL     1       1.556   1.442  13.481  0.00  0.00    +0.045 C 
ENDBRANCH  27  28
ENDBRANCH   9  27
TORSDOF 9
