REMARK  Name = ZINC09184761
REMARK  8 active torsions:
REMARK  status: ('A' for Active; 'I' for Inactive)
REMARK    1  A    between atoms: C_1  and  C_2
REMARK    2  A    between atoms: C_4  and  C_30
REMARK    3  A    between atoms: C_5  and  C_9
REMARK    4  A    between atoms: C_6  and  O_8
REMARK    5  A    between atoms: N_17  and  C_27
REMARK    6  A    between atoms: C_18  and  C_20
REMARK    7  A    between atoms: C_27  and  C_28
REMARK    8  A    between atoms: C_28  and  O_29
REMARK                            x       y       z     vdW  Elec       q    Type
REMARK                         _______ _______ _______ _____ _____    ______ ____
ROOT
ATOM      1  C   UNL     1       0.058  -4.255  -0.033  0.00  0.00    +0.075 A 
ATOM      2  C   UNL     1      -1.021  -5.081  -0.040  0.00  0.00    +0.035 A 
ATOM      3  C   UNL     1      -0.504  -6.396  -0.051  0.00  0.00    +0.153 A 
ATOM      4  N   UNL     1       0.810  -6.293  -0.050  0.00  0.00    -0.168 NA
ATOM      5  N   UNL     1       1.164  -5.057  -0.046  0.00  0.00    -0.276 N 
ATOM      6  H   UNL     1       2.081  -4.740  -0.049  0.00  0.00    +0.189 HD
ATOM      7  C   UNL     1      -1.645  -7.330  -0.059  0.00  0.00    +0.268 C 
ATOM      8  O   UNL     1      -1.549  -8.542  -0.069  0.00  0.00    -0.268 OA
ATOM      9  N   UNL     1      -2.806  -6.653  -0.053  0.00  0.00    -0.283 N 
ATOM     10  C   UNL     1      -2.519  -5.214  -0.041  0.00  0.00    +0.141 C 
ENDROOT
BRANCH   1  15
ATOM     11  C   UNL     1      -0.018   1.503   0.010  0.00  0.00    +0.044 C 
ATOM     12  C   UNL     1       0.002  -0.004   0.002  0.00  0.00    -0.047 A 
ATOM     13  C   UNL     1       0.006  -0.686  -1.202  0.00  0.00    +0.007 A 
ATOM     14  C   UNL     1       0.024  -2.066  -1.220  0.00  0.00    -0.038 A 
ATOM     15  C   UNL     1       0.039  -2.776  -0.020  0.00  0.00    +0.044 A 
ATOM     16  C   UNL     1       0.036  -2.083   1.195  0.00  0.00    +0.126 A 
ATOM     17  C   UNL     1       0.023  -0.698   1.197  0.00  0.00    +0.049 A 
ATOM     18  C   UNL     1       0.027  -2.803  -2.534  0.00  0.00    +0.044 C 
BRANCH  16  19
ATOM     19  O   UNL     1       0.051  -2.767   2.369  0.00  0.00    -0.506 OA
ATOM     20  H   UNL     1       0.938  -2.953   2.705  0.00  0.00    +0.292 HD
ENDBRANCH  16  19
ENDBRANCH   1  15
BRANCH  10  21
ATOM     21  C   UNL     1      -3.096  -4.561  -1.270  0.00  0.00    -0.022 A 
ATOM     22  C   UNL     1      -3.083  -5.231  -2.479  0.00  0.00    +0.007 A 
ATOM     23  C   UNL     1      -3.612  -4.633  -3.607  0.00  0.00    +0.015 A 
ATOM     24  C   UNL     1      -4.155  -3.363  -3.526  0.00  0.00    +0.018 A 
ATOM     25  C   UNL     1      -4.168  -2.693  -2.316  0.00  0.00    +0.015 A 
ATOM     26  C   UNL     1      -3.643  -3.294  -1.188  0.00  0.00    +0.007 A 
ATOM     27 BR   UNL     1      -4.879  -2.544  -5.069  0.00  0.00    -0.050 Br
ENDBRANCH  10  21
BRANCH   9  28
ATOM     28  C   UNL     1      -4.142  -7.254  -0.058  0.00  0.00    +0.137 C 
BRANCH  28  29
ATOM     29  C   UNL     1      -4.607  -7.476   1.383  0.00  0.00    +0.175 C 
BRANCH  29  30
ATOM     30  O   UNL     1      -4.763  -6.212   2.032  0.00  0.00    -0.393 OA
ATOM     31  H   UNL     1      -5.057  -6.276   2.951  0.00  0.00    +0.209 HD
ENDBRANCH  29  30
ENDBRANCH  28  29
ENDBRANCH   9  28
TORSDOF 6
