REMARK  Name = ZINC21737059
REMARK  6 active torsions:
REMARK  status: ('A' for Active; 'I' for Inactive)
REMARK    1  A    between atoms: N_9  and  C_26
REMARK    2  A    between atoms: C_10  and  C_12
REMARK    3  A    between atoms: C_12  and  S_13
REMARK    4  A    between atoms: S_13  and  C_14
REMARK    5  A    between atoms: C_17  and  C_19
REMARK    6  A    between atoms: C_26  and  C_27
REMARK                            x       y       z     vdW  Elec       q    Type
REMARK                         _______ _______ _______ _____ _____    ______ ____
ROOT
ATOM      1  C   UNL     1      -5.668  -1.847  -2.137  0.00  0.00    +0.001 A 
ATOM      2  C   UNL     1      -6.117  -2.254  -0.887  0.00  0.00    +0.002 A 
ATOM      3  C   UNL     1      -5.543  -1.761   0.263  0.00  0.00    +0.028 A 
ATOM      4  C   UNL     1      -4.497  -0.841   0.175  0.00  0.00    +0.078 A 
ATOM      5  C   UNL     1      -4.043  -0.429  -1.098  0.00  0.00    +0.065 A 
ATOM      6  C   UNL     1      -4.638  -0.939  -2.250  0.00  0.00    +0.015 A 
ATOM      7  C   UNL     1      -2.943   0.545  -1.157  0.00  0.00    +0.262 A 
ATOM      8  O   UNL     1      -2.508   0.945  -2.221  0.00  0.00    -0.267 OA
ATOM      9  N   UNL     1      -2.430   0.977   0.019  0.00  0.00    -0.287 N 
ATOM     10  C   UNL     1      -2.930   0.527   1.199  0.00  0.00    +0.124 A 
ATOM     11  N   UNL     1      -3.903  -0.330   1.282  0.00  0.00    -0.233 NA
ENDROOT
BRANCH  10  12
ATOM     12  C   UNL     1      -2.324   1.046   2.477  0.00  0.00    +0.153 C 
BRANCH  12  13
ATOM     13  S   UNL     1      -3.165   0.294   3.893  0.00  0.00    -0.058 S 
BRANCH  13  14
ATOM     14  C   UNL     1      -2.282   1.057   5.213  0.00  0.00    +0.278 A 
ATOM     15  N   UNL     1      -1.297   1.917   5.095  0.00  0.00    -0.101 NA
ATOM     16  N   UNL     1      -0.892   2.268   6.265  0.00  0.00    -0.106 NA
ATOM     17  C   UNL     1      -1.596   1.641   7.176  0.00  0.00    +0.249 A 
ATOM     18  O   UNL     1      -2.491   0.861   6.529  0.00  0.00    -0.411 OA
BRANCH  17  19
ATOM     19  C   UNL     1      -1.439   1.764   8.640  0.00  0.00    +0.040 A 
ATOM     20  C   UNL     1      -2.267   1.036   9.497  0.00  0.00    +0.013 A 
ATOM     21  C   UNL     1      -2.112   1.150  10.863  0.00  0.00    +0.002 A 
ATOM     22  C   UNL     1      -1.147   1.992  11.385  0.00  0.00    +0.020 A 
ATOM     23  C   UNL     1      -0.326   2.722  10.541  0.00  0.00    +0.042 A 
ATOM     24  C   UNL     1      -0.467   2.612   9.172  0.00  0.00    +0.033 A 
ATOM     25 CL   UNL     1       0.882   3.777  11.206  0.00  0.00    -0.084 Cl
ENDBRANCH  17  19
ENDBRANCH  13  14
ENDBRANCH  12  13
ENDBRANCH  10  12
BRANCH   9  26
ATOM     26  C   UNL     1      -1.330   1.944   0.019  0.00  0.00    +0.222 C 
BRANCH  26  27
ATOM     27  C   UNL     1      -0.014   1.209   0.009  0.00  0.00    +0.230 C 
ATOM     28  O   UNL     1       0.002  -0.004   0.002  0.00  0.00    -0.274 OA
ATOM     29  N   UNL     1       1.143   1.898   0.001  0.00  0.00    -0.328 N 
ATOM     30  H   UNL     1       2.103   1.361  -0.006  0.00  0.00    +0.145 HD
ATOM     31  H   UNL     1       1.129   2.998   0.003  0.00  0.00    +0.145 HD
ENDBRANCH  26  27
ENDBRANCH   9  26
TORSDOF 6
