REMARK  Name = ZINC13115562
REMARK  9 active torsions:
REMARK  status: ('A' for Active; 'I' for Inactive)
REMARK    1  A    between atoms: C_1  and  O_2
REMARK    2  A    between atoms: O_2  and  C_3
REMARK    3  A    between atoms: C_3  and  C_5
REMARK    4  A    between atoms: C_5  and  C_15
REMARK    5  A    between atoms: C_15  and  C_17
REMARK    6  A    between atoms: C_17  and  S_18
REMARK    7  A    between atoms: S_18  and  C_19
REMARK    8  A    between atoms: N_33  and  C_34
REMARK    9  A    between atoms: C_34  and  C_35
REMARK                            x       y       z     vdW  Elec       q    Type
REMARK                         _______ _______ _______ _____ _____    ______ ____
ROOT
ATOM      1  C   UNL     1      -1.330   1.947   0.019  0.00  0.00    +0.157 C 
ENDROOT
BRANCH   1   2
ATOM      2  C   UNL     1      -0.014   1.211   0.009  0.00  0.00    +0.183 C 
ATOM      3  O   UNL     1       0.002  -0.004   0.002  0.00  0.00    -0.291 OA
BRANCH   2   4
ATOM      4  C   UNL     1       1.194   1.931   0.001  0.00  0.00    +0.138 C 
ATOM      5  C   UNL     1       2.423   1.244  -0.014  0.00  0.00    +0.110 C 
ATOM      6  N   UNL     1       2.568  -0.106  -0.017  0.00  0.00    -0.301 N 
ATOM      7  C   UNL     1       3.927  -0.398  -0.038  0.00  0.00    +0.054 A 
ATOM      8  C   UNL     1       4.641  -1.588  -0.050  0.00  0.00    +0.025 A 
ATOM      9  C   UNL     1       6.021  -1.562  -0.063  0.00  0.00    +0.002 A 
ATOM     10  C   UNL     1       6.697  -0.354  -0.064  0.00  0.00    +0.002 A 
ATOM     11  C   UNL     1       5.997   0.836  -0.051  0.00  0.00    +0.025 A 
ATOM     12  C   UNL     1       4.609   0.821  -0.038  0.00  0.00    +0.054 A 
ATOM     13  N   UNL     1       3.648   1.826  -0.023  0.00  0.00    -0.301 N 
ATOM     14  H   UNL     1       1.847  -0.755  -0.008  0.00  0.00    +0.153 HD
ATOM     15  H   UNL     1       3.824   2.780  -0.019  0.00  0.00    +0.153 HD
BRANCH   4  16
ATOM     16  C   UNL     1       1.174   3.392   0.009  0.00  0.00    +0.345 C 
ATOM     17  O   UNL     1       2.220   4.015   0.002  0.00  0.00    -0.245 OA
BRANCH  16  19
ATOM     18  C   UNL     1       0.052   5.479   0.031  0.00  0.00    +0.280 C 
ATOM     19  O   UNL     1      -0.003   4.051   0.024  0.00  0.00    -0.464 OA
ENDBRANCH  16  19
ENDBRANCH   4  16
ENDBRANCH   2   4
ENDBRANCH   1   2
BRANCH   1  20
ATOM     20  S   UNL     1      -2.689   0.752   0.019  0.00  0.00    -0.080 S 
BRANCH  20  21
ATOM     21  C   UNL     1      -4.064   1.853   0.031  0.00  0.00    +0.173 A 
ATOM     22  N   UNL     1      -3.855   3.155   0.037  0.00  0.00    -0.216 NA
ATOM     23  C   UNL     1      -4.874   4.006   0.047  0.00  0.00    +0.117 A 
ATOM     24  C   UNL     1      -6.209   3.574   0.053  0.00  0.00    +0.076 A 
ATOM     25  C   UNL     1      -7.229   4.630   0.067  0.00  0.00    -0.023 A 
ATOM     26  C   UNL     1      -6.785   5.902   0.061  0.00  0.00    -0.004 A 
ATOM     27  S   UNL     1      -5.015   5.775   0.054  0.00  0.00    -0.073 S 
ATOM     28  C   UNL     1      -7.598   7.159   0.057  0.00  0.00    +0.043 C 
ATOM     29  C   UNL     1      -8.668   7.073   1.153  0.00  0.00    +0.005 C 
ATOM     30  C   UNL     1      -9.920   6.438   0.554  0.00  0.00    +0.001 C 
ATOM     31  C   UNL     1      -9.528   5.418  -0.513  0.00  0.00    +0.005 C 
ATOM     32  C   UNL     1      -8.715   4.286   0.102  0.00  0.00    +0.037 C 
ATOM     33  C   UNL     1      -6.407   2.157   0.045  0.00  0.00    +0.263 A 
ATOM     34  O   UNL     1      -7.533   1.690   0.048  0.00  0.00    -0.267 OA
ATOM     35  N   UNL     1      -5.332   1.347   0.029  0.00  0.00    -0.283 N 
BRANCH  35  36
ATOM     36  C   UNL     1      -5.526  -0.105   0.015  0.00  0.00    +0.154 C 
BRANCH  36  37
ATOM     37  C   UNL     1      -5.590  -0.617   1.430  0.00  0.00    -0.013 C 
ATOM     38  C   UNL     1      -6.620  -1.323   1.826  0.00  0.00    +0.005 C 
ENDBRANCH  36  37
ENDBRANCH  35  36
ENDBRANCH  20  21
ENDBRANCH   1  20
TORSDOF 8
