REMARK  Name = ZINC01373988
REMARK  9 active torsions:
REMARK  status: ('A' for Active; 'I' for Inactive)
REMARK    1  A    between atoms: C_4  and  C_7
REMARK    2  A    between atoms: C_7  and  C_8
REMARK    3  A    between atoms: C_8  and  N_9
REMARK    4  A    between atoms: C_10  and  C_14
REMARK    5  A    between atoms: C_14  and  N_15
REMARK    6  A    between atoms: N_15  and  C_16
REMARK    7  A    between atoms: N_15  and  C_26
REMARK    8  A    between atoms: C_16  and  C_17
REMARK    9  A    between atoms: C_26  and  C_27
REMARK                            x       y       z     vdW  Elec       q    Type
REMARK                         _______ _______ _______ _____ _____    ______ ____
ROOT
ATOM      1  N   UNL     1       3.928  -4.569  -0.162  0.00  0.00    -0.287 NA
ENDROOT
BRANCH   1   2
ATOM      2  C   UNL     1       4.474  -4.493   1.199  0.00  0.00    +0.163 C 
BRANCH   2   4
ATOM      3  N   UNL     1       6.516  -3.305   2.162  0.00  0.00    -0.228 N 
ATOM      4  C   UNL     1       5.862  -3.907   1.151  0.00  0.00    +0.165 A 
ATOM      5  N   UNL     1       6.667  -3.885   0.117  0.00  0.00    -0.112 NA
ATOM      6  N   UNL     1       7.758  -3.301   0.474  0.00  0.00    -0.023 NA
ATOM      7  N   UNL     1       7.668  -2.944   1.708  0.00  0.00    -0.044 NA
BRANCH   3   8
ATOM      8  C   UNL     1       6.012  -3.095   3.521  0.00  0.00    +0.152 C 
BRANCH   8   9
ATOM      9  C   UNL     1       5.170  -1.817   3.561  0.00  0.00    +0.058 C 
BRANCH   9  13
ATOM     10  C   UNL     1       3.513  -1.323   7.467  0.00  0.00    +0.000 A 
ATOM     11  C   UNL     1       4.747  -0.778   7.166  0.00  0.00    +0.000 A 
ATOM     12  C   UNL     1       5.284  -0.938   5.902  0.00  0.00    +0.004 A 
ATOM     13  C   UNL     1       4.586  -1.644   4.939  0.00  0.00    -0.046 A 
ATOM     14  C   UNL     1       3.352  -2.189   5.241  0.00  0.00    +0.004 A 
ATOM     15  C   UNL     1       2.815  -2.028   6.504  0.00  0.00    +0.000 A 
ENDBRANCH   9  13
ENDBRANCH   8   9
ENDBRANCH   3   8
ENDBRANCH   2   4
ENDBRANCH   1   2
BRANCH   1  16
ATOM     16  C   UNL     1       3.454  -3.254  -0.614  0.00  0.00    +0.120 C 
BRANCH  16  17
ATOM     17  C   UNL     1       4.636  -2.398  -0.992  0.00  0.00    -0.030 A 
ATOM     18  C   UNL     1       5.154  -1.497  -0.081  0.00  0.00    +0.009 A 
ATOM     19  C   UNL     1       6.238  -0.710  -0.423  0.00  0.00    +0.050 A 
ATOM     20  C   UNL     1       6.807  -0.822  -1.681  0.00  0.00    +0.166 A 
ATOM     21  C   UNL     1       6.285  -1.730  -2.599  0.00  0.00    +0.167 A 
ATOM     22  C   UNL     1       5.202  -2.520  -2.247  0.00  0.00    +0.054 A 
ATOM     23  O   UNL     1       7.012  -1.652  -3.751  0.00  0.00    -0.453 OA
ATOM     24  C   UNL     1       7.723  -0.403  -3.674  0.00  0.00    +0.466 C 
ATOM     25  O   UNL     1       7.862  -0.176  -2.258  0.00  0.00    -0.453 OA
ENDBRANCH  16  17
ENDBRANCH   1  16
BRANCH   1  26
ATOM     26  C   UNL     1       2.856  -5.571  -0.243  0.00  0.00    +0.125 C 
BRANCH  26  27
ATOM     27  C   UNL     1       2.596  -5.912  -1.688  0.00  0.00    +0.031 A 
ATOM     28  C   UNL     1       3.224  -6.973  -2.256  0.00  0.00    +0.020 A 
ATOM     29  C   UNL     1       2.950  -7.278  -3.659  0.00  0.00    +0.003 A 
ATOM     30  C   UNL     1       3.570  -8.360  -4.298  0.00  0.00    +0.059 A 
ATOM     31  C   UNL     1       3.291  -8.624  -5.622  0.00  0.00    +0.163 A 
ATOM     32  C   UNL     1       2.392  -7.818  -6.327  0.00  0.00    +0.164 A 
ATOM     33  C   UNL     1       1.777  -6.746  -5.705  0.00  0.00    +0.075 A 
ATOM     34  C   UNL     1       2.047  -6.465  -4.372  0.00  0.00    +0.053 A 
ATOM     35  N   UNL     1       1.442  -5.400  -3.735  0.00  0.00    -0.322 N 
ATOM     36  H   UNL     1       0.821  -4.841  -4.226  0.00  0.00    +0.169 HD
ATOM     37  C   UNL     1       1.697  -5.131  -2.443  0.00  0.00    +0.254 A 
ATOM     38  O   UNL     1       1.140  -4.186  -1.912  0.00  0.00    -0.268 OA
ATOM     39  O   UNL     1       2.106  -8.078  -7.632  0.00  0.00    -0.485 OA
ATOM     40  C   UNL     1       3.017  -8.929  -8.335  0.00  0.00    +0.270 C 
ATOM     41  C   UNL     1       3.320 -10.146  -7.450  0.00  0.00    +0.270 C 
ATOM     42  O   UNL     1       3.904  -9.678  -6.229  0.00  0.00    -0.485 OA
ENDBRANCH  26  27
ENDBRANCH   1  26
TORSDOF 9
