REMARK  Name = ZINC38966309
REMARK  7 active torsions:
REMARK  status: ('A' for Active; 'I' for Inactive)
REMARK    1  A    between atoms: C_1  and  N_2
REMARK    2  A    between atoms: C_7  and  C_9
REMARK    3  A    between atoms: C_12  and  O_15
REMARK    4  A    between atoms: O_15  and  C_16
REMARK    5  A    between atoms: C_16  and  C_17
REMARK    6  A    between atoms: C_20  and  N_23
REMARK    7  A    between atoms: N_28  and  C_31
REMARK                            x       y       z     vdW  Elec       q    Type
REMARK                         _______ _______ _______ _____ _____    ______ ____
ROOT
ATOM      1  C   UNL     1      -3.784  -0.833   2.640  0.00  0.00    +0.019 A 
ATOM      2  C   UNL     1      -4.568   0.320   2.572  0.00  0.00    +0.015 A 
ATOM      3  C   UNL     1      -5.617   0.490   3.450  0.00  0.00    +0.046 A 
ATOM      4  C   UNL     1      -5.893  -0.484   4.402  0.00  0.00    +0.121 A 
ATOM      5  C   UNL     1      -5.114  -1.632   4.472  0.00  0.00    +0.046 A 
ATOM      6  C   UNL     1      -4.068  -1.811   3.593  0.00  0.00    +0.015 A 
ENDROOT
BRANCH   1  12
ATOM      7  C   UNL     1      -0.018   1.461   0.010  0.00  0.00    +0.136 C 
ATOM      8  N   UNL     1       0.002  -0.004   0.002  0.00  0.00    -0.261 N 
ATOM      9  C   UNL     1      -1.250  -0.759   0.004  0.00  0.00    +0.251 C 
ATOM     10  C   UNL     1      -0.948  -2.030   0.793  0.00  0.00    +0.148 C 
ATOM     11  N   UNL     1      -1.848  -2.116   1.694  0.00  0.00    -0.223 NA
ATOM     12  C   UNL     1      -2.657  -1.019   1.698  0.00  0.00    +0.158 C 
ATOM     13  N   UNL     1      -2.333  -0.140   0.763  0.00  0.00    -0.236 NA
ATOM     14  C   UNL     1       0.296  -2.790   0.517  0.00  0.00    +0.272 C 
ATOM     15  O   UNL     1       0.387  -3.995   0.638  0.00  0.00    -0.268 OA
ATOM     16  N   UNL     1       1.329  -1.994   0.112  0.00  0.00    -0.224 N 
ATOM     17  C   UNL     1       1.174  -0.668  -0.013  0.00  0.00    +0.313 C 
ATOM     18  O   UNL     1       2.183  -0.003  -0.146  0.00  0.00    -0.252 OA
ATOM     19  C   UNL     1       2.627  -2.598  -0.197  0.00  0.00    +0.143 C 
ENDBRANCH   1  12
BRANCH   4  20
ATOM     20  O   UNL     1      -6.927  -0.313   5.265  0.00  0.00    -0.487 OA
BRANCH  20  21
ATOM     21  C   UNL     1      -7.155  -1.353   6.218  0.00  0.00    +0.264 C 
BRANCH  21  22
ATOM     22  C   UNL     1      -8.333  -0.991   7.085  0.00  0.00    -0.010 A 
ATOM     23  C   UNL     1      -8.139  -0.274   8.251  0.00  0.00    +0.009 A 
ATOM     24  C   UNL     1      -9.220   0.058   9.046  0.00  0.00    +0.033 A 
ATOM     25  C   UNL     1     -10.495  -0.326   8.674  0.00  0.00    +0.126 A 
ATOM     26  C   UNL     1     -10.690  -1.041   7.507  0.00  0.00    +0.033 A 
ATOM     27  C   UNL     1      -9.609  -1.370   6.710  0.00  0.00    +0.009 A 
BRANCH  25  28
ATOM     28  N   UNL     1     -11.653   0.029   9.526  0.00  0.00    +0.056 N 
ATOM     29  O   UNL     1     -11.483   0.655  10.546  0.00  0.00    -0.126 OA
ATOM     30  O   UNL     1     -12.768  -0.306   9.201  0.00  0.00    -0.126 OA
ENDBRANCH  25  28
ENDBRANCH  21  22
ENDBRANCH  20  21
ENDBRANCH   4  20
TORSDOF 5
