REMARK  Name = ZINC08791221
REMARK  4 active torsions:
REMARK  status: ('A' for Active; 'I' for Inactive)
REMARK    1  A    between atoms: C_4  and  C_7
REMARK    2  A    between atoms: C_7  and  N_8
REMARK    3  A    between atoms: C_13  and  C_30
REMARK    4  A    between atoms: C_30  and  C_31
REMARK                            x       y       z     vdW  Elec       q    Type
REMARK                         _______ _______ _______ _____ _____    ______ ____
ROOT
ATOM      1  N   UNL     1      -1.391   1.325  -1.064  0.00  0.00    -0.237 N 
ATOM      2  C   UNL     1      -0.850   2.262  -1.851  0.00  0.00    +0.224 C 
ATOM      3  O   UNL     1       0.263   2.725  -1.725  0.00  0.00    -0.275 OA
ATOM      4  C   UNL     1      -1.843   2.654  -2.921  0.00  0.00    +0.073 C 
ATOM      5  C   UNL     1      -2.302   4.108  -2.684  0.00  0.00    -0.053 C 
ATOM      6  C   UNL     1      -4.167   2.794  -2.182  0.00  0.00    +0.050 C 
ATOM      7  C   UNL     1      -3.082   1.771  -2.602  0.00  0.00    +0.088 C 
ATOM      8  C   UNL     1      -2.637   0.970  -1.399  0.00  0.00    +0.225 C 
ATOM      9  O   UNL     1      -3.305   0.136  -0.827  0.00  0.00    -0.275 OA
ATOM     10  C   UNL     1      -5.051   2.250  -1.096  0.00  0.00    -0.026 A 
ATOM     11  C   UNL     1      -4.812   1.790   0.180  0.00  0.00    +0.004 A 
ATOM     12  C   UNL     1      -5.862   1.343   0.963  0.00  0.00    +0.002 A 
ATOM     13  C   UNL     1      -7.150   1.359   0.462  0.00  0.00    +0.022 A 
ATOM     14  C   UNL     1      -7.395   1.819  -0.817  0.00  0.00    +0.062 A 
ATOM     15  C   UNL     1      -6.343   2.270  -1.612  0.00  0.00    +0.054 A 
ATOM     16  N   UNL     1      -6.335   2.772  -2.916  0.00  0.00    -0.285 N 
ATOM     17  C   UNL     1      -5.094   3.102  -3.325  0.00  0.00    +0.211 C 
ATOM     18  O   UNL     1      -4.786   3.558  -4.405  0.00  0.00    -0.277 OA
ATOM     19 CL   UNL     1      -9.017   1.835  -1.435  0.00  0.00    -0.082 Cl
ATOM     20  H   UNL     1      -7.130   2.871  -3.463  0.00  0.00    +0.155 HD
ATOM     21  N   UNL     1      -3.434   3.978  -1.765  0.00  0.00    +0.394 N 
ATOM     22  H   UNL     1      -4.037   4.807  -1.825  0.00  0.00    -0.083 HD
ATOM     23  H   UNL     1      -3.099   3.867  -0.801  0.00  0.00    -0.083 HD
ENDROOT
BRANCH   1  24
ATOM     24  C   UNL     1      -0.676   0.731   0.068  0.00  0.00    +0.151 C 
BRANCH  24  28
ATOM     25  C   UNL     1      -1.433   3.024   3.592  0.00  0.00    +0.000 A 
ATOM     26  C   UNL     1      -2.262   1.968   3.263  0.00  0.00    +0.000 A 
ATOM     27  C   UNL     1      -2.017   1.226   2.123  0.00  0.00    +0.005 A 
ATOM     28  C   UNL     1      -0.943   1.540   1.311  0.00  0.00    -0.030 A 
ATOM     29  C   UNL     1      -0.111   2.593   1.643  0.00  0.00    +0.005 A 
ATOM     30  C   UNL     1      -0.359   3.338   2.781  0.00  0.00    +0.000 A 
ENDBRANCH  24  28
ENDBRANCH   1  24
BRANCH   5  31
ATOM     31  C   UNL     1      -2.760   4.742  -3.999  0.00  0.00    +0.022 C 
BRANCH  31  32
ATOM     32  C   UNL     1      -1.604   5.472  -4.634  0.00  0.00    -0.024 A 
ATOM     33  C   UNL     1      -1.326   6.780  -4.520  0.00  0.00    +0.087 A 
ATOM     34  N   UNL     1      -0.197   7.082  -5.232  0.00  0.00    -0.360 N 
ATOM     35  H   UNL     1       0.201   7.963  -5.298  0.00  0.00    +0.165 HD
ATOM     36  C   UNL     1       0.285   5.948  -5.847  0.00  0.00    +0.047 A 
ATOM     37  C   UNL     1      -0.575   4.890  -5.499  0.00  0.00    +0.003 A 
ATOM     38  C   UNL     1      -0.330   3.604  -5.985  0.00  0.00    +0.010 A 
ATOM     39  C   UNL     1       0.747   3.380  -6.796  0.00  0.00    +0.001 A 
ATOM     40  C   UNL     1       1.598   4.420  -7.142  0.00  0.00    +0.002 A 
ATOM     41  C   UNL     1       1.374   5.696  -6.674  0.00  0.00    +0.026 A 
ENDBRANCH  31  32
ENDBRANCH   5  31
TORSDOF 4
