REMARK  Name = ZINC63281009
REMARK  5 active torsions:
REMARK  status: ('A' for Active; 'I' for Inactive)
REMARK    1  A    between atoms: C_4  and  C_7
REMARK    2  A    between atoms: N_9  and  C_10
REMARK    3  A    between atoms: C_10  and  C_11
REMARK    4  A    between atoms: C_17  and  C_20
REMARK    5  A    between atoms: N_22  and  C_23
REMARK                            x       y       z     vdW  Elec       q    Type
REMARK                         _______ _______ _______ _____ _____    ______ ____
ROOT
ATOM      1  C   UNL     1       4.746  -4.230  -0.067  0.00  0.00    +0.233 C 
ATOM      2  O   UNL     1       3.609  -4.653  -0.058  0.00  0.00    -0.274 OA
ATOM      3  N   UNL     1       5.784  -5.089  -0.081  0.00  0.00    -0.299 N 
ATOM      4  C   UNL     1       7.167  -4.592  -0.086  0.00  0.00    +0.108 C 
ATOM      5  C   UNL     1       7.914  -5.225  -1.264  0.00  0.00    +0.020 C 
ATOM      6  C   UNL     1       7.794  -6.748  -1.180  0.00  0.00    +0.016 C 
ATOM      7  C   UNL     1       6.320  -7.151  -1.271  0.00  0.00    +0.092 C 
ATOM      8  C   UNL     1       5.555  -6.540  -0.087  0.00  0.00    +0.120 C 
ENDROOT
BRANCH   7   9
ATOM      9  C   UNL     1       6.206  -8.653  -1.221  0.00  0.00    +0.220 C 
ATOM     10  O   UNL     1       7.204  -9.335  -1.123  0.00  0.00    -0.275 OA
ATOM     11  N   UNL     1       4.993  -9.239  -1.286  0.00  0.00    -0.278 N 
ATOM     12  H   UNL     1       4.195  -8.694  -1.364  0.00  0.00    +0.152 HD
BRANCH  11  13
ATOM     13  C   UNL     1       4.882 -10.699  -1.237  0.00  0.00    +0.269 C 
ATOM     14  N   UNL     1       5.224 -11.274  -2.545  0.00  0.00    -0.348 N 
ATOM     15  C   UNL     1       4.176 -11.914  -2.976  0.00  0.00    +0.061 A 
ATOM     16  C   UNL     1       3.907 -12.681  -4.200  0.00  0.00    +0.027 A 
ATOM     17  C   UNL     1       2.697 -13.247  -4.379  0.00  0.00    +0.002 A 
ATOM     18  C   UNL     1       1.661 -13.136  -3.433  0.00  0.00    +0.002 A 
ATOM     19  C   UNL     1       1.802 -12.456  -2.278  0.00  0.00    +0.027 A 
ATOM     20  C   UNL     1       3.080 -11.797  -1.975  0.00  0.00    +0.061 A 
ATOM     21  N   UNL     1       3.493 -11.089  -0.964  0.00  0.00    -0.348 N 
ATOM     22  H   UNL     1       6.075 -11.191  -3.003  0.00  0.00    +0.163 HD
ATOM     23  H   UNL     1       2.978 -10.862  -0.174  0.00  0.00    +0.163 HD
ENDBRANCH  11  13
ENDBRANCH   7   9
BRANCH   1  24
ATOM     24  C   UNL     1       4.997  -2.744  -0.061  0.00  0.00    +0.200 C 
BRANCH  24  27
ATOM     25  C   UNL     1       3.696  -0.685  -0.037  0.00  0.00    +0.244 C 
ATOM     26  O   UNL     1       4.738  -0.060  -0.044  0.00  0.00    -0.270 OA
ATOM     27  N   UNL     1       3.717  -2.032  -0.045  0.00  0.00    -0.303 N 
ATOM     28  H   UNL     1       2.885  -2.531  -0.039  0.00  0.00    +0.150 HD
BRANCH  25  32
ATOM     29  C   UNL     1      -0.017   1.379   0.010  0.00  0.00    +0.000 A 
ATOM     30  C   UNL     1       1.168   2.094   0.002  0.00  0.00    +0.001 A 
ATOM     31  C   UNL     1       2.377   1.429  -0.013  0.00  0.00    +0.013 A 
ATOM     32  C   UNL     1       2.403   0.034  -0.021  0.00  0.00    +0.037 A 
ATOM     33  C   UNL     1       1.204  -0.681  -0.013  0.00  0.00    +0.013 A 
ATOM     34  C   UNL     1       0.002  -0.004   0.002  0.00  0.00    +0.001 A 
ENDBRANCH  25  32
ENDBRANCH  24  27
ENDBRANCH   1  24
TORSDOF 5
