REMARK  Name = ZINC08747257
REMARK  14 active torsions:
REMARK  status: ('A' for Active; 'I' for Inactive)
REMARK    1  A    between atoms: C_1  and  C_2
REMARK    2  A    between atoms: C_11  and  N_31
REMARK    3  A    between atoms: C_13  and  C_15
REMARK    4  A    between atoms: C_15  and  C_16
REMARK    5  A    between atoms: C_16  and  N_64
REMARK    6  A    between atoms: C_17  and  N_64
REMARK    7  A    between atoms: C_18  and  C_19
REMARK    8  A    between atoms: C_18  and  N_64
REMARK    9  A    between atoms: C_22  and  O_29
REMARK   10  A    between atoms: C_23  and  O_27
REMARK   11  A    between atoms: C_24  and  O_25
REMARK   12  A    between atoms: O_25  and  C_26
REMARK   13  A    between atoms: O_27  and  C_28
REMARK   14  A    between atoms: O_29  and  C_30
REMARK                            x       y       z     vdW  Elec       q    Type
REMARK                         _______ _______ _______ _____ _____    ______ ____
ROOT
ATOM      1  C   UNL     1       0.512   0.803  -0.571  0.00  0.00    +0.058 C 
ENDROOT
BRANCH   1  13
ATOM      2  C   UNL     1      -5.709   5.957  -6.419  0.00  0.00    +0.008 C 
ATOM      3  C   UNL     1      -5.048   5.106  -5.333  0.00  0.00    -0.009 C 
ATOM      4  C   UNL     1      -4.840   3.680  -5.854  0.00  0.00    +0.008 C 
ATOM      5  C   UNL     1      -4.412   2.766  -4.706  0.00  0.00    +0.037 C 
ATOM      6  C   UNL     1      -3.212   3.390  -3.999  0.00  0.00    -0.025 A 
ATOM      7  C   UNL     1      -2.929   4.700  -4.149  0.00  0.00    -0.004 A 
ATOM      8  S   UNL     1      -1.481   4.977  -3.165  0.00  0.00    -0.073 S 
ATOM      9  C   UNL     1      -1.256   3.328  -2.551  0.00  0.00    +0.114 A 
ATOM     10  C   UNL     1      -2.321   2.613  -3.136  0.00  0.00    +0.051 A 
ATOM     11  C   UNL     1      -2.383   1.231  -2.806  0.00  0.00    +0.128 A 
ATOM     12  N   UNL     1      -1.465   0.720  -2.002  0.00  0.00    -0.217 NA
ATOM     13  C   UNL     1      -0.495   1.452  -1.485  0.00  0.00    +0.131 A 
ATOM     14  N   UNL     1      -0.386   2.739  -1.754  0.00  0.00    -0.225 NA
ATOM     15  C   UNL     1      -3.681   5.702  -4.972  0.00  0.00    +0.046 C 
BRANCH  11  16
ATOM     16  N   UNL     1      -3.386   0.431  -3.324  0.00  0.00    -0.343 N 
ATOM     17  H   UNL     1      -3.301  -0.534  -3.292  0.00  0.00    +0.144 HD
ATOM     18  H   UNL     1      -4.175   0.837  -3.717  0.00  0.00    +0.144 HD
ENDBRANCH  11  16
ENDBRANCH   1  13
BRANCH   1  19
ATOM     19  C   UNL     1       0.021   0.892   0.875  0.00  0.00    -0.071 C 
BRANCH  19  21
ATOM     20  C   UNL     1       1.087  -1.186   1.514  0.00  0.00    -0.096 C 
ATOM     21  N   UNL     1       1.029   0.270   1.760  0.00  0.00    +0.381 N 
ATOM     22  H   UNL     1       1.948   0.680   1.558  0.00  0.00    -0.082 HD
BRANCH  21  23
ATOM     23  C   UNL     1       0.688   0.530   3.175  0.00  0.00    -0.040 C 
BRANCH  23  24
ATOM     24  C   UNL     1       1.836   0.082   4.041  0.00  0.00    -0.018 A 
ATOM     25  C   UNL     1       1.768  -1.130   4.704  0.00  0.00    +0.009 A 
ATOM     26  C   UNL     1       2.819  -1.546   5.499  0.00  0.00    +0.050 A 
ATOM     27  C   UNL     1       3.946  -0.749   5.636  0.00  0.00    +0.165 A 
ATOM     28  C   UNL     1       4.018   0.469   4.972  0.00  0.00    +0.204 A 
ATOM     29  C   UNL     1       2.961   0.882   4.169  0.00  0.00    +0.167 A 
BRANCH  29  30
ATOM     30  O   UNL     1       3.029   2.071   3.512  0.00  0.00    -0.491 OA
ATOM     31  C   UNL     1       2.534   3.221   4.201  0.00  0.00    +0.277 C 
ENDBRANCH  29  30
BRANCH  28  32
ATOM     32  O   UNL     1       5.122   1.254   5.104  0.00  0.00    -0.488 OA
ATOM     33  C   UNL     1       6.178   1.050   4.164  0.00  0.00    +0.277 C 
ENDBRANCH  28  32
BRANCH  27  34
ATOM     34  O   UNL     1       4.979  -1.160   6.420  0.00  0.00    -0.491 OA
ATOM     35  C   UNL     1       4.836  -2.423   7.072  0.00  0.00    +0.277 C 
ENDBRANCH  27  34
ENDBRANCH  23  24
ENDBRANCH  21  23
ENDBRANCH  19  21
ENDBRANCH   1  19
TORSDOF 9
