REMARK  Name = ZINC33042736
REMARK  6 active torsions:
REMARK  status: ('A' for Active; 'I' for Inactive)
REMARK    1  A    between atoms: C_4  and  C_7
REMARK    2  A    between atoms: N_11  and  N_12
REMARK    3  A    between atoms: N_12  and  C_13
REMARK    4  A    between atoms: C_16  and  N_28
REMARK    5  A    between atoms: C_18  and  S_19
REMARK    6  A    between atoms: S_19  and  N_22
REMARK                            x       y       z     vdW  Elec       q    Type
REMARK                         _______ _______ _______ _____ _____    ______ ____
ROOT
ATOM      1  N   UNL     1       0.721   7.336   3.521  0.00  0.00    -0.236 N 
ATOM      2  H   UNL     1       0.977   6.266   3.510  0.00  0.00    +0.174 HD
ENDROOT
BRANCH   1   6
ATOM      3  C   UNL     1      -0.059   5.285   0.012  0.00  0.00    +0.209 C 
ATOM      4  C   UNL     1      -0.209   5.628   1.501  0.00  0.00    +0.107 C 
ATOM      5  C   UNL     1      -0.573   7.100   1.587  0.00  0.00    +0.074 C 
ATOM      6  N   UNL     1      -0.071   7.876   2.499  0.00  0.00    -0.186 NA
ATOM      7  C   UNL     1      -1.528   7.603   0.575  0.00  0.00    +0.040 A 
ATOM      8  C   UNL     1      -2.108   8.863   0.709  0.00  0.00    +0.013 A 
ATOM      9  C   UNL     1      -2.990   9.314  -0.253  0.00  0.00    +0.001 A 
ATOM     10  C   UNL     1      -3.295   8.518  -1.343  0.00  0.00    +0.004 A 
ATOM     11  C   UNL     1      -2.725   7.266  -1.483  0.00  0.00    +0.046 A 
ATOM     12  C   UNL     1      -1.839   6.795  -0.526  0.00  0.00    +0.130 A 
ATOM     13  O   UNL     1      -1.285   5.565  -0.663  0.00  0.00    -0.483 OA
BRANCH   3  17
ATOM     14  C   UNL     1       0.883   1.139  -0.406  0.00  0.00    +0.000 A 
ATOM     15  C   UNL     1      -0.435   1.541  -0.294  0.00  0.00    +0.000 A 
ATOM     16  C   UNL     1      -0.740   2.882  -0.155  0.00  0.00    +0.007 A 
ATOM     17  C   UNL     1       0.273   3.822  -0.136  0.00  0.00    -0.007 A 
ATOM     18  C   UNL     1       1.591   3.421  -0.253  0.00  0.00    +0.007 A 
ATOM     19  C   UNL     1       1.896   2.080  -0.388  0.00  0.00    +0.000 A 
ENDBRANCH   3  17
ENDBRANCH   1   6
BRANCH   1  20
ATOM     20  C   UNL     1       1.184   8.154   4.551  0.00  0.00    +0.075 A 
ATOM     21  C   UNL     1       0.789   9.486   4.614  0.00  0.00    +0.029 A 
ATOM     22  C   UNL     1       1.245  10.291   5.639  0.00  0.00    +0.035 A 
ATOM     23  C   UNL     1       2.104   9.778   6.594  0.00  0.00    +0.128 A 
ATOM     24  C   UNL     1       2.504   8.456   6.531  0.00  0.00    +0.063 A 
ATOM     25  C   UNL     1       2.047   7.643   5.513  0.00  0.00    +0.130 A 
BRANCH  25  26
ATOM     26  S   UNL     1       2.557   5.958   5.433  0.00  0.00    +0.063 S 
ATOM     27  O   UNL     1       1.373   5.180   5.323  0.00  0.00    -0.153 OA
ATOM     28  O   UNL     1       3.602   5.895   4.472  0.00  0.00    -0.153 OA
BRANCH  26  29
ATOM     29  N   UNL     1       3.236   5.582   6.896  0.00  0.00    -0.172 NA
ATOM     30  C   UNL     1       4.694   5.631   7.089  0.00  0.00    +0.137 C 
ATOM     31  C   UNL     1       4.983   6.464   8.348  0.00  0.00    +0.177 C 
ATOM     32  O   UNL     1       4.215   5.947   9.438  0.00  0.00    -0.377 OA
ATOM     33  C   UNL     1       2.801   6.034   9.251  0.00  0.00    +0.177 C 
ATOM     34  C   UNL     1       2.400   5.184   8.040  0.00  0.00    +0.137 C 
ENDBRANCH  26  29
ENDBRANCH  25  26
BRANCH  23  35
ATOM     35  N   UNL     1       2.596  10.647   7.687  0.00  0.00    +0.056 N 
ATOM     36  O   UNL     1       3.353  10.197   8.529  0.00  0.00    -0.126 OA
ATOM     37  O   UNL     1       2.245  11.812   7.745  0.00  0.00    -0.126 OA
ENDBRANCH  23  35
ENDBRANCH   1  20
TORSDOF 6
