REMARK  Name = ZINC09886552
REMARK  10 active torsions:
REMARK  status: ('A' for Active; 'I' for Inactive)
REMARK    1  A    between atoms: C_1  and  C_2
REMARK    2  A    between atoms: C_2  and  C_3
REMARK    3  A    between atoms: C_2  and  C_4
REMARK    4  A    between atoms: C_4  and  C_6
REMARK    5  A    between atoms: C_4  and  N_28
REMARK    6  A    between atoms: N_8  and  N_9
REMARK    7  A    between atoms: C_10  and  C_11
REMARK    8  A    between atoms: N_13  and  C_20
REMARK    9  A    between atoms: C_20  and  C_21
REMARK   10  A    between atoms: C_29  and  C_31
REMARK                            x       y       z     vdW  Elec       q    Type
REMARK                         _______ _______ _______ _____ _____    ______ ____
ROOT
ATOM      1  C   UNL     1       4.306  -4.555   0.271  0.00  0.00    +0.253 C 
ATOM      2  O   UNL     1       4.812  -3.610  -0.297  0.00  0.00    -0.272 OA
ATOM      3  N   UNL     1       4.796  -5.797   0.081  0.00  0.00    -0.205 N 
ATOM      4  H   UNL     1       4.355  -6.559   0.487  0.00  0.00    +0.177 HD
ENDROOT
BRANCH   3   5
ATOM      5  N   UNL     1       5.941  -5.986  -0.703  0.00  0.00    -0.188 NA
ATOM      6  C   UNL     1       6.351  -7.188  -0.974  0.00  0.00    +0.140 C 
BRANCH   6   7
ATOM      7  C   UNL     1       5.515  -8.347  -0.624  0.00  0.00    +0.020 A 
ATOM      8  C   UNL     1       4.169  -8.349  -0.427  0.00  0.00    +0.096 A 
ATOM      9  N   UNL     1       3.752  -9.609  -0.118  0.00  0.00    -0.342 N 
ATOM     10  C   UNL     1       4.823 -10.477  -0.105  0.00  0.00    +0.050 A 
ATOM     11  C   UNL     1       5.971  -9.734  -0.425  0.00  0.00    +0.009 A 
ATOM     12  C   UNL     1       7.215 -10.360  -0.478  0.00  0.00    +0.010 A 
ATOM     13  C   UNL     1       7.310 -11.711  -0.227  0.00  0.00    +0.001 A 
ATOM     14  C   UNL     1       6.176 -12.447   0.084  0.00  0.00    +0.002 A 
ATOM     15  C   UNL     1       4.940 -11.841   0.146  0.00  0.00    +0.026 A 
BRANCH   9  16
ATOM     16  C   UNL     1       2.364  -9.987   0.159  0.00  0.00    +0.157 C 
BRANCH  16  17
ATOM     17  C   UNL     1       2.124  -9.965   1.646  0.00  0.00    -0.028 A 
ATOM     18  C   UNL     1       2.336 -11.106   2.397  0.00  0.00    +0.008 A 
ATOM     19  C   UNL     1       2.122 -11.085   3.762  0.00  0.00    +0.038 A 
ATOM     20  C   UNL     1       1.684  -9.924   4.376  0.00  0.00    +0.123 A 
ATOM     21  C   UNL     1       1.467  -8.783   3.622  0.00  0.00    +0.038 A 
ATOM     22  C   UNL     1       1.687  -8.805   2.258  0.00  0.00    +0.008 A 
ATOM     23  F   UNL     1       1.469  -9.904   5.710  0.00  0.00    -0.205 F 
ENDBRANCH  16  17
ENDBRANCH   9  16
ENDBRANCH   6   7
ENDBRANCH   3   5
BRANCH   1  24
ATOM     24  C   UNL     1       3.131  -4.341   1.189  0.00  0.00    +0.163 C 
BRANCH  24  25
ATOM     25  N   UNL     1       2.670  -2.955   1.078  0.00  0.00    -0.300 N 
ATOM     26  C   UNL     1       1.393  -2.643   1.375  0.00  0.00    +0.245 C 
ATOM     27  O   UNL     1       0.624  -3.511   1.736  0.00  0.00    -0.270 OA
ATOM     28  H   UNL     1       3.284  -2.261   0.790  0.00  0.00    +0.150 HD
BRANCH  26  29
ATOM     29  C   UNL     1       0.929  -1.244   1.263  0.00  0.00    +0.037 A 
ATOM     30  C   UNL     1      -0.393  -0.918   1.571  0.00  0.00    +0.014 A 
ATOM     31  C   UNL     1      -0.821   0.389   1.464  0.00  0.00    +0.021 A 
ATOM     32  C   UNL     1       0.059   1.377   1.052  0.00  0.00    +0.041 A 
ATOM     33  C   UNL     1       1.371   1.059   0.745  0.00  0.00    +0.021 A 
ATOM     34  C   UNL     1       1.811  -0.244   0.848  0.00  0.00    +0.014 A 
ATOM     35 CL   UNL     1      -0.487   3.019   0.919  0.00  0.00    -0.084 Cl
ENDBRANCH  26  29
ENDBRANCH  24  25
BRANCH  24  37
ATOM     36  C   UNL     1       4.707  -3.697   3.017  0.00  0.00    +0.009 C 
ATOM     37  C   UNL     1       3.552  -4.624   2.632  0.00  0.00    +0.012 C 
ATOM     38  C   UNL     1       2.367  -4.377   3.568  0.00  0.00    +0.009 C 
ENDBRANCH  24  37
ENDBRANCH   1  24
TORSDOF 8
