REMARK  Name = ZINC09301517
REMARK  9 active torsions:
REMARK  status: ('A' for Active; 'I' for Inactive)
REMARK    1  A    between atoms: C_1  and  N_2
REMARK    2  A    between atoms: N_2  and  C_3
REMARK    3  A    between atoms: N_2  and  S_10
REMARK    4  A    between atoms: C_3  and  C_4
REMARK    5  A    between atoms: S_10  and  C_13
REMARK    6  A    between atoms: C_16  and  C_19
REMARK    7  A    between atoms: C_19  and  N_21
REMARK    8  A    between atoms: N_23  and  C_34
REMARK    9  A    between atoms: C_34  and  C_35
REMARK                            x       y       z     vdW  Elec       q    Type
REMARK                         _______ _______ _______ _____ _____    ______ ____
ROOT
ATOM      1  C   UNL     1      11.490   6.753   0.386  0.00  0.00    +0.106 A 
ATOM      2  C   UNL     1      10.424   7.575   0.704  0.00  0.00    +0.029 A 
ATOM      3  C   UNL     1       9.131   7.104   0.602  0.00  0.00    +0.015 A 
ATOM      4  C   UNL     1       8.901   5.796   0.176  0.00  0.00    +0.039 A 
ATOM      5  C   UNL     1       9.980   4.970  -0.138  0.00  0.00    +0.015 A 
ATOM      6  C   UNL     1      11.268   5.455  -0.036  0.00  0.00    +0.029 A 
ENDROOT
BRANCH   1   7
ATOM      7  S   UNL     1      13.138   7.363   0.520  0.00  0.00    +0.061 S 
ATOM      8  O   UNL     1      13.953   6.505  -0.266  0.00  0.00    -0.153 OA
ATOM      9  O   UNL     1      13.072   8.765   0.299  0.00  0.00    -0.153 OA
BRANCH   7  11
ATOM     10  C   UNL     1      13.265   8.159   3.102  0.00  0.00    +0.132 C 
ATOM     11  N   UNL     1      13.611   7.154   2.094  0.00  0.00    -0.175 NA
BRANCH  11  12
ATOM     12  C   UNL     1      14.374   5.964   2.477  0.00  0.00    +0.144 C 
BRANCH  12  13
ATOM     13  C   UNL     1      15.846   6.290   2.479  0.00  0.00    -0.032 A 
ATOM     14  C   UNL     1      16.615   6.020   1.362  0.00  0.00    +0.005 A 
ATOM     15  C   UNL     1      17.963   6.324   1.362  0.00  0.00    +0.000 A 
ATOM     16  C   UNL     1      18.545   6.889   2.482  0.00  0.00    +0.000 A 
ATOM     17  C   UNL     1      17.777   7.153   3.600  0.00  0.00    +0.000 A 
ATOM     18  C   UNL     1      16.427   6.854   3.599  0.00  0.00    +0.005 A 
ENDBRANCH  12  13
ENDBRANCH  11  12
ENDBRANCH   7  11
ENDBRANCH   1   7
BRANCH   4  19
ATOM     19  C   UNL     1       7.515   5.283   0.065  0.00  0.00    +0.269 C 
ATOM     20  O   UNL     1       6.574   6.005   0.345  0.00  0.00    -0.268 OA
BRANCH  19  21
ATOM     21  N   UNL     1       7.298   4.029  -0.343  0.00  0.00    -0.152 NA
ATOM     22  C   UNL     1       6.054   3.569  -0.443  0.00  0.00    +0.167 A 
ATOM     23  N   UNL     1       5.641   2.335  -0.836  0.00  0.00    -0.317 N 
ATOM     24  C   UNL     1       4.290   2.036  -0.878  0.00  0.00    +0.062 A 
ATOM     25  C   UNL     1       3.679   0.830  -1.254  0.00  0.00    +0.076 A 
ATOM     26  C   UNL     1       2.306   0.696  -1.240  0.00  0.00    +0.168 A 
ATOM     27  C   UNL     1       1.491   1.760  -0.851  0.00  0.00    +0.167 A 
ATOM     28  C   UNL     1       2.073   2.960  -0.477  0.00  0.00    +0.066 A 
ATOM     29  C   UNL     1       3.443   3.085  -0.493  0.00  0.00    +0.043 A 
ATOM     30  S   UNL     1       4.570   4.399  -0.103  0.00  0.00    -0.052 S 
ATOM     31  O   UNL     1       0.187   1.367  -0.926  0.00  0.00    -0.453 OA
ATOM     32  C   UNL     1       0.223  -0.072  -0.970  0.00  0.00    +0.466 C 
ATOM     33  O   UNL     1       1.503  -0.365  -1.559  0.00  0.00    -0.453 OA
BRANCH  23  34
ATOM     34  C   UNL     1       6.627   1.320  -1.216  0.00  0.00    +0.151 C 
BRANCH  34  35
ATOM     35  C   UNL     1       6.908   1.420  -2.693  0.00  0.00    -0.013 C 
ATOM     36  C   UNL     1       8.138   1.573  -3.117  0.00  0.00    +0.005 C 
ENDBRANCH  34  35
ENDBRANCH  23  34
ENDBRANCH  19  21
ENDBRANCH   4  19
TORSDOF 8
