REMARK  Name = ZINC44713662
REMARK  8 active torsions:
REMARK  status: ('A' for Active; 'I' for Inactive)
REMARK    1  A    between atoms: C_1  and  C_2
REMARK    2  A    between atoms: C_3  and  C_9
REMARK    3  A    between atoms: C_4  and  C_8
REMARK    4  A    between atoms: C_9  and  C_11
REMARK    5  A    between atoms: C_9  and  N_12
REMARK    6  A    between atoms: C_13  and  C_15
REMARK    7  A    between atoms: C_26  and  C_28
REMARK    8  A    between atoms: C_34  and  C_36
REMARK                            x       y       z     vdW  Elec       q    Type
REMARK                         _______ _______ _______ _____ _____    ______ ____
ROOT
ATOM      1  C   UNL     1       2.526  -1.343  -5.213  0.00  0.00    +0.100 C 
ATOM      2  C   UNL     1       3.838  -1.495  -4.412  0.00  0.00    +0.121 C 
ATOM      3  N   UNL     1       4.912  -1.382  -5.428  0.00  0.00    -0.299 N 
ATOM      4  C   UNL     1       4.439  -0.319  -6.348  0.00  0.00    +0.115 C 
ATOM      5  C   UNL     1       2.924  -0.571  -6.482  0.00  0.00    -0.004 C 
ATOM      6  C   UNL     1       2.636  -1.410  -7.723  0.00  0.00    -0.010 C 
ATOM      7  C   UNL     1       2.988  -0.599  -8.974  0.00  0.00    -0.082 C 
ATOM      8  N   UNL     1       2.194   0.635  -8.998  0.00  0.00    +0.379 N 
ATOM      9  C   UNL     1       2.544   1.479  -7.849  0.00  0.00    -0.082 C 
ATOM     10  C   UNL     1       2.174   0.756  -6.551  0.00  0.00    -0.010 C 
ATOM     11  C   UNL     1       6.058  -2.087  -5.500  0.00  0.00    +0.236 C 
ATOM     12  O   UNL     1       6.844  -1.877  -6.399  0.00  0.00    -0.274 OA
ATOM     13  H   UNL     1       2.382   1.138  -9.853  0.00  0.00    -0.086 HD
ATOM     14  H   UNL     1       1.213   0.403  -8.957  0.00  0.00    -0.086 HD
ENDROOT
BRANCH  11  15
ATOM     15  C   UNL     1       6.364  -3.136  -4.462  0.00  0.00    +0.162 C 
ATOM     16  C   UNL     1       6.915  -2.466  -3.185  0.00  0.00    +0.033 C 
ATOM     17  C   UNL     1       8.016  -3.457  -2.721  0.00  0.00    +0.021 C 
ATOM     18  C   UNL     1       8.580  -3.953  -4.075  0.00  0.00    +0.109 C 
ATOM     19  N   UNL     1       7.403  -4.048  -4.963  0.00  0.00    -0.283 N 
ATOM     20  C   UNL     1       7.297  -4.837  -6.051  0.00  0.00    +0.320 C 
ATOM     21  O   UNL     1       6.277  -4.831  -6.707  0.00  0.00    -0.266 OA
BRANCH  20  22
ATOM     22  C   UNL     1       8.446  -5.726  -6.452  0.00  0.00    +0.470 C 
ATOM     23  F   UNL     1       8.101  -6.443  -7.602  0.00  0.00    -0.162 F 
ATOM     24  F   UNL     1       9.574  -4.941  -6.712  0.00  0.00    -0.162 F 
ATOM     25  F   UNL     1       8.729  -6.619  -5.413  0.00  0.00    -0.162 F 
ENDBRANCH  20  22
ENDBRANCH  11  15
BRANCH   1  27
ATOM     26  N   UNL     1       0.197  -0.776  -4.603  0.00  0.00    -0.308 N 
ATOM     27  C   UNL     1       1.514  -0.559  -4.418  0.00  0.00    +0.219 C 
ATOM     28  O   UNL     1       1.885   0.268  -3.611  0.00  0.00    -0.275 OA
ATOM     29  H   UNL     1      -0.100  -1.437  -5.248  0.00  0.00    +0.149 HD
BRANCH  26  30
ATOM     30  C   UNL     1      -0.787  -0.014  -3.830  0.00  0.00    +0.104 C 
ATOM     31  C   UNL     1      -1.059   1.321  -4.526  0.00  0.00    +0.033 C 
BRANCH  30  34
ATOM     32  C   UNL     1      -2.504  -0.429  -1.248  0.00  0.00    +0.065 C 
ATOM     33  C   UNL     1      -2.811  -0.980  -2.616  0.00  0.00    +0.038 A 
ATOM     34  C   UNL     1      -2.069  -0.801  -3.734  0.00  0.00    +0.015 A 
ATOM     35  C   UNL     1      -2.702  -1.474  -4.783  0.00  0.00    +0.065 A 
ATOM     36  N   UNL     1      -3.785  -2.038  -4.313  0.00  0.00    -0.179 NA
ATOM     37  N   UNL     1      -3.873  -1.744  -2.946  0.00  0.00    -0.281 N 
ATOM     38  H   UNL     1      -4.575  -2.037  -2.344  0.00  0.00    +0.189 HD
ATOM     39  C   UNL     1      -2.220  -1.540  -6.210  0.00  0.00    +0.068 C 
ENDBRANCH  30  34
ENDBRANCH  26  30
ENDBRANCH   1  27
TORSDOF 5
