REMARK  Name = ZINC12658032
REMARK  14 active torsions:
REMARK  status: ('A' for Active; 'I' for Inactive)
REMARK    1  A    between atoms: C_1  and  C_2
REMARK    2  A    between atoms: C_2  and  C_4
REMARK    3  A    between atoms: C_2  and  N_11
REMARK    4  A    between atoms: C_4  and  C_5
REMARK    5  A    between atoms: C_5  and  C_6
REMARK    6  A    between atoms: N_11  and  C_12
REMARK    7  A    between atoms: C_20  and  N_36
REMARK    8  A    between atoms: C_26  and  O_34
REMARK    9  A    between atoms: C_27  and  O_32
REMARK   10  A    between atoms: C_28  and  O_30
REMARK   11  A    between atoms: O_30  and  C_31
REMARK   12  A    between atoms: O_32  and  C_33
REMARK   13  A    between atoms: O_34  and  C_35
REMARK   14  A    between atoms: C_37  and  C_39
REMARK                            x       y       z     vdW  Elec       q    Type
REMARK                         _______ _______ _______ _____ _____    ______ ____
ROOT
ATOM      1  C   UNL     1      -2.194  -0.169   1.774  0.00  0.00    +0.075 A 
ATOM      2  C   UNL     1      -1.169  -0.925   2.258  0.00  0.00    +0.027 A 
ATOM      3  C   UNL     1      -1.190  -2.204   2.676  0.00  0.00    +0.011 A 
ATOM      4  C   UNL     1      -2.195  -3.132   2.779  0.00  0.00    -0.009 A 
ATOM      5  C   UNL     1      -3.542  -2.926   2.484  0.00  0.00    -0.016 A 
ATOM      6  C   UNL     1      -4.060  -1.797   1.967  0.00  0.00    +0.058 A 
ATOM      7  C   UNL     1      -3.512  -0.595   1.629  0.00  0.00    +0.200 A 
ATOM      8  O   UNL     1      -4.279   0.215   1.125  0.00  0.00    -0.286 OA
ATOM      9  C   UNL     1      -4.522  -4.044   2.772  0.00  0.00    +0.104 C 
ATOM     10  C   UNL     1      -4.502  -5.098   1.684  0.00  0.00    +0.032 C 
ATOM     11  C   UNL     1      -3.070  -5.455   1.292  0.00  0.00    +0.038 C 
ATOM     12  C   UNL     1      -2.229  -5.621   2.533  0.00  0.00    -0.032 A 
ATOM     13  C   UNL     1      -1.804  -4.498   3.238  0.00  0.00    +0.031 A 
ATOM     14  C   UNL     1      -1.012  -4.643   4.381  0.00  0.00    +0.173 A 
ATOM     15  C   UNL     1      -0.659  -5.916   4.810  0.00  0.00    +0.204 A 
ATOM     16  C   UNL     1      -1.095  -7.032   4.105  0.00  0.00    +0.165 A 
ATOM     17  C   UNL     1      -1.878  -6.881   2.967  0.00  0.00    +0.054 A 
ENDROOT
BRANCH   9  18
ATOM     18  N   UNL     1      -5.872  -3.483   2.868  0.00  0.00    -0.309 N 
ATOM     19  C   UNL     1      -6.307  -2.970   4.036  0.00  0.00    +0.210 C 
ATOM     20  O   UNL     1      -5.580  -2.973   5.007  0.00  0.00    -0.276 OA
ATOM     21  C   UNL     1      -7.696  -2.393   4.136  0.00  0.00    +0.109 C 
ATOM     22  H   UNL     1      -6.454  -3.482   2.092  0.00  0.00    +0.149 HD
ENDBRANCH   9  18
BRANCH   1  23
ATOM     23  N   UNL     1      -1.902   1.131   1.400  0.00  0.00    -0.338 N 
ATOM     24  H   UNL     1      -2.610   1.719   1.093  0.00  0.00    +0.146 HD
BRANCH  23  26
ATOM     25  C   UNL     1       0.263   1.101   0.261  0.00  0.00    +0.028 C 
ATOM     26  C   UNL     1      -0.522   1.621   1.467  0.00  0.00    +0.068 C 
BRANCH  26  27
ATOM     27  C   UNL     1      -0.523   3.151   1.455  0.00  0.00    +0.029 C 
BRANCH  27  28
ATOM     28  C   UNL     1      -1.200   3.671   2.725  0.00  0.00    +0.076 C 
BRANCH  28  29
ATOM     29  C   UNL     1      -1.200   5.178   2.712  0.00  0.00    +0.105 A 
ATOM     30  C   UNL     1      -2.162   5.960   2.190  0.00  0.00    +0.044 A 
ATOM     31  C   UNL     1      -1.759   7.299   2.399  0.00  0.00    +0.041 A 
ATOM     32  C   UNL     1      -0.571   7.255   3.029  0.00  0.00    +0.195 A 
ATOM     33  O   UNL     1      -0.238   5.968   3.217  0.00  0.00    -0.468 OA
ENDBRANCH  28  29
ENDBRANCH  27  28
ENDBRANCH  26  27
ENDBRANCH  23  26
ENDBRANCH   1  23
BRANCH  16  34
ATOM     34  O   UNL     1      -0.752  -8.277   4.530  0.00  0.00    -0.491 OA
ATOM     35  C   UNL     1      -1.232  -9.380   3.759  0.00  0.00    +0.277 C 
ENDBRANCH  16  34
BRANCH  15  36
ATOM     36  O   UNL     1       0.112  -6.071   5.921  0.00  0.00    -0.488 OA
ATOM     37  C   UNL     1       1.528  -5.996   5.744  0.00  0.00    +0.277 C 
ENDBRANCH  15  36
BRANCH  14  38
ATOM     38  O   UNL     1      -0.591  -3.547   5.065  0.00  0.00    -0.491 OA
ATOM     39  C   UNL     1      -1.474  -3.025   6.060  0.00  0.00    +0.277 C 
ENDBRANCH  14  38
TORSDOF 9
