REMARK  Name = ZINC12907953
REMARK  4 active torsions:
REMARK  status: ('A' for Active; 'I' for Inactive)
REMARK    1  A    between atoms: C_3  and  C_11
REMARK    2  A    between atoms: C_6  and  N_7
REMARK    3  A    between atoms: N_16  and  S_19
REMARK    4  A    between atoms: S_19  and  C_22
REMARK                            x       y       z     vdW  Elec       q    Type
REMARK                         _______ _______ _______ _____ _____    ______ ____
ROOT
ATOM      1  C   UNL     1      -3.761   3.409  -3.634  0.00  0.00    +0.248 C 
ATOM      2  O   UNL     1      -3.518   4.477  -4.162  0.00  0.00    -0.270 OA
ATOM      3  N   UNL     1      -3.200   3.100  -2.448  0.00  0.00    -0.295 N 
ATOM      4  C   UNL     1      -2.220   4.002  -1.827  0.00  0.00    +0.125 C 
ATOM      5  C   UNL     1      -0.935   3.213  -1.548  0.00  0.00    +0.128 C 
ATOM      6  N   UNL     1      -1.290   1.967  -0.854  0.00  0.00    -0.174 NA
ATOM      7  C   UNL     1      -2.266   1.062  -1.478  0.00  0.00    +0.128 C 
ATOM      8  C   UNL     1      -3.555   1.854  -1.754  0.00  0.00    +0.125 C 
ENDROOT
BRANCH   1  11
ATOM      9  C   UNL     1      -6.637   1.069  -4.228  0.00  0.00    +0.033 A 
ATOM     10  C   UNL     1      -5.789   1.963  -3.608  0.00  0.00    +0.017 A 
ATOM     11  C   UNL     1      -4.674   2.451  -4.291  0.00  0.00    +0.055 A 
ATOM     12  C   UNL     1      -4.428   2.033  -5.602  0.00  0.00    +0.055 A 
ATOM     13  C   UNL     1      -5.282   1.134  -6.208  0.00  0.00    +0.053 A 
ATOM     14  C   UNL     1      -6.385   0.655  -5.524  0.00  0.00    +0.128 A 
ATOM     15 CL   UNL     1      -3.047   2.639  -6.463  0.00  0.00    -0.083 Cl
BRANCH  14  16
ATOM     16  N   UNL     1      -7.301  -0.304  -6.182  0.00  0.00    +0.056 N 
ATOM     17  O   UNL     1      -8.273  -0.727  -5.583  0.00  0.00    -0.126 OA
ATOM     18  O   UNL     1      -7.081  -0.671  -7.323  0.00  0.00    -0.126 OA
ENDBRANCH  14  16
ENDBRANCH   1  11
BRANCH   6  19
ATOM     19  S   UNL     1      -0.599   1.587   0.602  0.00  0.00    +0.061 S 
ATOM     20  O   UNL     1      -0.679   0.174   0.733  0.00  0.00    -0.153 OA
ATOM     21  O   UNL     1       0.635   2.288   0.661  0.00  0.00    -0.153 OA
BRANCH  19  22
ATOM     22  C   UNL     1      -1.627   2.268   1.861  0.00  0.00    +0.109 A 
ATOM     23  C   UNL     1      -1.392   3.550   2.323  0.00  0.00    +0.032 A 
ATOM     24  C   UNL     1      -2.198   4.093   3.307  0.00  0.00    +0.051 A 
ATOM     25  C   UNL     1      -3.235   3.344   3.837  0.00  0.00    +0.162 A 
ATOM     26  C   UNL     1      -3.467   2.056   3.377  0.00  0.00    +0.164 A 
ATOM     27  C   UNL     1      -2.662   1.517   2.388  0.00  0.00    +0.078 A 
ATOM     28  O   UNL     1      -4.492   1.326   3.904  0.00  0.00    -0.488 OA
ATOM     29  C   UNL     1      -4.337   0.924   5.267  0.00  0.00    +0.232 C 
ATOM     30  C   UNL     1      -4.786   2.030   6.210  0.00  0.00    +0.082 C 
ATOM     31  C   UNL     1      -3.914   3.271   6.104  0.00  0.00    +0.232 C 
ATOM     32  O   UNL     1      -4.035   3.867   4.811  0.00  0.00    -0.488 OA
ENDBRANCH  19  22
ENDBRANCH   6  19
TORSDOF 4
