REMARK  Name = ZINC59334209
REMARK  10 active torsions:
REMARK  status: ('A' for Active; 'I' for Inactive)
REMARK    1  A    between atoms: C_1  and  C_2
REMARK    2  A    between atoms: C_2  and  C_3
REMARK    3  A    between atoms: C_3  and  C_28
REMARK    4  A    between atoms: N_6  and  N_10
REMARK    5  A    between atoms: C_11  and  C_13
REMARK    6  A    between atoms: C_13  and  N_14
REMARK    7  A    between atoms: N_14  and  C_15
REMARK    8  A    between atoms: N_14  and  C_18
REMARK    9  A    between atoms: C_18  and  C_20
REMARK   10  A    between atoms: C_18  and  C_21
REMARK                            x       y       z     vdW  Elec       q    Type
REMARK                         _______ _______ _______ _____ _____    ______ ____
ROOT
ATOM      1  N   UNL     1      -4.257   1.470  -1.332  0.00  0.00    -0.225 N 
ATOM      2  C   UNL     1      -5.487   0.940  -1.482  0.00  0.00    +0.213 C 
ATOM      3  O   UNL     1      -5.822  -0.015  -0.813  0.00  0.00    -0.276 OA
ATOM      4  H   UNL     1      -3.990   2.233  -1.867  0.00  0.00    +0.173 HD
ENDROOT
BRANCH   1   8
ATOM      5  C   UNL     1      -1.639  -0.211   0.579  0.00  0.00    +0.139 C 
ATOM      6  C   UNL     1      -2.306   0.153  -0.733  0.00  0.00    +0.268 C 
ATOM      7  O   UNL     1      -1.960  -0.177  -1.847  0.00  0.00    -0.271 OA
ATOM      8  N   UNL     1      -3.365   0.918  -0.403  0.00  0.00    -0.137 N 
ATOM      9  C   UNL     1      -3.459   1.087   0.921  0.00  0.00    +0.327 C 
ATOM     10  O   UNL     1      -4.332   1.738   1.459  0.00  0.00    -0.251 OA
ATOM     11  N   UNL     1      -2.478   0.454   1.590  0.00  0.00    -0.280 N 
ATOM     12  H   UNL     1      -2.349   0.439   2.551  0.00  0.00    +0.152 HD
BRANCH   5  13
ATOM     13  C   UNL     1      -1.645  -1.704   0.784  0.00  0.00    -0.015 A 
ATOM     14  C   UNL     1      -0.562  -2.462   0.378  0.00  0.00    +0.006 A 
ATOM     15  C   UNL     1      -0.567  -3.831   0.566  0.00  0.00    +0.000 A 
ATOM     16  C   UNL     1      -1.654  -4.443   1.161  0.00  0.00    +0.000 A 
ATOM     17  C   UNL     1      -2.737  -3.686   1.567  0.00  0.00    +0.000 A 
ATOM     18  C   UNL     1      -2.730  -2.316   1.383  0.00  0.00    +0.006 A 
ENDBRANCH   5  13
BRANCH   5  20
ATOM     19  C   UNL     1      -0.238   1.855   0.485  0.00  0.00    +0.007 C 
ATOM     20  C   UNL     1      -0.209   0.332   0.624  0.00  0.00    +0.037 C 
ENDBRANCH   5  20
ENDBRANCH   1   8
BRANCH   2  21
ATOM     21  C   UNL     1      -6.447   1.533  -2.481  0.00  0.00    +0.021 C 
BRANCH  21  22
ATOM     22  N   UNL     1      -7.661   0.708  -2.543  0.00  0.00    +0.392 N 
ATOM     23  H   UNL     1      -8.317   1.124  -3.188  0.00  0.00    -0.080 HD
BRANCH  22  24
ATOM     24  C   UNL     1      -8.269   0.630  -1.208  0.00  0.00    -0.067 C 
ATOM     25  C   UNL     1      -9.776   0.872  -1.103  0.00  0.00    -0.017 C 
ATOM     26  C   UNL     1      -8.794   1.929  -0.594  0.00  0.00    -0.017 C 
ENDBRANCH  22  24
BRANCH  22  27
ATOM     27  C   UNL     1      -7.312  -0.643  -3.002  0.00  0.00    -0.038 C 
ATOM     28  C   UNL     1      -8.550  -1.539  -2.936  0.00  0.00    -0.008 C 
BRANCH  27  29
ATOM     29  C   UNL     1      -6.815  -0.578  -4.423  0.00  0.00    -0.043 A 
ATOM     30  C   UNL     1      -7.116   0.517  -5.212  0.00  0.00    +0.003 A 
ATOM     31  C   UNL     1      -6.660   0.577  -6.515  0.00  0.00    +0.000 A 
ATOM     32  C   UNL     1      -5.902  -0.458  -7.031  0.00  0.00    +0.001 A 
ATOM     33  C   UNL     1      -5.600  -1.553  -6.244  0.00  0.00    +0.020 A 
ATOM     34  C   UNL     1      -6.052  -1.611  -4.937  0.00  0.00    +0.043 A 
ATOM     35 CL   UNL     1      -5.667  -2.983  -3.946  0.00  0.00    -0.083 Cl
ENDBRANCH  27  29
ENDBRANCH  22  27
ENDBRANCH  21  22
ENDBRANCH   2  21
TORSDOF 8
