REMARK  Name = ZINC04082317
REMARK  12 active torsions:
REMARK  status: ('A' for Active; 'I' for Inactive)
REMARK    1  A    between atoms: C_1  and  O_2
REMARK    2  A    between atoms: O_2  and  C_3
REMARK    3  A    between atoms: C_6  and  C_11
REMARK    4  A    between atoms: C_8  and  O_9
REMARK    5  A    between atoms: O_9  and  C_10
REMARK    6  A    between atoms: C_16  and  C_26
REMARK    7  A    between atoms: C_29  and  O_36
REMARK    8  A    between atoms: C_30  and  O_34
REMARK    9  A    between atoms: C_31  and  O_32
REMARK   10  A    between atoms: O_32  and  C_33
REMARK   11  A    between atoms: O_34  and  C_35
REMARK   12  A    between atoms: O_36  and  C_37
REMARK                            x       y       z     vdW  Elec       q    Type
REMARK                         _______ _______ _______ _____ _____    ______ ____
ROOT
ATOM      1  C   UNL     1      -2.513   1.003  -0.084  0.00  0.00    +0.032 C 
ATOM      2  C   UNL     1      -2.539   0.090   1.141  0.00  0.00    +0.059 C 
ATOM      3  C   UNL     1      -3.830  -0.709   1.164  0.00  0.00    +0.017 C 
ATOM      4  C   UNL     1      -4.425  -1.077   0.016  0.00  0.00    +0.037 C 
ATOM      5  C   UNL     1      -5.705  -1.868  -0.104  0.00  0.00    +0.140 C 
ATOM      6  N   UNL     1      -6.162  -2.464   1.133  0.00  0.00    -0.331 N 
ATOM      7  C   UNL     1      -6.559  -1.671   2.208  0.00  0.00    +0.049 A 
ATOM      8  C   UNL     1      -7.880  -1.626   2.624  0.00  0.00    +0.025 A 
ATOM      9  C   UNL     1      -8.249  -0.741   3.622  0.00  0.00    +0.002 A 
ATOM     10  C   UNL     1      -7.309   0.092   4.202  0.00  0.00    +0.002 A 
ATOM     11  C   UNL     1      -5.984   0.033   3.804  0.00  0.00    +0.025 A 
ATOM     12  C   UNL     1      -5.611  -0.864   2.819  0.00  0.00    +0.052 A 
ATOM     13  N   UNL     1      -4.292  -1.009   2.405  0.00  0.00    -0.316 N 
ATOM     14  C   UNL     1      -3.859  -0.712  -1.228  0.00  0.00    +0.163 C 
ATOM     15  O   UNL     1      -4.402  -1.081  -2.251  0.00  0.00    -0.292 OA
ATOM     16  C   UNL     1      -2.611   0.114  -1.330  0.00  0.00    +0.088 C 
ATOM     17  H   UNL     1      -6.192  -3.430   1.215  0.00  0.00    +0.147 HD
ATOM     18  H   UNL     1      -3.653  -1.349   3.051  0.00  0.00    +0.152 HD
ENDROOT
BRANCH   1  22
ATOM     19  C   UNL     1       1.151   3.208  -0.173  0.00  0.00    +0.161 A 
ATOM     20  C   UNL     1       1.173   1.823  -0.170  0.00  0.00    +0.049 A 
ATOM     21  C   UNL     1      -0.013   1.113  -0.138  0.00  0.00    +0.008 A 
ATOM     22  C   UNL     1      -1.223   1.782  -0.114  0.00  0.00    -0.040 A 
ATOM     23  C   UNL     1      -1.252   3.164  -0.111  0.00  0.00    +0.053 A 
ATOM     24  C   UNL     1      -0.067   3.882  -0.143  0.00  0.00    +0.162 A 
BRANCH  19  26
ATOM     25  C   UNL     1       3.527   3.150  -0.235  0.00  0.00    +0.277 C 
ATOM     26  O   UNL     1       2.316   3.908  -0.205  0.00  0.00    -0.491 OA
ENDBRANCH  19  26
BRANCH  24  27
ATOM     27  O   UNL     1      -0.093   5.241  -0.145  0.00  0.00    -0.491 OA
ATOM     28  C   UNL     1      -1.379   5.865  -0.113  0.00  0.00    +0.277 C 
ENDBRANCH  24  27
ENDBRANCH   1  22
BRANCH   5  29
ATOM     29  C   UNL     1      -6.786  -0.954  -0.622  0.00  0.00    +0.023 A 
ATOM     30  C   UNL     1      -6.647   0.416  -0.501  0.00  0.00    +0.013 A 
ATOM     31  C   UNL     1      -7.635   1.260  -0.974  0.00  0.00    +0.050 A 
ATOM     32  C   UNL     1      -8.770   0.734  -1.572  0.00  0.00    +0.165 A 
ATOM     33  C   UNL     1      -8.913  -0.643  -1.696  0.00  0.00    +0.204 A 
ATOM     34  C   UNL     1      -7.915  -1.487  -1.223  0.00  0.00    +0.170 A 
BRANCH  34  35
ATOM     35  O   UNL     1      -8.048  -2.835  -1.347  0.00  0.00    -0.491 OA
ATOM     36  C   UNL     1      -8.806  -3.507  -0.338  0.00  0.00    +0.277 C 
ENDBRANCH  34  35
BRANCH  33  37
ATOM     37  O   UNL     1     -10.025  -1.163  -2.283  0.00  0.00    -0.488 OA
ATOM     38  C   UNL     1      -9.977  -1.369  -3.696  0.00  0.00    +0.277 C 
ENDBRANCH  33  37
BRANCH  32  39
ATOM     39  O   UNL     1      -9.741   1.564  -2.037  0.00  0.00    -0.491 OA
ATOM     40  C   UNL     1      -9.527   2.967  -1.875  0.00  0.00    +0.277 C 
ENDBRANCH  32  39
ENDBRANCH   5  29
TORSDOF 7
