REMARK  Name = ZINC38573852
REMARK  8 active torsions:
REMARK  status: ('A' for Active; 'I' for Inactive)
REMARK    1  A    between atoms: C_1  and  C_2
REMARK    2  A    between atoms: C_2  and  O_3
REMARK    3  A    between atoms: O_3  and  C_4
REMARK    4  A    between atoms: C_4  and  C_6
REMARK    5  A    between atoms: C_10  and  N_12
REMARK    6  A    between atoms: C_13  and  C_15
REMARK    7  A    between atoms: C_29  and  C_41
REMARK    8  A    between atoms: C_34  and  C_36
REMARK                            x       y       z     vdW  Elec       q    Type
REMARK                         _______ _______ _______ _____ _____    ______ ____
ROOT
ATOM      1  C   UNL     1      -6.113  -7.732   0.052  0.00  0.00    +0.123 C 
ATOM      2  C   UNL     1      -5.559  -8.417  -1.239  0.00  0.00    +0.155 C 
ATOM      3  C   UNL     1      -5.841  -9.918  -1.108  0.00  0.00    +0.004 C 
ATOM      4  C   UNL     1      -7.157 -10.094  -1.282  0.00  0.00    +0.008 C 
ATOM      5  C   UNL     1      -7.678  -8.713  -1.473  0.00  0.00    +0.119 C 
ATOM      6  C   UNL     1      -7.623  -7.985  -0.080  0.00  0.00    +0.127 C 
ATOM      7  C   UNL     1      -8.463  -6.766  -0.344  0.00  0.00    +0.224 C 
ATOM      8  O   UNL     1      -8.301  -5.668   0.145  0.00  0.00    -0.275 OA
ATOM      9  N   UNL     1      -9.429  -7.110  -1.222  0.00  0.00    -0.284 N 
ATOM     10  C   UNL     1      -9.046  -8.378  -1.959  0.00  0.00    +0.123 C 
ATOM     11  C   UNL     1     -10.097  -9.445  -1.629  0.00  0.00    +0.076 C 
ATOM     12  C   UNL     1     -11.458  -8.828  -1.891  0.00  0.00    +0.140 C 
ATOM     13  O   UNL     1     -12.234  -9.360  -2.648  0.00  0.00    -0.297 OA
ATOM     14  C   UNL     1     -11.833  -7.541  -1.194  0.00  0.00    +0.105 C 
ATOM     15  C   UNL     1     -10.712  -6.436  -1.453  0.00  0.00    +0.149 C 
ATOM     16  C   UNL     1      -9.897 -10.669  -2.524  0.00  0.00    +0.017 C 
ATOM     17  O   UNL     1      -6.602  -8.020  -2.201  0.00  0.00    -0.359 OA
ENDROOT
BRANCH  15  18
ATOM     18  C   UNL     1     -10.774  -5.924  -2.869  0.00  0.00    +0.126 A 
ATOM     19  C   UNL     1     -11.284  -4.742  -3.257  0.00  0.00    +0.046 A 
ATOM     20  C   UNL     1     -11.139  -4.673  -4.662  0.00  0.00    +0.041 A 
ATOM     21  C   UNL     1     -10.549  -5.819  -5.048  0.00  0.00    +0.195 A 
ATOM     22  O   UNL     1     -10.325  -6.570  -3.958  0.00  0.00    -0.466 OA
ENDBRANCH  15  18
BRANCH   1  24
ATOM     23  N   UNL     1      -5.684  -5.592   1.216  0.00  0.00    -0.285 N 
ATOM     24  C   UNL     1      -5.811  -6.255   0.050  0.00  0.00    +0.224 C 
ATOM     25  O   UNL     1      -5.683  -5.663  -1.001  0.00  0.00    -0.275 OA
ATOM     26  H   UNL     1      -5.721  -6.076   2.056  0.00  0.00    +0.155 HD
BRANCH  23  31
ATOM     27  C   UNL     1      -5.871  -2.048   2.215  0.00  0.00    +0.061 A 
ATOM     28  C   UNL     1      -5.120  -1.454   1.198  0.00  0.00    +0.015 A 
ATOM     29  C   UNL     1      -4.566  -2.234   0.204  0.00  0.00    +0.003 A 
ATOM     30  C   UNL     1      -4.752  -3.604   0.209  0.00  0.00    +0.023 A 
ATOM     31  C   UNL     1      -5.498  -4.205   1.216  0.00  0.00    +0.034 A 
ATOM     32  C   UNL     1      -6.053  -3.431   2.223  0.00  0.00    +0.038 A 
BRANCH  27  33
ATOM     33  C   UNL     1      -6.465  -1.215   3.281  0.00  0.00    +0.339 C 
ATOM     34  O   UNL     1      -7.113  -1.734   4.167  0.00  0.00    -0.245 OA
BRANCH  33  35
ATOM     35  O   UNL     1      -6.287   0.120   3.270  0.00  0.00    -0.461 OA
BRANCH  35  37
ATOM     36  C   UNL     1      -6.581   2.351   4.152  0.00  0.00    +0.048 C 
ATOM     37  C   UNL     1      -6.889   0.863   4.332  0.00  0.00    +0.229 C 
ENDBRANCH  35  37
ENDBRANCH  33  35
ENDBRANCH  27  33
ENDBRANCH  23  31
ENDBRANCH   1  24
TORSDOF 6
