REMARK  Name = ZINC17642704
REMARK  6 active torsions:
REMARK  status: ('A' for Active; 'I' for Inactive)
REMARK    1  A    between atoms: C_3  and  N_26
REMARK    2  A    between atoms: C_5  and  O_7
REMARK    3  A    between atoms: O_7  and  C_8
REMARK    4  A    between atoms: C_8  and  C_10
REMARK    5  A    between atoms: C_10  and  C_11
REMARK    6  A    between atoms: C_11  and  N_12
REMARK                            x       y       z     vdW  Elec       q    Type
REMARK                         _______ _______ _______ _____ _____    ______ ____
ROOT
ATOM      1  C   UNL     1      -1.403  -4.675   0.313  0.00  0.00    +0.137 C 
ENDROOT
BRANCH   1   2
ATOM      2  N   UNL     1      -1.423  -6.136   0.420  0.00  0.00    -0.298 N 
ATOM      3  C   UNL     1      -1.491  -6.884  -0.711  0.00  0.00    +0.203 A 
ATOM      4  N   UNL     1      -1.510  -8.189  -0.658  0.00  0.00    -0.230 NA
ATOM      5  C   UNL     1      -1.464  -8.827   0.509  0.00  0.00    +0.116 A 
ATOM      6  C   UNL     1      -1.392  -8.139   1.730  0.00  0.00    +0.076 A 
ATOM      7  C   UNL     1      -1.367  -6.709   1.637  0.00  0.00    +0.262 A 
ATOM      8  O   UNL     1      -1.302  -6.023   2.642  0.00  0.00    -0.267 OA
ATOM      9  C   UNL     1      -1.349  -8.971   2.932  0.00  0.00    -0.023 A 
ATOM     10  C   UNL     1      -1.381 -10.308   2.752  0.00  0.00    -0.004 A 
ATOM     11  S   UNL     1      -1.470 -10.533   0.996  0.00  0.00    -0.073 S 
ATOM     12  C   UNL     1      -1.348 -11.368   3.811  0.00  0.00    +0.043 C 
ATOM     13  C   UNL     1      -0.899 -10.721   5.129  0.00  0.00    +0.005 C 
ATOM     14  C   UNL     1      -1.704  -9.437   5.346  0.00  0.00    +0.005 C 
ATOM     15  C   UNL     1      -1.271  -8.375   4.335  0.00  0.00    +0.037 C 
ENDBRANCH   1   2
BRANCH   1  16
ATOM     16  C   UNL     1       0.044  -4.191   0.199  0.00  0.00    +0.142 C 
BRANCH  16  17
ATOM     17  C   UNL     1       0.065  -2.688   0.089  0.00  0.00    +0.314 C 
ATOM     18  O   UNL     1      -0.972  -2.068   0.101  0.00  0.00    -0.250 OA
BRANCH  17  19
ATOM     19  O   UNL     1       1.235  -2.039  -0.022  0.00  0.00    -0.426 OA
BRANCH  19  24
ATOM     20  C   UNL     1       1.493   1.420  -1.120  0.00  0.00    +0.006 A 
ATOM     21  C   UNL     1       1.176   2.085   0.050  0.00  0.00    +0.033 A 
ATOM     22  C   UNL     1       0.878   1.371   1.196  0.00  0.00    +0.130 A 
ATOM     23  C   UNL     1       0.898  -0.010   1.174  0.00  0.00    +0.079 A 
ATOM     24  C   UNL     1       1.215  -0.680   0.002  0.00  0.00    +0.134 A 
ATOM     25  C   UNL     1       1.513   0.039  -1.147  0.00  0.00    +0.046 A 
BRANCH  22  26
ATOM     26  N   UNL     1       0.540   2.087   2.446  0.00  0.00    +0.057 N 
ATOM     27  O   UNL     1       0.523   3.295   2.466  0.00  0.00    -0.126 OA
ATOM     28  O   UNL     1       0.280   1.462   3.449  0.00  0.00    -0.126 OA
ENDBRANCH  22  26
ENDBRANCH  19  24
ENDBRANCH  17  19
ENDBRANCH  16  17
ENDBRANCH   1  16
TORSDOF 6
