REMARK  Name = ZINC67380554
REMARK  5 active torsions:
REMARK  status: ('A' for Active; 'I' for Inactive)
REMARK    1  A    between atoms: C_3  and  N_10
REMARK    2  A    between atoms: C_5  and  N_7
REMARK    3  A    between atoms: C_13  and  N_17
REMARK    4  A    between atoms: C_20  and  C_23
REMARK    5  A    between atoms: C_23  and  N_24
REMARK                            x       y       z     vdW  Elec       q    Type
REMARK                         _______ _______ _______ _____ _____    ______ ____
ROOT
ATOM      1  N   UNL     1       3.226   2.094   0.940  0.00  0.00    -0.273 N 
ATOM      2  C   UNL     1       3.220   3.552   1.107  0.00  0.00    +0.112 C 
ATOM      3  C   UNL     1       4.676   3.932   1.456  0.00  0.00    +0.013 C 
ATOM      4  C   UNL     1       5.468   2.766   0.820  0.00  0.00    +0.021 C 
ATOM      5  C   UNL     1       4.475   1.625   0.777  0.00  0.00    +0.206 C 
ATOM      6  O   UNL     1       4.764   0.459   0.617  0.00  0.00    -0.277 OA
ENDROOT
BRANCH   4   7
ATOM      7  N   UNL     1       6.622   2.411   1.657  0.00  0.00    +0.387 N 
ATOM      8  C   UNL     1       7.350   1.298   1.037  0.00  0.00    -0.077 C 
ATOM      9  C   UNL     1       8.506   0.871   1.945  0.00  0.00    -0.014 C 
ATOM     10  C   UNL     1       9.455   2.056   2.145  0.00  0.00    -0.000 C 
ATOM     11  C   UNL     1       8.668   3.236   2.724  0.00  0.00    -0.014 C 
ATOM     12  C   UNL     1       7.506   3.575   1.787  0.00  0.00    -0.077 C 
ATOM     13  H   UNL     1       6.299   2.132   2.572  0.00  0.00    -0.081 HD
BRANCH  10  14
ATOM     14  C   UNL     1      10.570   1.660   3.115  0.00  0.00    +0.088 C 
BRANCH  14  15
ATOM     15  N   UNL     1      11.541   2.757   3.219  0.00  0.00    -0.298 NA
ATOM     16  C   UNL     1      12.349   2.632   4.441  0.00  0.00    +0.112 C 
ATOM     17  C   UNL     1      13.305   3.824   4.539  0.00  0.00    +0.175 C 
ATOM     18  O   UNL     1      14.112   3.880   3.360  0.00  0.00    -0.377 OA
ATOM     19  C   UNL     1      13.357   4.003   2.151  0.00  0.00    +0.175 C 
ATOM     20  C   UNL     1      12.402   2.813   2.029  0.00  0.00    +0.112 C 
ENDBRANCH  14  15
ENDBRANCH  10  14
ENDBRANCH   4   7
BRANCH   1  23
ATOM     21  C   UNL     1       1.039  -0.852   0.693  0.00  0.00    +0.004 A 
ATOM     22  C   UNL     1       2.173  -0.064   0.677  0.00  0.00    +0.023 A 
ATOM     23  C   UNL     1       2.078   1.293   0.955  0.00  0.00    +0.038 A 
ATOM     24  C   UNL     1       0.842   1.854   1.248  0.00  0.00    +0.056 A 
ATOM     25  C   UNL     1      -0.288   1.060   1.262  0.00  0.00    +0.128 A 
ATOM     26  C   UNL     1      -0.190  -0.291   0.985  0.00  0.00    +0.033 A 
BRANCH  25  27
ATOM     27  N   UNL     1      -1.607   1.657   1.574  0.00  0.00    +0.056 N 
ATOM     28  O   UNL     1      -1.693   2.839   1.817  0.00  0.00    -0.126 OA
ATOM     29  O   UNL     1      -2.597   0.964   1.587  0.00  0.00    -0.126 OA
ENDBRANCH  25  27
ENDBRANCH   1  23
TORSDOF 5
