REMARK  Name = ZINC06321198
REMARK  10 active torsions:
REMARK  status: ('A' for Active; 'I' for Inactive)
REMARK    1  A    between atoms: C_1  and  C_2
REMARK    2  A    between atoms: C_6  and  C_15
REMARK    3  A    between atoms: C_13  and  C_14
REMARK    4  A    between atoms: C_15  and  C_17
REMARK    5  A    between atoms: C_15  and  N_67
REMARK    6  A    between atoms: N_21  and  C_22
REMARK    7  A    between atoms: C_22  and  C_23
REMARK    8  A    between atoms: C_22  and  C_24
REMARK    9  A    between atoms: C_22  and  C_25
REMARK   10  A    between atoms: C_28  and  C_31
REMARK                            x       y       z     vdW  Elec       q    Type
REMARK                         _______ _______ _______ _____ _____    ______ ____
ROOT
ATOM      1  C   UNL     1      -4.790   3.801   0.227  0.00  0.00    +0.039 C 
ENDROOT
BRANCH   1   7
ATOM      2  C   UNL     1       2.413   2.413   1.576  0.00  0.00    +0.044 C 
ATOM      3  C   UNL     1       1.000   1.935   1.361  0.00  0.00    -0.047 A 
ATOM      4  C   UNL     1       0.006   2.843   1.127  0.00  0.00    +0.013 A 
ATOM      5  C   UNL     1      -1.306   2.399   0.928  0.00  0.00    -0.001 A 
ATOM      6  C   UNL     1      -2.395   3.344   0.675  0.00  0.00    +0.017 A 
ATOM      7  C   UNL     1      -3.646   2.855   0.489  0.00  0.00    +0.011 A 
ATOM      8  C   UNL     1      -3.881   1.465   0.541  0.00  0.00    +0.251 A 
ATOM      9  O   UNL     1      -5.013   1.047   0.371  0.00  0.00    -0.268 OA
ATOM     10  N   UNL     1      -2.887   0.589   0.773  0.00  0.00    -0.322 N 
ATOM     11  H   UNL     1      -3.084  -0.360   0.802  0.00  0.00    +0.169 HD
ATOM     12  C   UNL     1      -1.592   1.021   0.964  0.00  0.00    +0.049 A 
ATOM     13  C   UNL     1      -0.565   0.116   1.209  0.00  0.00    +0.030 A 
ATOM     14  C   UNL     1       0.720   0.576   1.403  0.00  0.00    -0.046 A 
ATOM     15  C   UNL     1       1.833  -0.407   1.661  0.00  0.00    +0.044 C 
ENDBRANCH   1   7
BRANCH   1  21
ATOM     16  C   UNL     1      -4.559   3.537  -2.172  0.00  0.00    -0.072 C 
ATOM     17  C   UNL     1      -5.199   2.833  -3.371  0.00  0.00    +0.017 C 
ATOM     18  C   UNL     1      -6.621   3.294  -3.529  0.00  0.00    -0.048 C 
ATOM     19  C   UNL     1      -7.277   3.913  -2.572  0.00  0.00    -0.041 C 
ATOM     20  C   UNL     1      -6.672   4.227  -1.234  0.00  0.00    -0.049 C 
ATOM     21  N   UNL     1      -5.474   3.394  -1.021  0.00  0.00    +0.392 N 
ATOM     22  H   UNL     1      -5.760   2.411  -0.941  0.00  0.00    -0.080 HD
BRANCH  18  23
ATOM     23  C   UNL     1      -7.310   3.040  -4.812  0.00  0.00    -0.022 A 
ATOM     24  C   UNL     1      -7.565   1.732  -5.223  0.00  0.00    +0.011 A 
ATOM     25  C   UNL     1      -8.214   1.501  -6.418  0.00  0.00    +0.039 A 
ATOM     26  C   UNL     1      -8.601   2.566  -7.216  0.00  0.00    +0.123 A 
ATOM     27  C   UNL     1      -8.344   3.868  -6.816  0.00  0.00    +0.039 A 
ATOM     28  C   UNL     1      -7.702   4.109  -5.619  0.00  0.00    +0.011 A 
ATOM     29  F   UNL     1      -9.231   2.335  -8.389  0.00  0.00    -0.205 F 
ENDBRANCH  18  23
ENDBRANCH   1  21
BRANCH   1  30
ATOM     30  C   UNL     1      -5.768   3.735   1.371  0.00  0.00    +0.143 A 
ATOM     31  N   UNL     1      -6.552   2.729   1.674  0.00  0.00    -0.115 NA
ATOM     32  N   UNL     1      -7.236   3.057   2.715  0.00  0.00    -0.023 NA
ATOM     33  N   UNL     1      -6.909   4.246   3.084  0.00  0.00    -0.043 NA
ATOM     34  N   UNL     1      -6.003   4.696   2.284  0.00  0.00    -0.225 N 
BRANCH  34  35
ATOM     35  C   UNL     1      -5.354   6.008   2.353  0.00  0.00    +0.059 C 
ATOM     36  C   UNL     1      -5.684   6.808   1.092  0.00  0.00    +0.036 C 
ATOM     37  C   UNL     1      -5.861   6.763   3.583  0.00  0.00    +0.036 C 
ATOM     38  C   UNL     1      -3.838   5.822   2.457  0.00  0.00    +0.036 C 
ENDBRANCH  34  35
ENDBRANCH   1  30
TORSDOF 5
