REMARK  Name = ZINC64053714
REMARK  5 active torsions:
REMARK  status: ('A' for Active; 'I' for Inactive)
REMARK    1  A    between atoms: C_1  and  C_2
REMARK    2  A    between atoms: C_7  and  C_8
REMARK    3  A    between atoms: C_16  and  C_17
REMARK    4  A    between atoms: N_19  and  C_20
REMARK    5  A    between atoms: C_20  and  C_21
REMARK                            x       y       z     vdW  Elec       q    Type
REMARK                         _______ _______ _______ _____ _____    ______ ____
ROOT
ATOM      1  C   UNL     1      -0.466  -0.265   7.063  0.00  0.00    +0.259 C 
ATOM      2  O   UNL     1       0.113  -1.322   6.884  0.00  0.00    -0.269 OA
ATOM      3  N   UNL     1      -1.042  -0.005   8.254  0.00  0.00    -0.307 N 
ATOM      4  H   UNL     1      -1.503   0.837   8.396  0.00  0.00    +0.149 HD
ENDROOT
BRANCH   1  12
ATOM      5  C   UNL     1       0.242   0.019   2.480  0.00  0.00    +0.064 C 
ATOM      6  C   UNL     1       0.491  -0.619   3.832  0.00  0.00    +0.163 C 
ATOM      7  N   UNL     1       0.063   0.419   4.793  0.00  0.00    -0.289 N 
ATOM      8  C   UNL     1       0.387   1.659   4.018  0.00  0.00    +0.256 C 
ATOM      9  N   UNL     1       0.151   1.303   2.623  0.00  0.00    -0.253 NA
ATOM     10  S   UNL     1      -0.945   2.740   4.676  0.00  0.00    -0.085 S 
ATOM     11  C   UNL     1      -1.179   1.869   6.223  0.00  0.00    +0.072 C 
ATOM     12  C   UNL     1      -0.533   0.691   6.019  0.00  0.00    +0.101 C 
BRANCH   5  19
ATOM     13  C   UNL     1      -0.472   1.460   0.075  0.00  0.00    +0.044 C 
ATOM     14  C   UNL     1      -0.216  -0.025   0.033  0.00  0.00    -0.042 A 
ATOM     15  C   UNL     1      -0.315  -0.710  -1.160  0.00  0.00    +0.004 A 
ATOM     16  C   UNL     1      -0.079  -2.073  -1.201  0.00  0.00    +0.000 A 
ATOM     17  C   UNL     1       0.257  -2.758  -0.046  0.00  0.00    +0.001 A 
ATOM     18  C   UNL     1       0.359  -2.085   1.153  0.00  0.00    +0.010 A 
ATOM     19  C   UNL     1       0.128  -0.709   1.201  0.00  0.00    +0.000 A 
ENDBRANCH   5  19
ENDBRANCH   1  12
BRANCH   3  20
ATOM     20  C   UNL     1      -0.973  -0.994   9.332  0.00  0.00    +0.151 C 
BRANCH  20  21
ATOM     21  C   UNL     1      -1.700  -0.455  10.566  0.00  0.00    +0.191 C 
ATOM     22  N   UNL     1      -3.089  -0.121  10.226  0.00  0.00    -0.362 N 
ATOM     23  C   UNL     1      -3.250   1.151  10.447  0.00  0.00    +0.060 A 
ATOM     24  C   UNL     1      -4.401   2.053  10.298  0.00  0.00    +0.027 A 
ATOM     25  C   UNL     1      -4.268   3.357  10.613  0.00  0.00    +0.002 A 
ATOM     26  C   UNL     1      -3.062   3.905  11.085  0.00  0.00    +0.002 A 
ATOM     27  C   UNL     1      -1.947   3.167  11.257  0.00  0.00    +0.027 A 
ATOM     28  C   UNL     1      -1.974   1.731  10.947  0.00  0.00    +0.060 A 
ATOM     29  N   UNL     1      -1.072   0.794  11.015  0.00  0.00    -0.362 N 
ATOM     30  H   UNL     1      -3.763  -0.736   9.897  0.00  0.00    +0.162 HD
ATOM     31  H   UNL     1      -0.154   0.901  11.309  0.00  0.00    +0.162 HD
ENDBRANCH  20  21
ENDBRANCH   3  20
TORSDOF 4
