REMARK  Name = ZINC45921946
REMARK  7 active torsions:
REMARK  status: ('A' for Active; 'I' for Inactive)
REMARK    1  A    between atoms: N_9  and  C_22
REMARK    2  A    between atoms: N_12  and  C_13
REMARK    3  A    between atoms: C_13  and  C_14
REMARK    4  A    between atoms: N_16  and  C_17
REMARK    5  A    between atoms: C_25  and  C_28
REMARK    6  A    between atoms: C_28  and  C_29
REMARK    7  A    between atoms: N_31  and  C_32
REMARK                            x       y       z     vdW  Elec       q    Type
REMARK                         _______ _______ _______ _____ _____    ______ ____
ROOT
ATOM      1  C   UNL     1       0.398   1.398   1.286  0.00  0.00    +0.001 A 
ATOM      2  C   UNL     1       1.357   2.103   0.575  0.00  0.00    +0.002 A 
ATOM      3  C   UNL     1       2.358   1.440  -0.105  0.00  0.00    +0.027 A 
ATOM      4  C   UNL     1       2.407   0.055  -0.079  0.00  0.00    +0.059 A 
ATOM      5  C   UNL     1       1.436  -0.662   0.642  0.00  0.00    +0.064 A 
ATOM      6  C   UNL     1       0.431   0.019   1.325  0.00  0.00    +0.015 A 
ATOM      7  C   UNL     1       1.518  -2.133   0.650  0.00  0.00    +0.269 A 
ATOM      8  O   UNL     1       0.703  -2.800   1.257  0.00  0.00    -0.266 OA
ATOM      9  N   UNL     1       2.522  -2.722  -0.036  0.00  0.00    -0.228 N 
ATOM     10  C   UNL     1       3.426  -1.993  -0.710  0.00  0.00    +0.337 A 
ATOM     11  O   UNL     1       4.310  -2.574  -1.310  0.00  0.00    -0.246 OA
ATOM     12  N   UNL     1       3.397  -0.650  -0.749  0.00  0.00    -0.284 N 
ENDROOT
BRANCH   9  13
ATOM     13  C   UNL     1       2.623  -4.119  -0.043  0.00  0.00    +0.054 A 
ATOM     14  C   UNL     1       3.364  -4.769   0.934  0.00  0.00    +0.027 A 
ATOM     15  C   UNL     1       3.461  -6.147   0.924  0.00  0.00    +0.006 A 
ATOM     16  C   UNL     1       2.820  -6.879  -0.058  0.00  0.00    -0.038 A 
ATOM     17  C   UNL     1       2.081  -6.235  -1.033  0.00  0.00    +0.006 A 
ATOM     18  C   UNL     1       1.975  -4.858  -1.025  0.00  0.00    +0.027 A 
BRANCH  16  19
ATOM     19  C   UNL     1       2.929  -8.382  -0.067  0.00  0.00    +0.130 C 
BRANCH  19  20
ATOM     20  C   UNL     1       1.808  -8.971   0.750  0.00  0.00    +0.218 C 
ATOM     21  O   UNL     1       1.001  -8.242   1.287  0.00  0.00    -0.275 OA
ATOM     22  N   UNL     1       1.703 -10.308   0.884  0.00  0.00    -0.312 N 
ATOM     23  H   UNL     1       2.349 -10.891   0.455  0.00  0.00    +0.149 HD
BRANCH  22  24
ATOM     24  C   UNL     1       0.613 -10.881   1.679  0.00  0.00    +0.073 C 
ATOM     25  C   UNL     1       1.019 -10.912   3.154  0.00  0.00    +0.022 C 
ATOM     26  C   UNL     1      -0.119 -11.510   3.983  0.00  0.00    +0.002 C 
ATOM     27  C   UNL     1      -0.406 -12.934   3.503  0.00  0.00    +0.000 C 
ATOM     28  C   UNL     1      -0.812 -12.903   2.029  0.00  0.00    +0.002 C 
ATOM     29  C   UNL     1       0.326 -12.305   1.199  0.00  0.00    +0.022 C 
ENDBRANCH  22  24
ENDBRANCH  19  20
ENDBRANCH  16  19
ENDBRANCH   9  13
BRANCH  12  30
ATOM     30  C   UNL     1       4.418   0.076  -1.506  0.00  0.00    +0.222 C 
BRANCH  30  31
ATOM     31  C   UNL     1       5.590   0.378  -0.608  0.00  0.00    +0.233 C 
ATOM     32  O   UNL     1       5.574   0.021   0.551  0.00  0.00    -0.274 OA
ATOM     33  N   UNL     1       6.657   1.044  -1.093  0.00  0.00    -0.311 N 
ATOM     34  H   UNL     1       6.670   1.330  -2.020  0.00  0.00    +0.149 HD
BRANCH  33  35
ATOM     35  C   UNL     1       7.796   1.337  -0.220  0.00  0.00    +0.073 C 
ATOM     36  C   UNL     1       7.569   2.675   0.515  0.00  0.00    +0.022 C 
ATOM     37  C   UNL     1       8.974   3.322   0.569  0.00  0.00    +0.002 C 
ATOM     38  C   UNL     1       9.578   2.945  -0.807  0.00  0.00    +0.002 C 
ATOM     39  C   UNL     1       9.074   1.509  -1.060  0.00  0.00    +0.022 C 
ENDBRANCH  33  35
ENDBRANCH  30  31
ENDBRANCH  12  30
TORSDOF 7
