REMARK  Name = ZINC61719509
REMARK  9 active torsions:
REMARK  status: ('A' for Active; 'I' for Inactive)
REMARK    1  A    between atoms: C_1  and  C_2
REMARK    2  A    between atoms: C_2  and  C_3
REMARK    3  A    between atoms: C_3  and  C_5
REMARK    4  A    between atoms: C_3  and  N_6
REMARK    5  A    between atoms: C_7  and  C_30
REMARK    6  A    between atoms: C_8  and  C_12
REMARK    7  A    between atoms: C_9  and  C_11
REMARK    8  A    between atoms: C_14  and  C_18
REMARK    9  A    between atoms: C_21  and  C_26
REMARK                            x       y       z     vdW  Elec       q    Type
REMARK                         _______ _______ _______ _____ _____    ______ ____
ROOT
ATOM      1  C   UNL     1       2.663  -5.120   1.062  0.00  0.00    +0.070 A 
ATOM      2  C   UNL     1       2.572  -6.275   1.780  0.00  0.00    +0.060 A 
ATOM      3  C   UNL     1       3.683  -7.073   1.452  0.00  0.00    +0.120 A 
ATOM      4  N   UNL     1       4.414  -6.421   0.570  0.00  0.00    -0.171 NA
ATOM      5  N   UNL     1       3.794  -5.194   0.304  0.00  0.00    -0.276 N 
ATOM      6  H   UNL     1       4.114  -4.515  -0.311  0.00  0.00    +0.189 HD
ENDROOT
BRANCH   3   7
ATOM      7  C   UNL     1       3.980  -8.415   2.002  0.00  0.00    +0.152 A 
ATOM      8  N   UNL     1       3.297  -9.117   2.870  0.00  0.00    -0.154 NA
ATOM      9  N   UNL     1       3.729 -10.372   3.278  0.00  0.00    -0.182 N 
ATOM     10  C   UNL     1       3.345 -11.396   4.120  0.00  0.00    +0.259 A 
ATOM     11  N   UNL     1       4.237 -12.343   4.036  0.00  0.00    -0.122 NA
ATOM     12  N   UNL     1       5.162 -12.006   3.205  0.00  0.00    -0.120 NA
ATOM     13  C   UNL     1       4.900 -10.828   2.724  0.00  0.00    +0.219 A 
ATOM     14  S   UNL     1       5.357  -9.495   1.645  0.00  0.00    -0.025 S 
BRANCH  10  15
ATOM     15  C   UNL     1       2.112 -11.415   4.986  0.00  0.00    +0.454 C 
ATOM     16  F   UNL     1       2.227 -12.434   5.938  0.00  0.00    -0.163 F 
ATOM     17  F   UNL     1       1.979 -10.183   5.635  0.00  0.00    -0.163 F 
ATOM     18  F   UNL     1       0.986 -11.646   4.189  0.00  0.00    -0.163 F 
ENDBRANCH  10  15
ENDBRANCH   3   7
BRANCH   1  21
ATOM     19  N   UNL     1       0.866  -1.969   1.174  0.00  0.00    -0.265 N 
ATOM     20  C   UNL     1       2.022  -2.664   1.166  0.00  0.00    +0.046 A 
ATOM     21  C   UNL     1       1.705  -3.991   1.095  0.00  0.00    +0.043 A 
ATOM     22  C   UNL     1       0.299  -4.090   1.059  0.00  0.00    +0.069 A 
ATOM     23  N   UNL     1      -0.194  -2.881   1.112  0.00  0.00    -0.175 NA
ATOM     24  C   UNL     1      -0.496  -5.367   0.980  0.00  0.00    +0.068 C 
ATOM     25  C   UNL     1       3.411  -2.083   1.224  0.00  0.00    +0.066 C 
BRANCH  19  26
ATOM     26  C   UNL     1       0.742  -0.511   1.242  0.00  0.00    +0.104 C 
ATOM     27  C   UNL     1      -0.042  -0.124   2.497  0.00  0.00    +0.032 C 
BRANCH  26  29
ATOM     28  C   UNL     1      -0.019   1.526   0.010  0.00  0.00    +0.006 C 
ATOM     29  C   UNL     1       0.002  -0.004   0.002  0.00  0.00    +0.023 C 
ENDBRANCH  26  29
ENDBRANCH  19  26
ENDBRANCH   1  21
TORSDOF 5
