REMARK  Name = ZINC12890307
REMARK  16 active torsions:
REMARK  status: ('A' for Active; 'I' for Inactive)
REMARK    1  A    between atoms: C_1  and  C_2
REMARK    2  A    between atoms: C_6  and  C_28
REMARK    3  A    between atoms: C_7  and  C_11
REMARK    4  A    between atoms: C_11  and  C_12
REMARK    5  A    between atoms: N_14  and  C_15
REMARK    6  A    between atoms: C_15  and  C_17
REMARK    7  A    between atoms: C_15  and  C_21
REMARK    8  A    between atoms: C_17  and  C_18
REMARK    9  A    between atoms: C_18  and  S_19
REMARK   10  A    between atoms: S_19  and  C_20
REMARK   11  A    between atoms: N_23  and  C_24
REMARK   12  A    between atoms: C_24  and  C_25
REMARK   13  A    between atoms: C_25  and  C_26
REMARK   14  A    between atoms: C_25  and  C_27
REMARK   15  A    between atoms: C_31  and  C_35
REMARK   16  A    between atoms: C_32  and  C_34
REMARK                            x       y       z     vdW  Elec       q    Type
REMARK                         _______ _______ _______ _____ _____    ______ ____
ROOT
ATOM      1  C   UNL     1       7.700  -1.969   0.745  0.00  0.00    +0.044 C 
ATOM      2  C   UNL     1       6.246  -1.590   0.858  0.00  0.00    -0.036 A 
ATOM      3  C   UNL     1       5.504  -1.406  -0.273  0.00  0.00    +0.051 A 
ATOM      4  C   UNL     1       4.159  -1.054  -0.187  0.00  0.00    +0.143 A 
ATOM      5  C   UNL     1       3.558  -0.887   1.072  0.00  0.00    +0.064 A 
ATOM      6  C   UNL     1       2.145  -0.517   1.142  0.00  0.00    -0.026 A 
ATOM      7  C   UNL     1       1.465  -0.349  -0.023  0.00  0.00    +0.049 A 
ATOM      8  C   UNL     1       2.129  -0.539  -1.252  0.00  0.00    +0.341 A 
ATOM      9  O   UNL     1       1.509  -0.392  -2.290  0.00  0.00    -0.245 OA
ATOM     10  O   UNL     1       3.427  -0.873  -1.308  0.00  0.00    -0.422 OA
ATOM     11  C   UNL     1       1.460  -0.328   2.471  0.00  0.00    +0.045 C 
ATOM     12  C   UNL     1       4.317  -1.075   2.240  0.00  0.00    +0.147 A 
ATOM     13  C   UNL     1       5.668  -1.428   2.120  0.00  0.00    +0.027 A 
ATOM     14  C   UNL     1       6.165  -1.546   3.497  0.00  0.00    -0.002 A 
ATOM     15  C   UNL     1       5.124  -1.268   4.294  0.00  0.00    +0.106 A 
ATOM     16  O   UNL     1       4.037  -0.990   3.553  0.00  0.00    -0.459 OA
ATOM     17  C   UNL     1       5.166  -1.265   5.801  0.00  0.00    +0.086 C 
ATOM     18  C   UNL     1       7.563  -1.907   3.927  0.00  0.00    +0.048 C 
ENDROOT
BRANCH   7  19
ATOM     19  C   UNL     1       0.007   0.032  -0.001  0.00  0.00    +0.138 C 
BRANCH  19  20
ATOM     20  C   UNL     1      -0.119   1.533  -0.005  0.00  0.00    +0.218 C 
ATOM     21  O   UNL     1       0.876   2.226  -0.024  0.00  0.00    -0.275 OA
ATOM     22  N   UNL     1      -1.339   2.107   0.006  0.00  0.00    -0.304 N 
ATOM     23  H   UNL     1      -2.135   1.553   0.018  0.00  0.00    +0.149 HD
BRANCH  22  24
ATOM     24  C   UNL     1      -1.462   3.566   0.002  0.00  0.00    +0.160 C 
BRANCH  24  25
ATOM     25  C   UNL     1      -2.795   3.956  -0.585  0.00  0.00    +0.233 C 
ATOM     26  O   UNL     1      -3.565   3.099  -0.962  0.00  0.00    -0.274 OA
ATOM     27  N   UNL     1      -3.130   5.258  -0.690  0.00  0.00    -0.314 N 
ATOM     28  H   UNL     1      -2.514   5.943  -0.388  0.00  0.00    +0.149 HD
BRANCH  27  29
ATOM     29  C   UNL     1      -4.425   5.636  -1.260  0.00  0.00    +0.107 C 
BRANCH  29  30
ATOM     30  C   UNL     1      -4.554   7.161  -1.265  0.00  0.00    -0.000 C 
ATOM     31  C   UNL     1      -5.849   7.561  -1.973  0.00  0.00    +0.009 C 
ATOM     32  C   UNL     1      -4.580   7.675   0.176  0.00  0.00    +0.009 C 
ENDBRANCH  29  30
ENDBRANCH  27  29
ENDBRANCH  24  25
BRANCH  24  33
ATOM     33  C   UNL     1      -1.364   4.091   1.436  0.00  0.00    +0.042 C 
BRANCH  33  34
ATOM     34  C   UNL     1       0.034   3.804   1.989  0.00  0.00    +0.071 C 
BRANCH  34  35
ATOM     35  S   UNL     1       0.151   4.426   3.689  0.00  0.00    -0.164 S 
ATOM     36  C   UNL     1       1.844   4.013   4.192  0.00  0.00    +0.084 C 
ENDBRANCH  34  35
ENDBRANCH  33  34
ENDBRANCH  24  33
ENDBRANCH  22  24
ENDBRANCH  19  20
ENDBRANCH   7  19
TORSDOF 9
