REMARK  Name = ZINC03362981
REMARK  12 active torsions:
REMARK  status: ('A' for Active; 'I' for Inactive)
REMARK    1  A    between atoms: C_1  and  C_2
REMARK    2  A    between atoms: C_2  and  O_3
REMARK    3  A    between atoms: O_3  and  C_4
REMARK    4  A    between atoms: C_4  and  C_6
REMARK    5  A    between atoms: C_10  and  N_11
REMARK    6  A    between atoms: C_12  and  C_14
REMARK    7  A    between atoms: C_14  and  C_16
REMARK    8  A    between atoms: C_14  and  O_17
REMARK    9  A    between atoms: O_17  and  C_18
REMARK   10  A    between atoms: C_18  and  C_20
REMARK   11  A    between atoms: C_30  and  C_31
REMARK   12  A    between atoms: C_30  and  N_63
REMARK                            x       y       z     vdW  Elec       q    Type
REMARK                         _______ _______ _______ _____ _____    ______ ____
ROOT
ATOM      1  C   UNL     1       3.767   5.680  -5.249  0.00  0.00    +0.091 A 
ATOM      2  C   UNL     1       3.535   5.293  -3.869  0.00  0.00    -0.025 A 
ATOM      3  C   UNL     1       2.241   5.092  -3.535  0.00  0.00    -0.021 A 
ATOM      4  S   UNL     1       1.335   5.411  -5.021  0.00  0.00    -0.079 S 
ATOM      5  C   UNL     1       2.655   5.804  -6.073  0.00  0.00    +0.086 A 
ATOM      6  C   UNL     1       1.723   4.687  -2.190  0.00  0.00    -0.035 C 
ATOM      7  C   UNL     1       3.982   5.141  -1.440  0.00  0.00    -0.073 C 
ATOM      8  C   UNL     1       4.632   5.111  -2.826  0.00  0.00    +0.018 C 
ATOM      9  N   UNL     1       2.867   4.171  -1.400  0.00  0.00    +0.386 N 
ATOM     10  H   UNL     1       3.182   3.283  -1.808  0.00  0.00    -0.081 HD
ENDROOT
BRANCH   5  11
ATOM     11  N   UNL     1       2.612   6.157  -7.413  0.00  0.00    -0.276 N 
ATOM     12  C   UNL     1       1.428   6.228  -8.053  0.00  0.00    +0.258 C 
ATOM     13  O   UNL     1       0.401   5.982  -7.458  0.00  0.00    -0.271 OA
ATOM     14  H   UNL     1       3.433   6.354  -7.889  0.00  0.00    +0.155 HD
BRANCH  12  15
ATOM     15  C   UNL     1       1.381   6.612  -9.510  0.00  0.00    +0.259 C 
ATOM     16  C   UNL     1       2.080   5.536 -10.344  0.00  0.00    +0.062 C 
BRANCH  15  17
ATOM     17  O   UNL     1      -0.002   6.731  -9.935  0.00  0.00    -0.449 OA
BRANCH  17  18
ATOM     18  C   UNL     1      -0.266   7.613 -10.918  0.00  0.00    +0.340 C 
ATOM     19  O   UNL     1       0.635   8.264 -11.408  0.00  0.00    -0.245 OA
BRANCH  18  20
ATOM     20  C   UNL     1      -1.652   7.788 -11.402  0.00  0.00    +0.062 A 
ATOM     21  C   UNL     1      -2.704   7.044 -10.856  0.00  0.00    +0.036 A 
ATOM     22  C   UNL     1      -3.983   7.242 -11.334  0.00  0.00    +0.134 A 
ATOM     23  N   UNL     1      -4.219   8.111 -12.299  0.00  0.00    -0.147 N 
ATOM     24  O   UNL     1      -5.546   8.278 -12.763  0.00  0.00    -0.164 OA
ATOM     25  C   UNL     1      -3.255   8.830 -12.845  0.00  0.00    +0.134 A 
ATOM     26  C   UNL     1      -1.948   8.698 -12.424  0.00  0.00    +0.036 A 
ENDBRANCH  18  20
ENDBRANCH  17  18
ENDBRANCH  15  17
ENDBRANCH  12  15
ENDBRANCH   5  11
BRANCH   1  27
ATOM     27  C   UNL     1       5.119   5.929  -5.752  0.00  0.00    +0.342 C 
ATOM     28  O   UNL     1       5.767   5.018  -6.231  0.00  0.00    -0.245 OA
BRANCH  27  29
ATOM     29  O   UNL     1       5.646   7.169  -5.685  0.00  0.00    -0.461 OA
BRANCH  29  31
ATOM     30  C   UNL     1       7.415   8.803  -6.041  0.00  0.00    +0.048 C 
ATOM     31  C   UNL     1       6.991   7.342  -6.203  0.00  0.00    +0.229 C 
ENDBRANCH  29  31
ENDBRANCH  27  29
ENDBRANCH   1  27
BRANCH   9  32
ATOM     32  C   UNL     1       2.451   3.937  -0.001  0.00  0.00    -0.043 C 
BRANCH  32  33
ATOM     33  C   UNL     1       1.156   3.165   0.008  0.00  0.00    -0.064 A 
ATOM     34  C   UNL     1       1.175   1.783   0.000  0.00  0.00    +0.002 A 
ATOM     35  C   UNL     1      -0.013   1.076   0.008  0.00  0.00    +0.000 A 
ATOM     36  C   UNL     1      -1.219   1.751   0.017  0.00  0.00    +0.000 A 
ATOM     37  C   UNL     1      -1.238   3.133   0.030  0.00  0.00    +0.000 A 
ATOM     38  C   UNL     1      -0.050   3.840   0.023  0.00  0.00    +0.002 A 
ENDBRANCH  32  33
ENDBRANCH   9  32
TORSDOF 10
