REMARK  Name = ZINC09647340
REMARK  7 active torsions:
REMARK  status: ('A' for Active; 'I' for Inactive)
REMARK    1  A    between atoms: C_1  and  O_2
REMARK    2  A    between atoms: O_2  and  C_3
REMARK    3  A    between atoms: C_6  and  C_9
REMARK    4  A    between atoms: C_12  and  C_31
REMARK    5  A    between atoms: C_15  and  C_17
REMARK    6  A    between atoms: C_17  and  N_63
REMARK    7  A    between atoms: C_26  and  C_28
REMARK                            x       y       z     vdW  Elec       q    Type
REMARK                         _______ _______ _______ _____ _____    ______ ____
ROOT
ATOM      1  C   UNL     1       0.189   4.773   1.917  0.00  0.00    +0.137 C 
ATOM      2  C   UNL     1       0.603   6.148   1.357  0.00  0.00    +0.087 C 
ATOM      3  C   UNL     1       1.116   5.837  -0.031  0.00  0.00    +0.069 C 
ATOM      4  N   UNL     1       1.034   4.569  -0.246  0.00  0.00    -0.181 NA
ATOM      5  N   UNL     1       0.502   3.845   0.819  0.00  0.00    -0.187 N 
ATOM      6  C   UNL     1       0.311   2.511   0.841  0.00  0.00    +0.219 C 
ATOM      7  O   UNL     1      -0.157   1.981   1.827  0.00  0.00    -0.276 OA
ENDROOT
BRANCH   1  11
ATOM      8  C   UNL     1       2.480   3.814   5.394  0.00  0.00    +0.120 A 
ATOM      9  C   UNL     1       1.161   4.223   5.523  0.00  0.00    +0.046 A 
ATOM     10  C   UNL     1       0.423   4.533   4.397  0.00  0.00    +0.009 A 
ATOM     11  C   UNL     1       0.997   4.435   3.143  0.00  0.00    -0.024 A 
ATOM     12  C   UNL     1       2.310   4.021   3.012  0.00  0.00    +0.009 A 
ATOM     13  C   UNL     1       3.055   3.716   4.135  0.00  0.00    +0.046 A 
BRANCH   8  15
ATOM     14  C   UNL     1       4.561   3.094   6.293  0.00  0.00    +0.277 C 
ATOM     15  O   UNL     1       3.209   3.508   6.500  0.00  0.00    -0.495 OA
ENDBRANCH   8  15
ENDBRANCH   1  11
BRANCH   3  16
ATOM     16  C   UNL     1       1.637   6.830  -0.988  0.00  0.00    -0.002 A 
ATOM     17  C   UNL     1       1.678   8.183  -0.643  0.00  0.00    +0.010 A 
ATOM     18  C   UNL     1       2.170   9.107  -1.542  0.00  0.00    +0.001 A 
ATOM     19  C   UNL     1       2.613   8.697  -2.787  0.00  0.00    +0.000 A 
ATOM     20  C   UNL     1       2.571   7.359  -3.138  0.00  0.00    +0.001 A 
ATOM     21  C   UNL     1       2.086   6.424  -2.247  0.00  0.00    +0.010 A 
ENDBRANCH   3  16
BRANCH   6  22
ATOM     22  C   UNL     1       0.678   1.677  -0.360  0.00  0.00    +0.022 C 
BRANCH  22  32
ATOM     23  C   UNL     1       1.342  -0.306   0.856  0.00  0.00    -0.041 C 
ATOM     24  C   UNL     1       1.081  -1.777   1.052  0.00  0.00    -0.061 A 
ATOM     25  C   UNL     1       1.636  -2.404   2.157  0.00  0.00    +0.002 A 
ATOM     26  C   UNL     1       1.426  -3.751   2.374  0.00  0.00    +0.000 A 
ATOM     27  C   UNL     1       0.658  -4.480   1.485  0.00  0.00    +0.000 A 
ATOM     28  C   UNL     1       0.104  -3.857   0.385  0.00  0.00    +0.004 A 
ATOM     29  C   UNL     1       0.313  -2.503   0.167  0.00  0.00    -0.047 A 
ATOM     30  C   UNL     1      -0.316  -1.865  -1.044  0.00  0.00    +0.029 C 
ATOM     31  C   UNL     1       0.352  -0.519  -1.331  0.00  0.00    +0.024 C 
ATOM     32  N   UNL     1       0.354   0.260  -0.077  0.00  0.00    +0.396 N 
ATOM     33  H   UNL     1      -0.579   0.209   0.350  0.00  0.00    -0.080 HD
BRANCH  31  34
ATOM     34  C   UNL     1      -0.433   0.222  -2.383  0.00  0.00    +0.197 C 
ATOM     35  O   UNL     1      -1.393   0.891  -2.063  0.00  0.00    -0.278 OA
ATOM     36  N   UNL     1      -0.069   0.141  -3.678  0.00  0.00    -0.331 N 
ATOM     37  H   UNL     1       0.699  -0.395  -3.933  0.00  0.00    +0.145 HD
ATOM     38  H   UNL     1      -0.574   0.618  -4.354  0.00  0.00    +0.145 HD
ENDBRANCH  31  34
ENDBRANCH  22  32
ENDBRANCH   6  22
TORSDOF 6
