REMARK  Name = ZINC00514022
REMARK  4 active torsions:
REMARK  status: ('A' for Active; 'I' for Inactive)
REMARK    1  A    between atoms: C_3  and  N_20
REMARK    2  A    between atoms: C_6  and  C_7
REMARK    3  A    between atoms: N_9  and  C_10
REMARK    4  A    between atoms: C_11  and  C_18
REMARK                            x       y       z     vdW  Elec       q    Type
REMARK                         _______ _______ _______ _____ _____    ______ ____
ROOT
ATOM      1  C   UNL     1      -1.305   2.117   0.020  0.00  0.00    +0.249 C 
ATOM      2  O   UNL     1      -2.351   1.497   0.021  0.00  0.00    -0.270 OA
ATOM      3  N   UNL     1      -1.320   3.464   0.027  0.00  0.00    -0.275 N 
ATOM      4  H   UNL     1      -0.485   3.958   0.026  0.00  0.00    +0.156 HD
ENDROOT
BRANCH   3   5
ATOM      5  C   UNL     1      -2.528   4.144   0.037  0.00  0.00    +0.090 A 
ATOM      6  C   UNL     1      -2.746   5.511   0.045  0.00  0.00    +0.084 A 
ATOM      7  C   UNL     1      -4.132   5.976   0.054  0.00  0.00    -0.018 A 
ATOM      8  C   UNL     1      -5.061   5.003   0.054  0.00  0.00    -0.004 A 
ATOM      9  S   UNL     1      -4.130   3.490   0.033  0.00  0.00    -0.077 S 
ATOM     10  C   UNL     1      -6.460   5.558   0.067  0.00  0.00    +0.043 C 
ATOM     11  C   UNL     1      -6.290   7.029   0.509  0.00  0.00    +0.010 C 
ATOM     12  C   UNL     1      -4.847   7.328   0.059  0.00  0.00    +0.037 C 
BRANCH   6  13
ATOM     13  C   UNL     1      -1.653   6.436   0.046  0.00  0.00    +0.102 C 
ATOM     14  N   UNL     1      -0.786   7.170   0.047  0.00  0.00    -0.191 NA
ENDBRANCH   6  13
ENDBRANCH   3   5
BRANCH   1  20
ATOM     15  C   UNL     1       1.186   2.100   0.002  0.00  0.00    +0.015 A 
ATOM     16  C   UNL     1       2.385   1.417  -0.013  0.00  0.00    +0.033 A 
ATOM     17  C   UNL     1       2.396   0.034  -0.021  0.00  0.00    +0.126 A 
ATOM     18  C   UNL     1       1.208  -0.674  -0.013  0.00  0.00    +0.033 A 
ATOM     19  C   UNL     1       0.002  -0.004   0.002  0.00  0.00    +0.015 A 
ATOM     20  C   UNL     1      -0.017   1.392   0.010  0.00  0.00    +0.037 A 
BRANCH  17  21
ATOM     21  N   UNL     1       3.686  -0.692  -0.037  0.00  0.00    +0.056 N 
ATOM     22  O   UNL     1       3.700  -1.910  -0.043  0.00  0.00    -0.126 OA
ATOM     23  O   UNL     1       4.734  -0.071  -0.043  0.00  0.00    -0.126 OA
ENDBRANCH  17  21
ENDBRANCH   1  20
TORSDOF 4
