REMARK  Name = ZINC09380754
REMARK  8 active torsions:
REMARK  status: ('A' for Active; 'I' for Inactive)
REMARK    1  A    between atoms: C_4  and  N_7
REMARK    2  A    between atoms: N_7  and  C_8
REMARK    3  A    between atoms: N_12  and  C_16
REMARK    4  A    between atoms: C_16  and  C_17
REMARK    5  A    between atoms: C_20  and  C_23
REMARK    6  A    between atoms: C_23  and  N_24
REMARK    7  A    between atoms: C_27  and  N_32
REMARK    8  A    between atoms: N_32  and  C_33
REMARK                            x       y       z     vdW  Elec       q    Type
REMARK                         _______ _______ _______ _____ _____    ______ ____
ROOT
ATOM      1  C   UNL     1       3.685  -2.665  -1.463  0.00  0.00    -0.030 A 
ATOM      2  C   UNL     1       2.640  -3.185  -2.203  0.00  0.00    +0.005 A 
ATOM      3  C   UNL     1       2.816  -3.469  -3.544  0.00  0.00    +0.005 A 
ATOM      4  C   UNL     1       4.040  -3.240  -4.144  0.00  0.00    -0.030 A 
ATOM      5  C   UNL     1       5.088  -2.725  -3.403  0.00  0.00    +0.005 A 
ATOM      6  C   UNL     1       4.910  -2.438  -2.063  0.00  0.00    +0.005 A 
ENDROOT
BRANCH   1   7
ATOM      7  C   UNL     1       3.492  -2.352  -0.002  0.00  0.00    +0.152 C 
BRANCH   7  11
ATOM      8  C   UNL     1       3.386   1.395   0.422  0.00  0.00    +0.225 C 
ATOM      9  C   UNL     1       3.938  -0.015   0.275  0.00  0.00    +0.254 C 
ATOM     10  O   UNL     1       5.128  -0.249   0.279  0.00  0.00    -0.272 OA
ATOM     11  N   UNL     1       3.031  -0.969   0.144  0.00  0.00    -0.226 N 
ATOM     12  C   UNL     1       1.706  -0.733   0.137  0.00  0.00    +0.283 C 
ATOM     13  O   UNL     1       0.802  -1.537   0.023  0.00  0.00    -0.262 OA
ATOM     14  S   UNL     1       1.586   1.039   0.335  0.00  0.00    -0.035 S 
BRANCH   8  15
ATOM     15  N   UNL     1       3.752   1.980   1.714  0.00  0.00    -0.325 N 
ATOM     16  H   UNL     1       3.683   1.449   2.523  0.00  0.00    +0.148 HD
BRANCH  15  20
ATOM     17  C   UNL     1       5.089   5.918   1.916  0.00  0.00    +0.000 A 
ATOM     18  C   UNL     1       4.593   5.418   0.726  0.00  0.00    +0.002 A 
ATOM     19  C   UNL     1       4.149   4.112   0.655  0.00  0.00    +0.023 A 
ATOM     20  C   UNL     1       4.201   3.301   1.782  0.00  0.00    +0.028 A 
ATOM     21  C   UNL     1       4.695   3.808   2.977  0.00  0.00    +0.023 A 
ATOM     22  C   UNL     1       5.142   5.113   3.039  0.00  0.00    +0.002 A 
ENDBRANCH  15  20
ENDBRANCH   8  15
ENDBRANCH   7  11
ENDBRANCH   1   7
BRANCH   4  23
ATOM     23  C   UNL     1       4.234  -3.553  -5.606  0.00  0.00    +0.152 C 
BRANCH  23  24
ATOM     24  N   UNL     1       4.695  -4.936  -5.752  0.00  0.00    -0.226 N 
ATOM     25  C   UNL     1       3.788  -5.890  -5.883  0.00  0.00    +0.254 C 
ATOM     26  O   UNL     1       2.599  -5.657  -5.886  0.00  0.00    -0.272 OA
ATOM     27  C   UNL     1       4.341  -7.300  -6.031  0.00  0.00    +0.225 C 
ATOM     28  S   UNL     1       6.142  -6.942  -5.946  0.00  0.00    -0.035 S 
ATOM     29  C   UNL     1       6.021  -5.170  -5.751  0.00  0.00    +0.283 C 
ATOM     30  O   UNL     1       6.924  -4.365  -5.642  0.00  0.00    -0.262 OA
BRANCH  27  31
ATOM     31  N   UNL     1       3.916  -8.158  -4.923  0.00  0.00    -0.325 N 
ATOM     32  H   UNL     1       3.929  -7.819  -4.014  0.00  0.00    +0.148 HD
BRANCH  31  33
ATOM     33  C   UNL     1       3.491  -9.464  -5.175  0.00  0.00    +0.028 A 
ATOM     34  C   UNL     1       2.948 -10.230  -4.150  0.00  0.00    +0.023 A 
ATOM     35  C   UNL     1       2.524 -11.520  -4.404  0.00  0.00    +0.002 A 
ATOM     36  C   UNL     1       2.650 -12.053  -5.674  0.00  0.00    +0.000 A 
ATOM     37  C   UNL     1       3.194 -11.296  -6.695  0.00  0.00    +0.002 A 
ATOM     38  C   UNL     1       3.615 -10.004  -6.449  0.00  0.00    +0.023 A 
ENDBRANCH  31  33
ENDBRANCH  27  31
ENDBRANCH  23  24
ENDBRANCH   4  23
TORSDOF 8
