REMARK  Name = ZINC37154250
REMARK  8 active torsions:
REMARK  status: ('A' for Active; 'I' for Inactive)
REMARK    1  A    between atoms: C_1  and  C_2
REMARK    2  A    between atoms: C_2  and  C_3
REMARK    3  A    between atoms: C_2  and  C_4
REMARK    4  A    between atoms: C_2  and  C_5
REMARK    5  A    between atoms: C_9  and  C_21
REMARK    6  A    between atoms: C_11  and  S_14
REMARK    7  A    between atoms: S_14  and  C_15
REMARK    8  A    between atoms: N_19  and  C_20
REMARK                            x       y       z     vdW  Elec       q    Type
REMARK                         _______ _______ _______ _____ _____    ______ ____
ROOT
ATOM      1  C   UNL     1       0.718  -0.497  -1.257  0.00  0.00    -0.004 C 
ATOM      2  C   UNL     1      -0.022   0.009  -2.496  0.00  0.00    +0.005 C 
ATOM      3  C   UNL     1       0.694  -0.484  -3.755  0.00  0.00    +0.020 C 
ATOM      4  C   UNL     1       2.130   0.045  -3.766  0.00  0.00    +0.105 C 
ATOM      5  C   UNL     1       2.870  -0.461  -2.526  0.00  0.00    +0.071 C 
ATOM      6  C   UNL     1       2.154   0.032  -1.268  0.00  0.00    +0.020 C 
ENDROOT
BRANCH   1   8
ATOM      7  C   UNL     1      -0.019   1.526   0.010  0.00  0.00    +0.011 C 
ATOM      8  C   UNL     1       0.002  -0.004   0.002  0.00  0.00    -0.035 C 
ATOM      9  C   UNL     1       0.742  -0.511   1.242  0.00  0.00    +0.011 C 
ATOM     10  C   UNL     1      -1.433  -0.534   0.013  0.00  0.00    +0.011 C 
ENDBRANCH   1   8
BRANCH   4  11
ATOM     11  C   UNL     1       2.110   1.517  -3.758  0.00  0.00    +0.067 C 
ATOM     12  N   UNL     1       2.094   2.653  -3.752  0.00  0.00    -0.196 NA
ENDBRANCH   4  11
BRANCH   5  13
ATOM     13  S   UNL     1       2.894  -2.275  -2.536  0.00  0.00    -0.080 S 
BRANCH  13  14
ATOM     14  C   UNL     1       3.867  -2.680  -3.948  0.00  0.00    +0.209 A 
ATOM     15  N   UNL     1       4.434  -1.831  -4.777  0.00  0.00    -0.102 NA
ATOM     16  N   UNL     1       5.071  -2.458  -5.699  0.00  0.00    -0.022 NA
ATOM     17  N   UNL     1       4.961  -3.732  -5.532  0.00  0.00    -0.043 NA
ATOM     18  N   UNL     1       4.177  -3.925  -4.382  0.00  0.00    -0.223 N 
ATOM     19  C   UNL     1       3.778  -5.201  -3.781  0.00  0.00    +0.177 C 
ENDBRANCH  13  14
ENDBRANCH   5  13
TORSDOF 4
