REMARK  Name = ZINC15161988
REMARK  5 active torsions:
REMARK  status: ('A' for Active; 'I' for Inactive)
REMARK    1  A    between atoms: C_3  and  S_6
REMARK    2  A    between atoms: S_6  and  N_9
REMARK    3  A    between atoms: N_12  and  C_15
REMARK    4  A    between atoms: C_18  and  C_24
REMARK    5  A    between atoms: C_20  and  N_21
REMARK                            x       y       z     vdW  Elec       q    Type
REMARK                         _______ _______ _______ _____ _____    ______ ____
ROOT
ATOM      1  N   UNL     1       3.251   1.029  -1.605  0.00  0.00    -0.173 NA
ATOM      2  C   UNL     1       3.034  -0.233  -2.329  0.00  0.00    +0.128 C 
ATOM      3  C   UNL     1       2.302   0.084  -3.642  0.00  0.00    +0.122 C 
ATOM      4  N   UNL     1       3.057   1.103  -4.384  0.00  0.00    -0.326 N 
ATOM      5  C   UNL     1       3.119   2.367  -3.638  0.00  0.00    +0.122 C 
ATOM      6  C   UNL     1       3.880   2.146  -2.326  0.00  0.00    +0.128 C 
ENDROOT
BRANCH   4   7
ATOM      7  C   UNL     1       2.516   1.299  -5.657  0.00  0.00    +0.062 A 
ATOM      8  C   UNL     1       1.229   1.802  -5.796  0.00  0.00    +0.046 A 
ATOM      9  C   UNL     1       0.699   2.000  -7.057  0.00  0.00    +0.054 A 
ATOM     10  C   UNL     1       1.446   1.687  -8.180  0.00  0.00    +0.075 A 
ATOM     11  C   UNL     1       2.725   1.181  -8.043  0.00  0.00    +0.048 A 
ATOM     12  C   UNL     1       3.262   0.986  -6.785  0.00  0.00    +0.148 A 
ATOM     13 CL   UNL     1      -0.907   2.635  -7.233  0.00  0.00    -0.083 Cl
BRANCH  10  14
ATOM     14  C   UNL     1       0.864   1.899  -9.553  0.00  0.00    +0.419 C 
ATOM     15  F   UNL     1       1.798   1.514 -10.521  0.00  0.00    -0.166 F 
ATOM     16  F   UNL     1      -0.296   1.128  -9.692  0.00  0.00    -0.166 F 
ATOM     17  F   UNL     1       0.548   3.251  -9.723  0.00  0.00    -0.166 F 
ENDBRANCH  10  14
BRANCH  12  18
ATOM     18  N   UNL     1       4.632   0.445  -6.641  0.00  0.00    +0.058 N 
ATOM     19  O   UNL     1       5.286   0.170  -7.631  0.00  0.00    -0.126 OA
ATOM     20  O   UNL     1       5.106   0.274  -5.532  0.00  0.00    -0.126 OA
ENDBRANCH  12  18
ENDBRANCH   4   7
BRANCH   1  21
ATOM     21  S   UNL     1       2.805   1.186  -0.018  0.00  0.00    +0.067 S 
ATOM     22  O   UNL     1       3.612   2.219   0.531  0.00  0.00    -0.152 OA
ATOM     23  O   UNL     1       2.773  -0.126   0.527  0.00  0.00    -0.152 OA
BRANCH  21  26
ATOM     24  C   UNL     1      -1.213   1.761   0.017  0.00  0.00    +0.010 A 
ATOM     25  C   UNL     1      -0.013   1.076   0.008  0.00  0.00    +0.036 A 
ATOM     26  C   UNL     1       1.146   1.780   0.001  0.00  0.00    +0.143 A 
ATOM     27  S   UNL     1       0.555   3.464   0.015  0.00  0.00    -0.077 S 
ATOM     28  C   UNL     1      -1.196   3.116   0.030  0.00  0.00    +0.047 A 
ENDBRANCH  21  26
ENDBRANCH   1  21
TORSDOF 5
