REMARK  Name = ZINC36500192
REMARK  11 active torsions:
REMARK  status: ('A' for Active; 'I' for Inactive)
REMARK    1  A    between atoms: C_1  and  C_2
REMARK    2  A    between atoms: C_5  and  S_8
REMARK    3  A    between atoms: S_8  and  C_11
REMARK    4  A    between atoms: C_11  and  N_12
REMARK    5  A    between atoms: C_13  and  C_15
REMARK    6  A    between atoms: C_15  and  C_17
REMARK    7  A    between atoms: C_15  and  N_23
REMARK    8  A    between atoms: N_23  and  C_24
REMARK    9  A    between atoms: C_24  and  C_25
REMARK   10  A    between atoms: C_30  and  C_32
REMARK   11  A    between atoms: C_35  and  O_38
REMARK                            x       y       z     vdW  Elec       q    Type
REMARK                         _______ _______ _______ _____ _____    ______ ____
ROOT
ATOM      1  C   UNL     1       2.949  -5.085   3.914  0.00  0.00    +0.166 C 
ENDROOT
BRANCH   1   2
ATOM      2  C   UNL     1       4.334  -4.759   3.352  0.00  0.00    +0.019 C 
ATOM      3  C   UNL     1       5.377  -4.877   4.465  0.00  0.00    +0.006 C 
ATOM      4  C   UNL     1       6.762  -4.551   3.904  0.00  0.00    +0.000 C 
ATOM      5  C   UNL     1       6.765  -3.124   3.350  0.00  0.00    +0.000 C 
ATOM      6  C   UNL     1       5.722  -3.007   2.237  0.00  0.00    +0.000 C 
ATOM      7  C   UNL     1       4.337  -3.333   2.799  0.00  0.00    +0.006 C 
ENDBRANCH   1   2
BRANCH   1   9
ATOM      8  N   UNL     1       1.470  -3.872   2.346  0.00  0.00    -0.295 N 
ATOM      9  C   UNL     1       1.934  -5.053   2.800  0.00  0.00    +0.235 C 
ATOM     10  O   UNL     1       1.536  -6.089   2.312  0.00  0.00    -0.274 OA
ATOM     11  H   UNL     1       1.728  -3.047   2.787  0.00  0.00    +0.150 HD
BRANCH   8  12
ATOM     12  C   UNL     1       0.576  -3.833   1.186  0.00  0.00    +0.278 C 
BRANCH  12  13
ATOM     13  S   UNL     1      -1.147  -3.800   1.753  0.00  0.00    +0.013 S 
ATOM     14  O   UNL     1      -1.353  -4.790   2.751  0.00  0.00    -0.168 OA
ATOM     15  O   UNL     1      -2.026  -3.699   0.641  0.00  0.00    -0.168 OA
BRANCH  13  20
ATOM     16  C   UNL     1      -1.729   1.456   4.657  0.00  0.00    +0.044 C 
ATOM     17  C   UNL     1      -1.584   0.143   3.931  0.00  0.00    -0.050 A 
ATOM     18  C   UNL     1      -1.842   0.071   2.575  0.00  0.00    +0.005 A 
ATOM     19  C   UNL     1      -1.709  -1.134   1.910  0.00  0.00    +0.027 A 
ATOM     20  C   UNL     1      -1.316  -2.265   2.600  0.00  0.00    +0.090 A 
ATOM     21  C   UNL     1      -1.057  -2.192   3.956  0.00  0.00    +0.027 A 
ATOM     22  C   UNL     1      -1.186  -0.987   4.621  0.00  0.00    +0.005 A 
ENDBRANCH  13  20
ENDBRANCH  12  13
ENDBRANCH   8  12
ENDBRANCH   1   9
BRANCH   1  23
ATOM     23  N   UNL     1       2.968  -6.420   4.517  0.00  0.00    -0.278 N 
ATOM     24  C   UNL     1       2.679  -6.573   5.825  0.00  0.00    +0.248 C 
ATOM     25  O   UNL     1       2.452  -5.598   6.515  0.00  0.00    -0.270 OA
BRANCH  24  26
ATOM     26  C   UNL     1       2.637  -7.924   6.418  0.00  0.00    +0.037 A 
ATOM     27  C   UNL     1       3.419  -8.950   5.880  0.00  0.00    +0.016 A 
ATOM     28  C   UNL     1       3.377 -10.209   6.437  0.00  0.00    +0.046 A 
ATOM     29  C   UNL     1       2.560 -10.459   7.533  0.00  0.00    +0.117 A 
ATOM     30  C   UNL     1       1.781  -9.441   8.071  0.00  0.00    +0.046 A 
ATOM     31  C   UNL     1       1.821  -8.179   7.523  0.00  0.00    +0.016 A 
BRANCH  29  32
ATOM     32  O   UNL     1       2.521 -11.701   8.079  0.00  0.00    -0.507 OA
ATOM     33  H   UNL     1       3.171 -11.843   8.780  0.00  0.00    +0.292 HD
ENDBRANCH  29  32
ENDBRANCH  24  26
BRANCH  23  34
ATOM     34  C   UNL     1       3.303  -7.589   3.700  0.00  0.00    +0.183 C 
BRANCH  34  35
ATOM     35  C   UNL     1       4.781  -7.591   3.407  0.00  0.00    +0.122 A 
ATOM     36  C   UNL     1       5.750  -7.988   4.251  0.00  0.00    +0.046 A 
ATOM     37  C   UNL     1       6.979  -7.824   3.572  0.00  0.00    +0.041 A 
ATOM     38  C   UNL     1       6.687  -7.335   2.353  0.00  0.00    +0.195 A 
ATOM     39  O   UNL     1       5.354  -7.202   2.256  0.00  0.00    -0.466 OA
ENDBRANCH  34  35
ENDBRANCH  23  34
ENDBRANCH   1  23
TORSDOF 10
