REMARK  Name = ZINC30961659
REMARK  10 active torsions:
REMARK  status: ('A' for Active; 'I' for Inactive)
REMARK    1  A    between atoms: C_1  and  C_2
REMARK    2  A    between atoms: C_2  and  C_3
REMARK    3  A    between atoms: C_2  and  C_4
REMARK    4  A    between atoms: C_4  and  C_6
REMARK    5  A    between atoms: C_4  and  N_23
REMARK    6  A    between atoms: N_8  and  N_9
REMARK    7  A    between atoms: C_10  and  C_11
REMARK    8  A    between atoms: N_17  and  C_22
REMARK    9  A    between atoms: N_20  and  C_21
REMARK   10  A    between atoms: C_24  and  C_26
REMARK                            x       y       z     vdW  Elec       q    Type
REMARK                         _______ _______ _______ _____ _____    ______ ____
ROOT
ATOM      1  C   UNL     1       3.806   2.076   0.032  0.00  0.00    +0.253 C 
ATOM      2  O   UNL     1       3.422   2.955  -0.711  0.00  0.00    -0.272 OA
ATOM      3  N   UNL     1       5.030   1.538  -0.137  0.00  0.00    -0.205 N 
ATOM      4  H   UNL     1       5.412   0.802   0.587  0.00  0.00    +0.177 HD
ENDROOT
BRANCH   3   5
ATOM      5  N   UNL     1       5.816   1.916  -1.233  0.00  0.00    -0.188 NA
ATOM      6  C   UNL     1       6.943   1.313  -1.462  0.00  0.00    +0.138 C 
BRANCH   6   7
ATOM      7  C   UNL     1       7.169  -0.048  -0.944  0.00  0.00    -0.003 A 
ATOM      8  C   UNL     1       6.109  -0.770  -0.385  0.00  0.00    +0.011 A 
ATOM      9  C   UNL     1       6.317  -2.044   0.094  0.00  0.00    +0.028 A 
ATOM     10  C   UNL     1       7.583  -2.611   0.035  0.00  0.00    +0.070 A 
ATOM     11  C   UNL     1       8.649  -1.894  -0.516  0.00  0.00    +0.070 A 
ATOM     12  C   UNL     1       8.443  -0.616  -1.004  0.00  0.00    +0.037 A 
ATOM     13  N   UNL     1       9.771  -2.715  -0.435  0.00  0.00    -0.295 N 
ATOM     14  C   UNL     1       9.406  -3.877   0.139  0.00  0.00    +0.330 A 
ATOM     15  O   UNL     1      10.150  -4.814   0.358  0.00  0.00    -0.246 OA
ATOM     16  N   UNL     1       8.093  -3.844   0.433  0.00  0.00    -0.295 N 
ATOM     17  C   UNL     1       7.330  -4.923   1.066  0.00  0.00    +0.154 C 
ATOM     18  C   UNL     1      11.119  -2.373  -0.896  0.00  0.00    +0.154 C 
ENDBRANCH   6   7
ENDBRANCH   3   5
BRANCH   1  19
ATOM     19  C   UNL     1       2.914   1.585   1.144  0.00  0.00    +0.163 C 
BRANCH  19  20
ATOM     20  N   UNL     1       1.512   1.792   0.772  0.00  0.00    -0.300 N 
ATOM     21  C   UNL     1       0.550   1.021   1.317  0.00  0.00    +0.246 C 
ATOM     22  O   UNL     1       0.846   0.155   2.116  0.00  0.00    -0.270 OA
ATOM     23  H   UNL     1       1.245   2.576   0.048  0.00  0.00    +0.150 HD
BRANCH  21  24
ATOM     24  C   UNL     1      -0.863   1.226   0.937  0.00  0.00    +0.055 A 
ATOM     25  C   UNL     1      -1.207   2.224   0.024  0.00  0.00    +0.014 A 
ATOM     26  C   UNL     1      -2.527   2.405  -0.331  0.00  0.00    +0.001 A 
ATOM     27  C   UNL     1      -3.513   1.609   0.226  0.00  0.00    +0.001 A 
ATOM     28  C   UNL     1      -3.182   0.622   1.136  0.00  0.00    +0.021 A 
ATOM     29  C   UNL     1      -1.863   0.425   1.496  0.00  0.00    +0.053 A 
ATOM     30 CL   UNL     1      -1.448  -0.814   2.639  0.00  0.00    -0.083 Cl
ENDBRANCH  21  24
ENDBRANCH  19  20
BRANCH  19  32
ATOM     31  C   UNL     1       2.263   1.921   3.532  0.00  0.00    +0.009 C 
ATOM     32  C   UNL     1       3.222   2.362   2.425  0.00  0.00    +0.012 C 
ATOM     33  C   UNL     1       4.663   2.083   2.857  0.00  0.00    +0.009 C 
ENDBRANCH  19  32
ENDBRANCH   1  19
TORSDOF 6
