REMARK  Name = ZINC63660915
REMARK  6 active torsions:
REMARK  status: ('A' for Active; 'I' for Inactive)
REMARK    1  A    between atoms: C_1  and  C_2
REMARK    2  A    between atoms: C_2  and  C_3
REMARK    3  A    between atoms: C_13  and  C_15
REMARK    4  A    between atoms: N_17  and  C_18
REMARK    5  A    between atoms: C_18  and  C_19
REMARK    6  A    between atoms: C_19  and  C_20
REMARK                            x       y       z     vdW  Elec       q    Type
REMARK                         _______ _______ _______ _____ _____    ______ ____
ROOT
ATOM      1  C   UNL     1       0.802  -1.999  -3.891  0.00  0.00    +0.234 C 
ATOM      2  O   UNL     1      -0.174  -1.281  -3.838  0.00  0.00    -0.274 OA
ATOM      3  N   UNL     1       1.252  -2.436  -5.084  0.00  0.00    -0.313 N 
ATOM      4  H   UNL     1       2.032  -3.011  -5.127  0.00  0.00    +0.149 HD
ENDROOT
BRANCH   1  15
ATOM      5  C   UNL     1       0.707  -0.490  -1.238  0.00  0.00    +0.220 C 
ATOM      6  O   UNL     1       1.150   0.309  -2.036  0.00  0.00    -0.275 OA
ATOM      7  N   UNL     1       0.847  -1.812  -1.460  0.00  0.00    -0.259 N 
ATOM      8  C   UNL     1       0.373  -2.821  -0.615  0.00  0.00    +0.040 A 
ATOM      9  C   UNL     1      -0.318  -2.711   0.594  0.00  0.00    +0.024 A 
ATOM     10  C   UNL     1      -0.701  -3.843   1.281  0.00  0.00    +0.002 A 
ATOM     11  C   UNL     1      -0.402  -5.097   0.778  0.00  0.00    +0.000 A 
ATOM     12  C   UNL     1       0.282  -5.213  -0.417  0.00  0.00    +0.005 A 
ATOM     13  C   UNL     1       0.667  -4.081  -1.110  0.00  0.00    -0.024 A 
ATOM     14  C   UNL     1       1.411  -3.923  -2.416  0.00  0.00    +0.069 C 
ATOM     15  C   UNL     1       1.511  -2.403  -2.624  0.00  0.00    +0.171 C 
BRANCH   5  17
ATOM     16  C   UNL     1      -0.019   1.526   0.010  0.00  0.00    +0.013 C 
ATOM     17  C   UNL     1       0.002  -0.004   0.002  0.00  0.00    +0.093 C 
ENDBRANCH   5  17
ENDBRANCH   1  15
BRANCH   3  18
ATOM     18  C   UNL     1       0.563  -2.043  -6.316  0.00  0.00    +0.108 C 
BRANCH  18  19
ATOM     19  C   UNL     1       1.271  -2.670  -7.519  0.00  0.00    +0.052 C 
BRANCH  19  20
ATOM     20  C   UNL     1       0.562  -2.266  -8.786  0.00  0.00    -0.040 C 
ATOM     21  C   UNL     1       0.878  -1.234  -9.601  0.00  0.00    +0.000 A 
ATOM     22  C   UNL     1       1.937  -0.219  -9.553  0.00  0.00    +0.030 A 
ATOM     23  C   UNL     1       2.001   0.709 -10.537  0.00  0.00    +0.042 A 
ATOM     24  C   UNL     1       1.082   0.724 -11.597  0.00  0.00    +0.022 A 
ATOM     25  C   UNL     1       0.083  -0.177 -11.709  0.00  0.00    +0.027 A 
ATOM     26  C   UNL     1      -0.077  -1.197 -10.731  0.00  0.00    +0.043 A 
ATOM     27  N   UNL     1      -0.951  -2.168 -10.618  0.00  0.00    -0.380 N 
ATOM     28  C   UNL     1      -0.644  -2.936  -9.406  0.00  0.00    +0.144 C 
ATOM     29 CL   UNL     1       3.251   1.912 -10.484  0.00  0.00    -0.084 Cl
ATOM     30  H   UNL     1      -1.677  -2.351 -11.235  0.00  0.00    +0.160 HD
ENDBRANCH  19  20
ENDBRANCH  18  19
ENDBRANCH   3  18
TORSDOF 5
