REMARK  Name = ZINC20942762
REMARK  6 active torsions:
REMARK  status: ('A' for Active; 'I' for Inactive)
REMARK    1  A    between atoms: C_1  and  C_2
REMARK    2  A    between atoms: C_5  and  C_7
REMARK    3  A    between atoms: C_7  and  N_8
REMARK    4  A    between atoms: N_8  and  C_9
REMARK    5  A    between atoms: C_9  and  C_10
REMARK    6  A    between atoms: N_23  and  C_26
REMARK                            x       y       z     vdW  Elec       q    Type
REMARK                         _______ _______ _______ _____ _____    ______ ____
ROOT
ATOM      1  C   UNL     1       2.518   5.534   2.867  0.00  0.00    +0.009 A 
ATOM      2  C   UNL     1       3.663   5.508   3.579  0.00  0.00    +0.021 A 
ATOM      3  C   UNL     1       3.371   5.995   4.869  0.00  0.00    +0.020 A 
ATOM      4  C   UNL     1       2.058   6.301   4.898  0.00  0.00    +0.093 A 
ATOM      5  N   UNL     1       1.528   6.025   3.670  0.00  0.00    -0.300 N 
ATOM      6  C   UNL     1       0.195   6.212   3.297  0.00  0.00    +0.202 A 
ATOM      7  N   UNL     1      -0.405   5.979   2.142  0.00  0.00    -0.121 NA
ATOM      8  N   UNL     1      -1.635   6.202   1.970  0.00  0.00    -0.124 NA
ATOM      9  C   UNL     1      -2.398   6.694   2.935  0.00  0.00    +0.186 A 
ATOM     10  S   UNL     1      -1.187   6.841   4.245  0.00  0.00    -0.013 S 
ATOM     11  N   UNL     1      -3.751   7.006   2.930  0.00  0.00    -0.305 N 
ATOM     12  C   UNL     1      -4.460   6.292   4.002  0.00  0.00    +0.126 C 
ATOM     13  C   UNL     1      -5.929   6.723   4.013  0.00  0.00    +0.124 C 
ATOM     14  N   UNL     1      -6.531   6.435   2.704  0.00  0.00    -0.327 N 
ATOM     15  C   UNL     1      -5.822   7.148   1.633  0.00  0.00    +0.124 C 
ATOM     16  C   UNL     1      -4.354   6.718   1.621  0.00  0.00    +0.126 C 
ENDROOT
BRANCH  14  17
ATOM     17  C   UNL     1      -7.892   6.749   2.700  0.00  0.00    +0.030 A 
ATOM     18  C   UNL     1      -8.398   7.639   1.761  0.00  0.00    +0.023 A 
ATOM     19  C   UNL     1      -9.745   7.943   1.756  0.00  0.00    +0.002 A 
ATOM     20  C   UNL     1     -10.588   7.372   2.691  0.00  0.00    +0.000 A 
ATOM     21  C   UNL     1     -10.087   6.489   3.631  0.00  0.00    +0.002 A 
ATOM     22  C   UNL     1      -8.742   6.176   3.638  0.00  0.00    +0.023 A 
ENDBRANCH  14  17
BRANCH   1  23
ATOM     23  C   UNL     1       2.359   5.101   1.432  0.00  0.00    -0.027 C 
BRANCH  23  24
ATOM     24  N   UNL     1       1.901   3.706   1.389  0.00  0.00    +0.387 N 
ATOM     25  H   UNL     1       0.938   3.635   1.917  0.00  0.00    -0.085 HD
ATOM     26  H   UNL     1       2.645   3.075   1.897  0.00  0.00    -0.085 HD
BRANCH  24  27
ATOM     27  C   UNL     1       1.735   3.249   0.003  0.00  0.00    -0.006 C 
BRANCH  27  32
ATOM     28  C   UNL     1       1.803  -1.795  -0.024  0.00  0.00    +0.086 C 
ATOM     29  C   UNL     1       1.295  -0.376  -0.012  0.00  0.00    +0.102 A 
ATOM     30  C   UNL     1       0.002  -0.004   0.002  0.00  0.00    +0.044 A 
ATOM     31  C   UNL     1      -0.017   1.410   0.010  0.00  0.00    +0.043 A 
ATOM     32  C   UNL     1       1.265   1.817  -0.000  0.00  0.00    +0.088 A 
ATOM     33  O   UNL     1       2.055   0.731  -0.014  0.00  0.00    -0.467 OA
ENDBRANCH  27  32
ENDBRANCH  24  27
ENDBRANCH  23  24
ENDBRANCH   1  23
TORSDOF 5
