REMARK  Name = ZINC28163544
REMARK  9 active torsions:
REMARK  status: ('A' for Active; 'I' for Inactive)
REMARK    1  A    between atoms: C_1  and  C_2
REMARK    2  A    between atoms: C_4  and  C_24
REMARK    3  A    between atoms: C_5  and  C_9
REMARK    4  A    between atoms: C_6  and  C_8
REMARK    5  A    between atoms: C_9  and  C_11
REMARK    6  A    between atoms: C_11  and  S_12
REMARK    7  A    between atoms: S_12  and  C_13
REMARK    8  A    between atoms: C_16  and  C_23
REMARK    9  A    between atoms: C_20  and  C_22
REMARK                            x       y       z     vdW  Elec       q    Type
REMARK                         _______ _______ _______ _____ _____    ______ ____
ROOT
ATOM      1  C   UNL     1      -3.702   3.345   0.554  0.00  0.00    +0.155 C 
ENDROOT
BRANCH   1   2
ATOM      2  C   UNL     1      -2.373   4.043   0.420  0.00  0.00    +0.174 C 
ATOM      3  O   UNL     1      -2.312   5.251   0.506  0.00  0.00    -0.291 OA
BRANCH   2   8
ATOM      4  C   UNL     1       2.404   0.982  -0.503  0.00  0.00    +0.044 C 
ATOM      5  C   UNL     1       1.152   1.785  -0.261  0.00  0.00    -0.050 A 
ATOM      6  C   UNL     1       0.350   2.147  -1.329  0.00  0.00    +0.007 A 
ATOM      7  C   UNL     1      -0.795   2.886  -1.117  0.00  0.00    -0.039 A 
ATOM      8  C   UNL     1      -1.150   3.259   0.183  0.00  0.00    +0.024 A 
ATOM      9  C   UNL     1      -0.334   2.889   1.257  0.00  0.00    -0.039 A 
ATOM     10  C   UNL     1       0.810   2.155   1.028  0.00  0.00    +0.007 A 
ATOM     11  C   UNL     1      -0.705   3.292   2.661  0.00  0.00    +0.044 C 
ATOM     12  C   UNL     1      -1.664   3.284  -2.281  0.00  0.00    +0.044 C 
ENDBRANCH   2   8
ENDBRANCH   1   2
BRANCH   1  13
ATOM     13  S   UNL     1      -4.985   4.559   0.949  0.00  0.00    -0.097 S 
BRANCH  13  14
ATOM     14  C   UNL     1      -6.389   3.499   1.045  0.00  0.00    +0.109 A 
ATOM     15  C   UNL     1      -7.673   4.031   1.351  0.00  0.00    +0.040 A 
ATOM     16  C   UNL     1      -8.073   5.403   1.608  0.00  0.00    +0.023 A 
ATOM     17  C   UNL     1      -9.361   5.672   1.872  0.00  0.00    -0.011 A 
ATOM     18  S   UNL     1     -10.146   4.073   1.785  0.00  0.00    -0.074 S 
ATOM     19  C   UNL     1      -8.723   3.088   1.397  0.00  0.00    +0.113 A 
ATOM     20  N   UNL     1      -8.506   1.806   1.179  0.00  0.00    -0.225 NA
ATOM     21  C   UNL     1      -7.291   1.372   0.904  0.00  0.00    +0.128 A 
ATOM     22  N   UNL     1      -6.262   2.197   0.840  0.00  0.00    -0.225 NA
ATOM     23  C   UNL     1      -7.072  -0.099   0.659  0.00  0.00    +0.088 C 
ATOM     24  C   UNL     1      -9.993   7.007   2.170  0.00  0.00    +0.051 C 
ENDBRANCH  13  14
ENDBRANCH   1  13
TORSDOF 4
