REMARK  Name = ZINC31046612
REMARK  9 active torsions:
REMARK  status: ('A' for Active; 'I' for Inactive)
REMARK    1  A    between atoms: C_1  and  C_2
REMARK    2  A    between atoms: C_5  and  C_9
REMARK    3  A    between atoms: C_6  and  C_8
REMARK    4  A    between atoms: C_9  and  C_11
REMARK    5  A    between atoms: C_9  and  N_12
REMARK    6  A    between atoms: C_13  and  C_15
REMARK    7  A    between atoms: N_20  and  C_22
REMARK    8  A    between atoms: C_22  and  C_23
REMARK    9  A    between atoms: C_25  and  C_28
REMARK                            x       y       z     vdW  Elec       q    Type
REMARK                         _______ _______ _______ _____ _____    ______ ____
ROOT
ATOM      1  C   UNL     1      -1.235   5.344   7.356  0.00  0.00    +0.058 C 
ATOM      2  C   UNL     1      -0.484   4.347   8.243  0.00  0.00    +0.009 C 
ATOM      3  C   UNL     1       0.463   5.113   9.171  0.00  0.00    -0.018 C 
ATOM      4  C   UNL     1      -0.345   6.112  10.003  0.00  0.00    -0.078 C 
ATOM      5  N   UNL     1      -1.043   7.044   9.109  0.00  0.00    +0.386 N 
ATOM      6  C   UNL     1      -1.993   6.336   8.241  0.00  0.00    -0.065 C 
ATOM      7  H   UNL     1      -0.289   7.519   8.464  0.00  0.00    -0.081 HD
ENDROOT
BRANCH   1   9
ATOM      8  N   UNL     1      -1.768   3.671   5.613  0.00  0.00    -0.309 N 
ATOM      9  C   UNL     1      -2.212   4.603   6.481  0.00  0.00    +0.215 C 
ATOM     10  O   UNL     1      -3.398   4.844   6.556  0.00  0.00    -0.276 OA
ATOM     11  H   UNL     1      -0.692   3.453   5.545  0.00  0.00    +0.149 HD
BRANCH   8  12
ATOM     12  C   UNL     1      -2.717   2.951   4.762  0.00  0.00    +0.100 C 
ATOM     13  C   UNL     1      -3.284   1.754   5.529  0.00  0.00    +0.033 C 
BRANCH  12  18
ATOM     14  C   UNL     1      -0.013   1.086   0.008  0.00  0.00    +0.044 C 
ATOM     15  C   UNL     1      -0.718   1.572   1.248  0.00  0.00    -0.050 A 
ATOM     16  C   UNL     1       0.001   1.806   2.405  0.00  0.00    +0.004 A 
ATOM     17  C   UNL     1      -0.646   2.251   3.543  0.00  0.00    +0.006 A 
ATOM     18  C   UNL     1      -2.012   2.464   3.522  0.00  0.00    -0.025 A 
ATOM     19  C   UNL     1      -2.731   2.231   2.365  0.00  0.00    -0.045 A 
ATOM     20  C   UNL     1      -2.083   1.789   1.226  0.00  0.00    +0.007 A 
ATOM     21  C   UNL     1      -4.219   2.464   2.343  0.00  0.00    +0.044 C 
ENDBRANCH  12  18
ENDBRANCH   8  12
ENDBRANCH   1   9
BRANCH   5  22
ATOM     22  C   UNL     1      -1.717   8.102   9.874  0.00  0.00    +0.022 C 
BRANCH  22  23
ATOM     23  C   UNL     1      -0.686   8.960  10.561  0.00  0.00    +0.211 A 
ATOM     24  N   UNL     1      -0.114  10.032  10.070  0.00  0.00    -0.193 NA
ATOM     25  C   UNL     1       0.731  10.465  11.033  0.00  0.00    +0.202 A 
ATOM     26  N   UNL     1       0.630   9.634  12.038  0.00  0.00    -0.056 NA
ATOM     27  O   UNL     1      -0.178   8.767  11.782  0.00  0.00    -0.340 OA
BRANCH  25  28
ATOM     28  C   UNL     1       1.612  11.657  10.960  0.00  0.00    +0.023 A 
ATOM     29  C   UNL     1       1.619  12.452   9.816  0.00  0.00    +0.013 A 
ATOM     30  C   UNL     1       2.436  13.563   9.756  0.00  0.00    +0.021 A 
ATOM     31  C   UNL     1       3.256  13.881  10.825  0.00  0.00    +0.041 A 
ATOM     32  C   UNL     1       3.257  13.090  11.961  0.00  0.00    +0.021 A 
ATOM     33  C   UNL     1       2.440  11.981  12.034  0.00  0.00    +0.013 A 
ATOM     34 CL   UNL     1       4.286  15.275  10.740  0.00  0.00    -0.084 Cl
ENDBRANCH  25  28
ENDBRANCH  22  23
ENDBRANCH   5  22
TORSDOF 6
