REMARK  Name = ZINC55231381
REMARK  1 active torsions:
REMARK  status: ('A' for Active; 'I' for Inactive)
REMARK    1  A    between atoms: C_14  and  C_16
REMARK                            x       y       z     vdW  Elec       q    Type
REMARK                         _______ _______ _______ _____ _____    ______ ____
ROOT
ATOM      1  C   UNL     1      -0.016   1.349   0.009  0.00  0.00    +0.020 A 
ATOM      2  C   UNL     1       1.324   1.792  -0.001  0.00  0.00    +0.025 A 
ATOM      3  C   UNL     1       2.108   0.700  -0.013  0.00  0.00    +0.045 A 
ATOM      4  N   UNL     1       1.296  -0.400  -0.016  0.00  0.00    -0.318 N 
ATOM      5  C   UNL     1       0.002  -0.004   0.002  0.00  0.00    +0.091 A 
ATOM      6  C   UNL     1       1.853  -1.691  -0.043  0.00  0.00    +0.054 A 
ATOM      7  C   UNL     1       1.400  -2.706   0.776  0.00  0.00    +0.076 A 
ATOM      8  C   UNL     1       2.032  -3.940   0.750  0.00  0.00    +0.168 A 
ATOM      9  C   UNL     1       3.118  -4.146  -0.098  0.00  0.00    +0.167 A 
ATOM     10  C   UNL     1       3.553  -3.128  -0.932  0.00  0.00    +0.056 A 
ATOM     11  C   UNL     1       2.906  -1.909  -0.926  0.00  0.00    -0.006 A 
ATOM     12  C   UNL     1       3.256  -0.838  -1.915  0.00  0.00    +0.119 C 
ATOM     13  N   UNL     1       4.098   0.233  -1.354  0.00  0.00    -0.300 NA
ATOM     14  C   UNL     1       3.609   0.627  -0.021  0.00  0.00    +0.132 C 
ATOM     15  O   UNL     1       3.571  -5.423   0.077  0.00  0.00    -0.453 OA
ATOM     16  C   UNL     1       3.002  -5.866   1.323  0.00  0.00    +0.466 C 
ATOM     17  O   UNL     1       1.794  -5.091   1.443  0.00  0.00    -0.453 OA
ATOM     18  H   UNL     1       5.066  -0.051  -1.314  0.00  0.00    +0.123 HD
ENDROOT
BRANCH  14  19
ATOM     19  C   UNL     1       4.175   1.977   0.339  0.00  0.00    -0.024 A 
ATOM     20  C   UNL     1       4.245   2.974  -0.617  0.00  0.00    +0.008 A 
ATOM     21  C   UNL     1       4.763   4.212  -0.288  0.00  0.00    +0.038 A 
ATOM     22  C   UNL     1       5.212   4.454   1.000  0.00  0.00    +0.123 A 
ATOM     23  C   UNL     1       5.142   3.455   1.956  0.00  0.00    +0.038 A 
ATOM     24  C   UNL     1       4.618   2.219   1.626  0.00  0.00    +0.008 A 
ATOM     25  F   UNL     1       5.720   5.664   1.322  0.00  0.00    -0.205 F 
ENDBRANCH  14  19
TORSDOF 1
