REMARK  Name = ZINC13776156
REMARK  6 active torsions:
REMARK  status: ('A' for Active; 'I' for Inactive)
REMARK    1  A    between atoms: C_1  and  C_2
REMARK    2  A    between atoms: C_2  and  N_3
REMARK    3  A    between atoms: C_6  and  C_26
REMARK    4  A    between atoms: C_11  and  N_12
REMARK    5  A    between atoms: N_12  and  N_13
REMARK    6  A    between atoms: C_14  and  C_15
REMARK                            x       y       z     vdW  Elec       q    Type
REMARK                         _______ _______ _______ _____ _____    ______ ____
ROOT
ATOM      1  N   UNL     1      -1.412  -0.420   0.022  0.00  0.00    -0.267 N 
ATOM      2  C   UNL     1      -2.027  -0.951   1.150  0.00  0.00    +0.045 A 
ATOM      3  C   UNL     1      -1.625  -1.014   2.476  0.00  0.00    +0.034 A 
ATOM      4  C   UNL     1      -2.453  -1.615   3.425  0.00  0.00    -0.000 A 
ATOM      5  C   UNL     1      -3.687  -2.155   3.043  0.00  0.00    +0.010 A 
ATOM      6  C   UNL     1      -4.086  -2.095   1.738  0.00  0.00    +0.011 A 
ATOM      7  C   UNL     1      -3.266  -1.496   0.784  0.00  0.00    +0.010 A 
ATOM      8  C   UNL     1      -3.404  -1.276  -0.673  0.00  0.00    +0.061 C 
ATOM      9  C   UNL     1      -4.458  -1.641  -1.479  0.00  0.00    +0.105 C 
ATOM     10  C   UNL     1      -2.176  -0.578  -1.072  0.00  0.00    +0.253 C 
ATOM     11  O   UNL     1      -1.897  -0.209  -2.199  0.00  0.00    -0.270 OA
ENDROOT
BRANCH   4  12
ATOM     12  C   UNL     1      -2.027  -1.683   4.833  0.00  0.00    +0.067 C 
ATOM     13  N   UNL     1      -0.888  -1.178   5.177  0.00  0.00    -0.184 NA
ATOM     14  N   UNL     1      -0.428  -1.240   6.496  0.00  0.00    -0.207 N 
ATOM     15  C   UNL     1      -0.998  -2.080   7.380  0.00  0.00    +0.233 C 
ATOM     16  O   UNL     1      -0.646  -2.074   8.541  0.00  0.00    -0.274 OA
ATOM     17  C   UNL     1      -2.078  -3.028   6.919  0.00  0.00    +0.104 C 
ATOM     18  C   UNL     1      -2.928  -2.334   5.848  0.00  0.00    +0.067 C 
ATOM     19  H   UNL     1       0.308  -0.673   6.776  0.00  0.00    +0.177 HD
ENDBRANCH   4  12
BRANCH   1  21
ATOM     20  C   UNL     1      -0.279   1.731   0.286  0.00  0.00    +0.025 C 
ATOM     21  C   UNL     1      -0.101   0.234   0.026  0.00  0.00    +0.110 C 
ENDBRANCH   1  21
BRANCH   9  22
ATOM     22  N   UNL     1      -5.584  -2.168  -0.928  0.00  0.00    -0.244 N 
ATOM     23  H   UNL     1      -5.680  -2.207   0.036  0.00  0.00    +0.174 HD
BRANCH  22  24
ATOM     24  N   UNL     1      -6.607  -2.654  -1.754  0.00  0.00    -0.190 NA
ATOM     25  C   UNL     1      -7.683  -3.156  -1.228  0.00  0.00    +0.141 C 
BRANCH  25  26
ATOM     26  C   UNL     1      -8.758  -3.667  -2.096  0.00  0.00    +0.031 A 
ATOM     27  C   UNL     1      -8.622  -3.617  -3.487  0.00  0.00    +0.052 A 
ATOM     28  C   UNL     1      -9.633  -4.098  -4.294  0.00  0.00    +0.040 A 
ATOM     29  C   UNL     1     -10.781  -4.628  -3.729  0.00  0.00    +0.044 A 
ATOM     30  C   UNL     1     -10.924  -4.680  -2.353  0.00  0.00    +0.040 A 
ATOM     31  C   UNL     1      -9.918  -4.209  -1.533  0.00  0.00    +0.052 A 
ATOM     32 CL   UNL     1     -10.095  -4.283   0.192  0.00  0.00    -0.083 Cl
ATOM     33 CL   UNL     1     -12.049  -5.229  -4.752  0.00  0.00    -0.083 Cl
ATOM     34 CL   UNL     1      -7.184  -2.953  -4.197  0.00  0.00    -0.083 Cl
ENDBRANCH  25  26
ENDBRANCH  22  24
ENDBRANCH   9  22
TORSDOF 5
