REMARK  Name = ZINC18769364
REMARK  5 active torsions:
REMARK  status: ('A' for Active; 'I' for Inactive)
REMARK    1  A    between atoms: C_1  and  C_2
REMARK    2  A    between atoms: N_10  and  N_14
REMARK    3  A    between atoms: C_15  and  C_17
REMARK    4  A    between atoms: C_17  and  O_18
REMARK    5  A    between atoms: O_18  and  C_19
REMARK                            x       y       z     vdW  Elec       q    Type
REMARK                         _______ _______ _______ _____ _____    ______ ____
ROOT
ATOM      1  C   UNL     1      -4.160   3.267   9.065  0.00  0.00    +0.007 C 
ATOM      2  C   UNL     1      -3.676   2.332   7.955  0.00  0.00    -0.014 C 
ATOM      3  C   UNL     1      -4.152   2.860   6.600  0.00  0.00    +0.006 C 
ATOM      4  C   UNL     1      -3.678   1.917   5.491  0.00  0.00    +0.035 C 
ATOM      5  C   UNL     1      -2.156   1.825   5.514  0.00  0.00    +0.114 C 
ATOM      6  C   UNL     1      -1.666   1.324   6.868  0.00  0.00    +0.035 C 
ATOM      7  C   UNL     1      -2.148   2.269   7.971  0.00  0.00    +0.006 C 
ATOM      8  C   UNL     1      -1.667   0.919   4.407  0.00  0.00    +0.263 C 
ATOM      9  O   UNL     1      -1.914  -0.258   4.260  0.00  0.00    -0.271 OA
ATOM     10  N   UNL     1      -0.897   1.698   3.618  0.00  0.00    -0.137 N 
ATOM     11  C   UNL     1      -0.834   2.954   4.077  0.00  0.00    +0.326 C 
ATOM     12  O   UNL     1      -0.197   3.838   3.538  0.00  0.00    -0.251 OA
ATOM     13  N   UNL     1      -1.557   3.128   5.199  0.00  0.00    -0.284 N 
ATOM     14  H   UNL     1      -1.658   3.951   5.703  0.00  0.00    +0.151 HD
ENDROOT
BRANCH  10  15
ATOM     15  N   UNL     1      -0.242   1.246   2.466  0.00  0.00    -0.221 N 
ATOM     16  C   UNL     1      -0.718   1.572   1.248  0.00  0.00    +0.267 C 
ATOM     17  O   UNL     1      -1.714   2.256   1.150  0.00  0.00    -0.271 OA
ATOM     18  H   UNL     1       0.555   0.699   2.544  0.00  0.00    +0.174 HD
BRANCH  16  19
ATOM     19  C   UNL     1      -0.013   1.086   0.008  0.00  0.00    +0.326 C 
BRANCH  19  20
ATOM     20  O   UNL     1      -0.704   1.559  -1.150  0.00  0.00    -0.483 OA
BRANCH  20  21
ATOM     21  C   UNL     1      -0.194   1.208  -2.360  0.00  0.00    +0.121 A 
ATOM     22  C   UNL     1       0.951   0.428  -2.431  0.00  0.00    +0.047 A 
ATOM     23  C   UNL     1       1.464   0.066  -3.661  0.00  0.00    +0.019 A 
ATOM     24  C   UNL     1       0.844   0.491  -4.822  0.00  0.00    +0.018 A 
ATOM     25  C   UNL     1      -0.295   1.274  -4.754  0.00  0.00    +0.019 A 
ATOM     26  C   UNL     1      -0.815   1.633  -3.525  0.00  0.00    +0.047 A 
ATOM     27 BR   UNL     1       1.552   0.001  -6.505  0.00  0.00    -0.050 Br
ENDBRANCH  20  21
ENDBRANCH  19  20
ENDBRANCH  16  19
ENDBRANCH  10  15
TORSDOF 4
