REMARK  Name = ZINC39969455
REMARK  7 active torsions:
REMARK  status: ('A' for Active; 'I' for Inactive)
REMARK    1  A    between atoms: C_1  and  N_2
REMARK    2  A    between atoms: C_3  and  C_23
REMARK    3  A    between atoms: C_7  and  S_9
REMARK    4  A    between atoms: S_9  and  C_10
REMARK    5  A    between atoms: C_10  and  C_11
REMARK    6  A    between atoms: C_23  and  N_24
REMARK    7  A    between atoms: C_25  and  C_27
REMARK                            x       y       z     vdW  Elec       q    Type
REMARK                         _______ _______ _______ _____ _____    ______ ____
ROOT
ATOM      1  C   UNL     1      -0.018   1.465   0.010  0.00  0.00    +0.109 C 
ATOM      2  N   UNL     1       0.002  -0.004   0.002  0.00  0.00    -0.263 NA
ATOM      3  C   UNL     1       0.793  -0.520  -1.146  0.00  0.00    +0.157 C 
ATOM      4  N   UNL     1       1.190  -1.878  -0.690  0.00  0.00    -0.236 NA
ATOM      5  N   UNL     1       1.464  -1.719   0.741  0.00  0.00    -0.229 NA
ATOM      6  C   UNL     1       0.709  -0.532   1.192  0.00  0.00    +0.200 C 
ATOM      7  H   UNL     1       2.010  -2.199  -1.182  0.00  0.00    +0.142 HD
ATOM      8  H   UNL     1       2.452  -1.605   0.909  0.00  0.00    +0.143 HD
ENDROOT
BRANCH   6   9
ATOM      9  S   UNL     1      -0.489  -1.005   2.468  0.00  0.00    -0.117 S 
BRANCH   9  10
ATOM     10  C   UNL     1      -1.506  -2.276   1.667  0.00  0.00    +0.146 C 
BRANCH  10  11
ATOM     11  C   UNL     1      -2.556  -2.761   2.632  0.00  0.00    +0.120 A 
ATOM     12  N   UNL     1      -3.418  -3.725   2.215  0.00  0.00    -0.310 N 
ATOM     13  H   UNL     1      -3.344  -4.080   1.315  0.00  0.00    +0.170 HD
ATOM     14  C   UNL     1      -4.379  -4.196   3.044  0.00  0.00    +0.259 A 
ATOM     15  O   UNL     1      -5.157  -5.060   2.684  0.00  0.00    -0.267 OA
ATOM     16  C   UNL     1      -4.446  -3.623   4.397  0.00  0.00    +0.065 A 
ATOM     17  C   UNL     1      -5.398  -4.037   5.326  0.00  0.00    +0.015 A 
ATOM     18  C   UNL     1      -5.416  -3.466   6.580  0.00  0.00    +0.001 A 
ATOM     19  C   UNL     1      -4.495  -2.484   6.922  0.00  0.00    +0.002 A 
ATOM     20  C   UNL     1      -3.547  -2.060   6.018  0.00  0.00    +0.028 A 
ATOM     21  C   UNL     1      -3.508  -2.624   4.741  0.00  0.00    +0.078 A 
ATOM     22  N   UNL     1      -2.588  -2.241   3.821  0.00  0.00    -0.233 NA
ENDBRANCH  10  11
ENDBRANCH   9  10
ENDBRANCH   6   9
BRANCH   3  23
ATOM     23  C   UNL     1      -0.069  -0.598  -2.408  0.00  0.00    +0.140 C 
BRANCH  23  24
ATOM     24  N   UNL     1      -1.201  -1.498  -2.170  0.00  0.00    -0.309 N 
ATOM     25  C   UNL     1      -2.100  -1.722  -3.148  0.00  0.00    +0.244 C 
ATOM     26  O   UNL     1      -1.973  -1.177  -4.227  0.00  0.00    -0.270 OA
ATOM     27  H   UNL     1      -1.302  -1.933  -1.309  0.00  0.00    +0.149 HD
BRANCH  25  28
ATOM     28  C   UNL     1      -3.242  -2.630  -2.909  0.00  0.00    +0.038 A 
ATOM     29  C   UNL     1      -3.393  -3.253  -1.669  0.00  0.00    +0.014 A 
ATOM     30  C   UNL     1      -4.460  -4.099  -1.451  0.00  0.00    +0.022 A 
ATOM     31  C   UNL     1      -5.380  -4.333  -2.459  0.00  0.00    +0.059 A 
ATOM     32  C   UNL     1      -5.235  -3.718  -3.693  0.00  0.00    +0.060 A 
ATOM     33  C   UNL     1      -4.175  -2.864  -3.920  0.00  0.00    +0.034 A 
ATOM     34 CL   UNL     1      -6.394  -4.016  -4.951  0.00  0.00    -0.082 Cl
ATOM     35 CL   UNL     1      -6.719  -5.401  -2.177  0.00  0.00    -0.082 Cl
ENDBRANCH  25  28
ENDBRANCH  23  24
ENDBRANCH   3  23
TORSDOF 6
