REMARK  Name = ZINC61886389
REMARK  5 active torsions:
REMARK  status: ('A' for Active; 'I' for Inactive)
REMARK    1  A    between atoms: C_1  and  C_2
REMARK    2  A    between atoms: C_6  and  C_7
REMARK    3  A    between atoms: N_9  and  C_10
REMARK    4  A    between atoms: C_15  and  C_17
REMARK    5  A    between atoms: N_18  and  O_19
REMARK                            x       y       z     vdW  Elec       q    Type
REMARK                         _______ _______ _______ _____ _____    ______ ____
ROOT
ATOM      1  C   UNL     1       0.164  -0.645   4.992  0.00  0.00    +0.083 C 
ATOM      2  C   UNL     1      -1.276  -0.265   5.376  0.00  0.00    +0.023 C 
ATOM      3  C   UNL     1      -1.706  -1.236   6.495  0.00  0.00    +0.003 C 
ATOM      4  C   UNL     1      -0.792  -2.471   6.297  0.00  0.00    +0.013 C 
ATOM      5  C   UNL     1       0.561  -1.834   5.891  0.00  0.00    +0.076 C 
ENDROOT
BRANCH   5   6
ATOM      6  C   UNL     1       1.400  -2.821   5.120  0.00  0.00    +0.136 C 
ATOM      7  N   UNL     1       0.843  -3.844   4.562  0.00  0.00    -0.076 NA
ATOM      8  N   UNL     1       2.760  -2.633   5.012  0.00  0.00    -0.344 N 
ATOM      9  H   UNL     1       3.178  -1.864   5.431  0.00  0.00    +0.144 HD
ATOM     10  H   UNL     1       3.299  -3.268   4.516  0.00  0.00    +0.144 HD
BRANCH   7  11
ATOM     11  O   UNL     1       1.631  -4.772   3.838  0.00  0.00    -0.408 OA
ATOM     12  H   UNL     1       1.126  -5.503   3.457  0.00  0.00    +0.328 HD
ENDBRANCH   7  11
ENDBRANCH   5   6
BRANCH   1  15
ATOM     13  C   UNL     1       0.475  -0.120   2.633  0.00  0.00    +0.251 C 
ATOM     14  O   UNL     1       0.659   1.042   2.946  0.00  0.00    -0.270 OA
ATOM     15  N   UNL     1       0.220  -1.041   3.583  0.00  0.00    -0.307 N 
ATOM     16  H   UNL     1       0.073  -1.967   3.333  0.00  0.00    +0.149 HD
BRANCH  13  22
ATOM     17  C   UNL     1       1.039   1.747   0.203  0.00  0.00    +0.045 C 
ATOM     18  C   UNL     1       0.776   0.266   0.104  0.00  0.00    -0.031 A 
ATOM     19  C   UNL     1       0.770  -0.396  -1.100  0.00  0.00    +0.011 A 
ATOM     20  C   UNL     1       0.527  -1.730  -1.117  0.00  0.00    +0.046 A 
ATOM     21  S   UNL     1       0.299  -2.128   0.499  0.00  0.00    -0.092 S 
ATOM     22  C   UNL     1       0.531  -0.516   1.223  0.00  0.00    +0.077 A 
ENDBRANCH  13  22
ENDBRANCH   1  15
TORSDOF 4
