REMARK  Name = ZINC04002379
REMARK  4 active torsions:
REMARK  status: ('A' for Active; 'I' for Inactive)
REMARK    1  A    between atoms: C_9  and  C_11
REMARK    2  A    between atoms: C_16  and  C_27
REMARK    3  A    between atoms: C_18  and  N_22
REMARK    4  A    between atoms: C_20  and  O_21
REMARK                            x       y       z     vdW  Elec       q    Type
REMARK                         _______ _______ _______ _____ _____    ______ ____
ROOT
ATOM      1  C   UNL     1      -4.383   1.319   0.456  0.00  0.00    +0.025 C 
ATOM      2  C   UNL     1      -4.892   1.163  -0.963  0.00  0.00    +0.162 C 
ATOM      3  O   UNL     1      -4.404   0.352  -1.712  0.00  0.00    -0.292 OA
ATOM      4  C   UNL     1      -6.028   2.054  -1.414  0.00  0.00    +0.090 C 
ATOM      5  C   UNL     1      -7.200   1.899  -0.441  0.00  0.00    +0.058 C 
ATOM      6  C   UNL     1      -5.966   2.701   1.982  0.00  0.00    +0.182 C 
ATOM      7  C   UNL     1      -5.591   1.368   1.370  0.00  0.00    +0.124 C 
ENDROOT
BRANCH   1  16
ATOM      8  C   UNL     1       0.174   0.024  -1.073  0.00  0.00    +0.000 A 
ATOM      9  C   UNL     1      -0.808   0.816  -1.639  0.00  0.00    +0.000 A 
ATOM     10  C   UNL     1      -1.860   1.264  -0.866  0.00  0.00    +0.002 A 
ATOM     11  C   UNL     1      -1.939   0.923   0.477  0.00  0.00    -0.054 A 
ATOM     12  C   UNL     1      -0.962   0.130   1.039  0.00  0.00    -0.047 A 
ATOM     13  C   UNL     1       0.096  -0.318   0.262  0.00  0.00    +0.004 A 
ATOM     14  C   UNL     1      -1.007  -0.272   2.491  0.00  0.00    +0.016 C 
ATOM     15  C   UNL     1      -1.977   0.634   3.251  0.00  0.00    -0.077 C 
ATOM     16  C   UNL     1      -3.101   1.443   1.282  0.00  0.00    -0.003 C 
ATOM     17  N   UNL     1      -3.256   0.672   2.523  0.00  0.00    +0.387 N 
ATOM     18  H   UNL     1      -3.970   1.115   3.112  0.00  0.00    -0.085 HD
ATOM     19  H   UNL     1      -3.547  -0.286   2.295  0.00  0.00    -0.085 HD
ENDBRANCH   1  16
BRANCH   5  20
ATOM     20  C   UNL     1      -8.324   2.812  -0.859  0.00  0.00    -0.041 A 
ATOM     21  C   UNL     1      -8.043   3.999  -1.511  0.00  0.00    +0.005 A 
ATOM     22  C   UNL     1      -9.073   4.835  -1.899  0.00  0.00    +0.020 A 
ATOM     23  C   UNL     1     -10.384   4.489  -1.625  0.00  0.00    +0.041 A 
ATOM     24  C   UNL     1     -10.664   3.304  -0.967  0.00  0.00    +0.020 A 
ATOM     25  C   UNL     1      -9.634   2.467  -0.585  0.00  0.00    +0.005 A 
ATOM     26 CL   UNL     1     -11.678   5.542  -2.107  0.00  0.00    -0.084 Cl
ENDBRANCH   5  20
BRANCH   6  27
ATOM     27  N   UNL     1      -4.905   3.138   2.892  0.00  0.00    -0.241 N 
ATOM     28  C   UNL     1      -4.797   2.849   4.201  0.00  0.00    +0.219 A 
ATOM     29  N   UNL     1      -3.713   3.423   4.655  0.00  0.00    -0.223 NA
ATOM     30  C   UNL     1      -3.109   4.091   3.673  0.00  0.00    +0.245 A 
ATOM     31  N   UNL     1      -3.802   3.946   2.573  0.00  0.00    -0.158 NA
ENDBRANCH   6  27
BRANCH   7  33
ATOM     32  H   UNL     1      -5.837  -0.403   1.112  0.00  0.00    +0.292 HD
ATOM     33  O   UNL     1      -6.234   0.373   1.602  0.00  0.00    -0.509 OA
ENDBRANCH   7  33
TORSDOF 4
