REMARK  Name = ZINC00425138
REMARK  5 active torsions:
REMARK  status: ('A' for Active; 'I' for Inactive)
REMARK    1  A    between atoms: C_1  and  C_2
REMARK    2  A    between atoms: C_2  and  C_3
REMARK    3  A    between atoms: C_6  and  N_9
REMARK    4  A    between atoms: C_10  and  N_18
REMARK    5  A    between atoms: C_11  and  C_15
REMARK                            x       y       z     vdW  Elec       q    Type
REMARK                         _______ _______ _______ _____ _____    ______ ____
ROOT
ATOM      1  N   UNL     1      -2.669   2.916   4.677  0.00  0.00    -0.285 N 
ATOM      2  C   UNL     1      -1.989   3.049   5.836  0.00  0.00    +0.121 A 
ATOM      3  C   UNL     1      -2.680   3.496   6.935  0.00  0.00    +0.114 A 
ATOM      4  S   UNL     1      -4.318   3.718   6.261  0.00  0.00    -0.055 S 
ATOM      5  C   UNL     1      -3.983   3.226   4.631  0.00  0.00    +0.132 A 
ATOM      6  S   UNL     1      -5.053   3.150   3.297  0.00  0.00    -0.024 S 
ENDROOT
BRANCH   1  10
ATOM      7  C   UNL     1      -0.718   1.572   1.248  0.00  0.00    -0.047 A 
ATOM      8  C   UNL     1      -0.359   2.779   1.818  0.00  0.00    +0.005 A 
ATOM      9  C   UNL     1      -1.007   3.230   2.951  0.00  0.00    +0.026 A 
ATOM     10  C   UNL     1      -2.013   2.464   3.524  0.00  0.00    +0.049 A 
ATOM     11  C   UNL     1      -2.368   1.249   2.953  0.00  0.00    +0.026 A 
ATOM     12  C   UNL     1      -1.720   0.807   1.817  0.00  0.00    +0.005 A 
BRANCH   7  14
ATOM     13  C   UNL     1      -0.753   1.593  -1.232  0.00  0.00    +0.009 C 
ATOM     14  C   UNL     1      -0.013   1.086   0.008  0.00  0.00    +0.032 C 
ENDBRANCH   7  14
ENDBRANCH   1  10
BRANCH   3  15
ATOM     15  C   UNL     1      -2.217   3.721   8.250  0.00  0.00    +0.252 C 
ATOM     16  O   UNL     1      -1.050   3.511   8.529  0.00  0.00    -0.270 OA
ATOM     17  N   UNL     1      -3.067   4.167   9.196  0.00  0.00    -0.325 N 
ATOM     18  H   UNL     1      -3.996   4.334   8.973  0.00  0.00    +0.145 HD
ATOM     19  H   UNL     1      -2.749   4.322  10.099  0.00  0.00    +0.145 HD
ENDBRANCH   3  15
BRANCH   2  20
ATOM     20  N   UNL     1      -0.647   2.746   5.912  0.00  0.00    -0.343 N 
ATOM     21  H   UNL     1      -0.175   2.432   5.125  0.00  0.00    +0.144 HD
ATOM     22  H   UNL     1      -0.174   2.848   6.753  0.00  0.00    +0.144 HD
ENDBRANCH   2  20
TORSDOF 4
