REMARK  Name = ZINC40985952
REMARK  8 active torsions:
REMARK  status: ('A' for Active; 'I' for Inactive)
REMARK    1  A    between atoms: C_6  and  C_7
REMARK    2  A    between atoms: C_7  and  S_8
REMARK    3  A    between atoms: S_8  and  C_9
REMARK    4  A    between atoms: C_12  and  C_16
REMARK    5  A    between atoms: N_18  and  C_19
REMARK    6  A    between atoms: C_19  and  C_20
REMARK    7  A    between atoms: C_20  and  C_22
REMARK    8  A    between atoms: C_20  and  N_29
REMARK                            x       y       z     vdW  Elec       q    Type
REMARK                         _______ _______ _______ _____ _____    ______ ____
ROOT
ATOM      1  C   UNL     1      -6.773  -4.276  -1.093  0.00  0.00    +0.248 C 
ATOM      2  O   UNL     1      -7.251  -4.836  -2.061  0.00  0.00    -0.270 OA
ATOM      3  N   UNL     1      -7.327  -4.444   0.124  0.00  0.00    -0.312 N 
ATOM      4  H   UNL     1      -6.946  -3.997   0.896  0.00  0.00    +0.149 HD
ENDROOT
BRANCH   1   8
ATOM      5  C   UNL     1      -3.431  -1.844  -1.539  0.00  0.00    +0.190 A 
ATOM      6  N   UNL     1      -3.962  -1.996  -0.332  0.00  0.00    -0.229 NA
ATOM      7  C   UNL     1      -5.023  -2.759  -0.149  0.00  0.00    +0.129 A 
ATOM      8  C   UNL     1      -5.588  -3.413  -1.251  0.00  0.00    +0.092 A 
ATOM      9  C   UNL     1      -4.997  -3.226  -2.510  0.00  0.00    +0.146 A 
ATOM     10  N   UNL     1      -3.939  -2.442  -2.610  0.00  0.00    -0.209 NA
ATOM     11 CL   UNL     1      -5.649  -4.009  -3.916  0.00  0.00    -0.061 Cl
BRANCH   5  12
ATOM     12  S   UNL     1      -2.014  -0.814  -1.726  0.00  0.00    -0.081 S 
BRANCH  12  13
ATOM     13  C   UNL     1      -1.676  -0.223  -0.045  0.00  0.00    +0.112 C 
BRANCH  13  19
ATOM     14  C   UNL     1      -0.630   2.041  -0.261  0.00  0.00    +0.006 A 
ATOM     15  C   UNL     1       0.475   2.872  -0.277  0.00  0.00    +0.020 A 
ATOM     16  C   UNL     1       1.740   2.342  -0.096  0.00  0.00    +0.041 A 
ATOM     17  C   UNL     1       1.899   0.982   0.101  0.00  0.00    +0.020 A 
ATOM     18  C   UNL     1       0.793   0.153   0.117  0.00  0.00    +0.006 A 
ATOM     19  C   UNL     1      -0.471   0.682  -0.064  0.00  0.00    -0.037 A 
ATOM     20 CL   UNL     1       3.128   3.385  -0.118  0.00  0.00    -0.084 Cl
ENDBRANCH  13  19
ENDBRANCH  12  13
ENDBRANCH   5  12
ENDBRANCH   1   8
BRANCH   3  21
ATOM     21  C   UNL     1      -8.505  -5.301   0.281  0.00  0.00    +0.094 C 
BRANCH  21  22
ATOM     22  C   UNL     1      -8.849  -5.427   1.767  0.00  0.00    -0.020 C 
BRANCH  22  23
ATOM     23  C   UNL     1      -7.740  -6.157   2.479  0.00  0.00    -0.059 A 
ATOM     24  C   UNL     1      -7.664  -7.536   2.409  0.00  0.00    +0.003 A 
ATOM     25  C   UNL     1      -6.647  -8.206   3.062  0.00  0.00    +0.020 A 
ATOM     26  C   UNL     1      -5.705  -7.497   3.786  0.00  0.00    +0.041 A 
ATOM     27  C   UNL     1      -5.781  -6.117   3.855  0.00  0.00    +0.020 A 
ATOM     28  C   UNL     1      -6.795  -5.448   3.197  0.00  0.00    +0.003 A 
ATOM     29 CL   UNL     1      -4.427  -8.338   4.607  0.00  0.00    -0.084 Cl
ENDBRANCH  22  23
BRANCH  22  30
ATOM     30  N   UNL     1     -10.104  -6.176   1.917  0.00  0.00    +0.385 N 
ATOM     31  C   UNL     1     -10.461  -6.295   3.353  0.00  0.00    -0.078 C 
ATOM     32  C   UNL     1     -11.986  -6.567   3.319  0.00  0.00    -0.020 C 
ATOM     33  C   UNL     1     -12.469  -5.678   2.150  0.00  0.00    -0.020 C 
ATOM     34  C   UNL     1     -11.218  -5.437   1.284  0.00  0.00    -0.078 C 
ATOM     35  H   UNL     1     -10.014  -7.092   1.502  0.00  0.00    -0.081 HD
ENDBRANCH  22  30
ENDBRANCH  21  22
ENDBRANCH   3  21
TORSDOF 8
