REMARK  Name = ZINC10248925
REMARK  8 active torsions:
REMARK  status: ('A' for Active; 'I' for Inactive)
REMARK    1  A    between atoms: C_1  and  C_2
REMARK    2  A    between atoms: C_7  and  N_8
REMARK    3  A    between atoms: N_18  and  C_19
REMARK    4  A    between atoms: C_19  and  C_20
REMARK    5  A    between atoms: C_20  and  C_21
REMARK    6  A    between atoms: C_21  and  S_22
REMARK    7  A    between atoms: S_22  and  C_23
REMARK    8  A    between atoms: N_35  and  C_36
REMARK                            x       y       z     vdW  Elec       q    Type
REMARK                         _______ _______ _______ _____ _____    ______ ____
ROOT
ATOM      1  N   UNL     1       1.439  -0.580   1.308  0.00  0.00    -0.327 N 
ATOM      2  C   UNL     1       0.248   0.071   1.872  0.00  0.00    +0.124 C 
ATOM      3  C   UNL     1      -0.658   0.545   0.732  0.00  0.00    +0.127 C 
ATOM      4  N   UNL     1       0.087   1.472  -0.129  0.00  0.00    -0.298 N 
ATOM      5  C   UNL     1       1.279   0.822  -0.693  0.00  0.00    +0.127 C 
ATOM      6  C   UNL     1       2.184   0.348   0.447  0.00  0.00    +0.124 C 
ATOM      7  C   UNL     1      -0.718   1.975  -1.126  0.00  0.00    +0.201 A 
ATOM      8  N   UNL     1      -1.283   1.263  -2.080  0.00  0.00    -0.196 NA
ATOM      9  C   UNL     1      -1.996   2.057  -2.880  0.00  0.00    +0.170 A 
ATOM     10  C   UNL     1      -1.873   3.356  -2.398  0.00  0.00    +0.153 A 
ATOM     11  N   UNL     1      -1.058   3.282  -1.276  0.00  0.00    -0.306 N 
ATOM     12  C   UNL     1      -2.535   4.401  -3.067  0.00  0.00    +0.280 A 
ATOM     13  O   UNL     1      -2.441   5.547  -2.663  0.00  0.00    -0.265 OA
ATOM     14  N   UNL     1      -3.275   4.122  -4.160  0.00  0.00    -0.273 N 
ATOM     15  H   UNL     1      -3.747   4.863  -4.637  0.00  0.00    +0.173 HD
ATOM     16  C   UNL     1      -3.387   2.863  -4.617  0.00  0.00    +0.331 A 
ATOM     17  O   UNL     1      -4.062   2.648  -5.605  0.00  0.00    -0.246 OA
ATOM     18  N   UNL     1      -2.770   1.833  -4.007  0.00  0.00    -0.280 N 
ATOM     19  C   UNL     1      -2.917   0.475  -4.535  0.00  0.00    +0.155 C 
ENDROOT
BRANCH   1  26
ATOM     20  C   UNL     1       1.958  -3.376   1.331  0.00  0.00    +0.045 C 
ATOM     21  C   UNL     1       2.537  -2.449   2.369  0.00  0.00    -0.029 A 
ATOM     22  C   UNL     1       3.345  -2.950   3.370  0.00  0.00    +0.006 A 
ATOM     23  C   UNL     1       3.876  -2.101   4.323  0.00  0.00    +0.020 A 
ATOM     24  C   UNL     1       3.599  -0.746   4.277  0.00  0.00    +0.043 A 
ATOM     25  C   UNL     1       2.795  -0.237   3.276  0.00  0.00    +0.043 A 
ATOM     26  C   UNL     1       2.256  -1.089   2.320  0.00  0.00    +0.034 A 
ATOM     27 CL   UNL     1       4.269   0.317   5.476  0.00  0.00    -0.083 Cl
ENDBRANCH   1  26
BRANCH  11  28
ATOM     28  C   UNL     1      -0.644   4.397  -0.422  0.00  0.00    +0.126 C 
BRANCH  28  29
ATOM     29  C   UNL     1       0.641   5.014  -0.977  0.00  0.00    +0.033 C 
BRANCH  29  30
ATOM     30  C   UNL     1       1.127   6.117  -0.033  0.00  0.00    +0.076 C 
BRANCH  30  31
ATOM     31  S   UNL     1       2.651   6.848  -0.691  0.00  0.00    -0.125 S 
BRANCH  31  32
ATOM     32  C   UNL     1       3.076   8.083   0.492  0.00  0.00    +0.008 A 
ATOM     33  C   UNL     1       2.273   8.285   1.608  0.00  0.00    +0.015 A 
ATOM     34  C   UNL     1       2.613   9.248   2.536  0.00  0.00    +0.001 A 
ATOM     35  C   UNL     1       3.745  10.021   2.350  0.00  0.00    +0.000 A 
ATOM     36  C   UNL     1       4.544   9.827   1.238  0.00  0.00    +0.001 A 
ATOM     37  C   UNL     1       4.213   8.861   0.309  0.00  0.00    +0.015 A 
ENDBRANCH  31  32
ENDBRANCH  30  31
ENDBRANCH  29  30
ENDBRANCH  28  29
ENDBRANCH  11  28
TORSDOF 6
