REMARK  Name = ZINC01640577
REMARK  9 active torsions:
REMARK  status: ('A' for Active; 'I' for Inactive)
REMARK    1  A    between atoms: C_1  and  O_2
REMARK    2  A    between atoms: O_2  and  C_3
REMARK    3  A    between atoms: C_5  and  C_13
REMARK    4  A    between atoms: C_7  and  O_11
REMARK    5  A    between atoms: C_8  and  O_9
REMARK    6  A    between atoms: O_9  and  C_10
REMARK    7  A    between atoms: O_11  and  C_12
REMARK    8  A    between atoms: C_22  and  O_29
REMARK    9  A    between atoms: O_29  and  C_30
REMARK                            x       y       z     vdW  Elec       q    Type
REMARK                         _______ _______ _______ _____ _____    ______ ____
ROOT
ATOM      1  C   UNL     1       2.473   1.018  -0.061  0.00  0.00    +0.073 C 
ATOM      2  C   UNL     1       1.182   1.781   0.000  0.00  0.00    +0.006 A 
ATOM      3  C   UNL     1      -0.013   1.076   0.008  0.00  0.00    +0.057 A 
ATOM      4  C   UNL     1      -1.222   1.746   0.017  0.00  0.00    +0.167 A 
ATOM      5  C   UNL     1      -1.242   3.139   0.029  0.00  0.00    +0.170 A 
ATOM      6  C   UNL     1      -0.051   3.842   0.028  0.00  0.00    +0.095 A 
ATOM      7  C   UNL     1       1.163   3.163   0.023  0.00  0.00    +0.132 A 
ATOM      8  O   UNL     1       2.312   3.878   0.057  0.00  0.00    -0.456 OA
ATOM      9  C   UNL     1       3.562   3.288  -0.128  0.00  0.00    +0.260 C 
ATOM     10  C   UNL     1       3.663   1.849   0.425  0.00  0.00    +0.185 C 
ATOM     11  C   UNL     1       4.877   1.330  -0.351  0.00  0.00    +0.318 C 
ATOM     12  O   UNL     1       5.612   0.441   0.009  0.00  0.00    -0.250 OA
ATOM     13  O   UNL     1       4.995   2.021  -1.498  0.00  0.00    -0.458 OA
ATOM     14  C   UNL     1       3.963   3.056  -1.595  0.00  0.00    +0.311 C 
ATOM     15  O   UNL     1      -2.541   3.557   0.037  0.00  0.00    -0.452 OA
ATOM     16  C   UNL     1      -3.315   2.415  -0.385  0.00  0.00    +0.466 C 
ATOM     17  O   UNL     1      -2.511   1.292   0.022  0.00  0.00    -0.453 OA
ENDROOT
BRANCH   1  20
ATOM     18  C   UNL     1       2.397  -2.602   1.022  0.00  0.00    +0.165 A 
ATOM     19  C   UNL     1       2.505  -1.466   0.234  0.00  0.00    +0.054 A 
ATOM     20  C   UNL     1       2.353  -0.213   0.799  0.00  0.00    -0.032 A 
ATOM     21  C   UNL     1       2.098  -0.087   2.152  0.00  0.00    +0.054 A 
ATOM     22  C   UNL     1       1.983  -1.218   2.946  0.00  0.00    +0.165 A 
ATOM     23  C   UNL     1       2.135  -2.479   2.382  0.00  0.00    +0.204 A 
BRANCH  18  25
ATOM     24  C   UNL     1       2.812  -3.883  -0.937  0.00  0.00    +0.277 C 
ATOM     25  O   UNL     1       2.546  -3.833   0.466  0.00  0.00    -0.491 OA
ENDBRANCH  18  25
BRANCH  23  26
ATOM     26  O   UNL     1       2.028  -3.592   3.159  0.00  0.00    -0.488 OA
ATOM     27  C   UNL     1       3.228  -4.076   3.766  0.00  0.00    +0.277 C 
ENDBRANCH  23  26
BRANCH  22  28
ATOM     28  O   UNL     1       1.727  -1.093   4.276  0.00  0.00    -0.491 OA
ATOM     29  C   UNL     1       1.582   0.233   4.787  0.00  0.00    +0.277 C 
ENDBRANCH  22  28
ENDBRANCH   1  20
BRANCH   9  30
ATOM     30  O   UNL     1       4.562   4.098   0.492  0.00  0.00    -0.339 OA
ATOM     31  C   UNL     1       4.553   5.462   0.064  0.00  0.00    +0.198 C 
ENDBRANCH   9  30
TORSDOF 5
