REMARK  Name = ZINC63746596
REMARK  9 active torsions:
REMARK  status: ('A' for Active; 'I' for Inactive)
REMARK    1  A    between atoms: C_1  and  C_2
REMARK    2  A    between atoms: C_2  and  C_3
REMARK    3  A    between atoms: C_2  and  C_4
REMARK    4  A    between atoms: C_4  and  C_6
REMARK    5  A    between atoms: C_4  and  N_11
REMARK    6  A    between atoms: C_12  and  C_14
REMARK    7  A    between atoms: C_14  and  N_15
REMARK    8  A    between atoms: C_18  and  C_23
REMARK    9  A    between atoms: C_23  and  C_24
REMARK                            x       y       z     vdW  Elec       q    Type
REMARK                         _______ _______ _______ _____ _____    ______ ____
ROOT
ATOM      1  N   UNL     1      -3.999   2.999  -2.114  0.00  0.00    -0.216 N 
ATOM      2  C   UNL     1      -5.221   3.229  -1.595  0.00  0.00    +0.244 C 
ATOM      3  O   UNL     1      -6.048   2.403  -1.274  0.00  0.00    -0.273 OA
ATOM      4  C   UNL     1      -5.347   4.737  -1.497  0.00  0.00    +0.165 C 
ATOM      5  N   UNL     1      -4.060   5.227  -2.021  0.00  0.00    -0.287 N 
ATOM      6  C   UNL     1      -3.340   4.140  -2.350  0.00  0.00    +0.310 C 
ATOM      7  O   UNL     1      -2.217   4.188  -2.813  0.00  0.00    -0.252 OA
ATOM      8  H   UNL     1      -3.785   6.153  -2.108  0.00  0.00    +0.151 HD
ENDROOT
BRANCH   1   9
ATOM      9  C   UNL     1      -3.456   1.665  -2.381  0.00  0.00    +0.213 C 
BRANCH   9  11
ATOM     10  N   UNL     1      -2.142  -0.048  -1.174  0.00  0.00    -0.306 N 
ATOM     11  C   UNL     1      -2.727   1.166  -1.160  0.00  0.00    +0.231 C 
ATOM     12  O   UNL     1      -2.667   1.857  -0.165  0.00  0.00    -0.274 OA
ATOM     13  H   UNL     1      -2.190  -0.601  -1.970  0.00  0.00    +0.149 HD
BRANCH  10  14
ATOM     14  C   UNL     1      -1.433  -0.534   0.013  0.00  0.00    +0.112 C 
BRANCH  14  15
ATOM     15  C   UNL     1      -1.413  -2.041   0.005  0.00  0.00    +0.010 A 
ATOM     16  C   UNL     1      -1.580  -2.902   1.038  0.00  0.00    +0.013 A 
ATOM     17  C   UNL     1      -1.521  -4.261   0.793  0.00  0.00    +0.008 A 
ATOM     18  C   UNL     1      -1.299  -4.692  -0.473  0.00  0.00    +0.045 A 
ATOM     19  S   UNL     1      -1.171  -3.154  -1.370  0.00  0.00    -0.100 S 
ENDBRANCH  14  15
BRANCH  14  21
ATOM     20  C   UNL     1      -0.019   1.526   0.010  0.00  0.00    +0.009 C 
ATOM     21  C   UNL     1       0.002  -0.004   0.002  0.00  0.00    +0.008 C 
ATOM     22  C   UNL     1       0.742  -0.511   1.242  0.00  0.00    +0.009 C 
ENDBRANCH  14  21
ENDBRANCH  10  14
ENDBRANCH   9  11
ENDBRANCH   1   9
BRANCH   4  23
ATOM     23  C   UNL     1      -5.538   5.167  -0.041  0.00  0.00    +0.065 C 
BRANCH  23  24
ATOM     24  C   UNL     1      -5.783   6.653   0.016  0.00  0.00    -0.039 C 
ATOM     25  C   UNL     1      -6.982   7.279   0.057  0.00  0.00    -0.001 A 
ATOM     26  C   UNL     1      -8.363   6.782   0.060  0.00  0.00    +0.010 A 
ATOM     27  C   UNL     1      -9.380   7.672   0.107  0.00  0.00    +0.001 A 
ATOM     28  C   UNL     1      -9.148   9.054   0.153  0.00  0.00    +0.002 A 
ATOM     29  C   UNL     1      -7.908   9.586   0.153  0.00  0.00    +0.026 A 
ATOM     30  C   UNL     1      -6.764   8.742   0.106  0.00  0.00    +0.043 A 
ATOM     31  N   UNL     1      -5.481   9.011   0.096  0.00  0.00    -0.380 N 
ATOM     32  C   UNL     1      -4.739   7.746   0.045  0.00  0.00    +0.144 C 
ATOM     33  H   UNL     1      -5.088   9.897   0.121  0.00  0.00    +0.160 HD
ENDBRANCH  23  24
ENDBRANCH   4  23
TORSDOF 7
