REMARK  Name = ZINC13117569
REMARK  6 active torsions:
REMARK  status: ('A' for Active; 'I' for Inactive)
REMARK    1  A    between atoms: C_1  and  N_2
REMARK    2  A    between atoms: N_7  and  C_10
REMARK    3  A    between atoms: N_11  and  C_15
REMARK    4  A    between atoms: C_15  and  C_16
REMARK    5  A    between atoms: N_18  and  C_19
REMARK    6  A    between atoms: N_18  and  C_25
REMARK                            x       y       z     vdW  Elec       q    Type
REMARK                         _______ _______ _______ _____ _____    ______ ____
ROOT
ATOM      1  C   UNL     1      -2.368  -0.055   0.096  0.00  0.00    +0.240 C 
ATOM      2  O   UNL     1      -2.375   1.158   0.102  0.00  0.00    -0.273 OA
ATOM      3  N   UNL     1      -1.200  -0.722   0.011  0.00  0.00    -0.265 N 
ENDROOT
BRANCH   3   4
ATOM      4  C   UNL     1      -1.196  -2.182  -0.104  0.00  0.00    +0.104 C 
ATOM      5  C   UNL     1      -0.441  -2.592  -1.379  0.00  0.00    +0.047 C 
ATOM      6  C   UNL     1      -0.180  -4.124  -1.316  0.00  0.00    +0.168 C 
ATOM      7  S   UNL     1       0.271  -4.316   0.461  0.00  0.00    -0.029 S 
ATOM      8  O   UNL     1       1.682  -4.214   0.593  0.00  0.00    -0.174 OA
ATOM      9  O   UNL     1      -0.400  -5.452   0.988  0.00  0.00    -0.174 OA
ATOM     10  C   UNL     1      -0.506  -2.794   1.139  0.00  0.00    +0.188 C 
ENDBRANCH   3   4
BRANCH   3  11
ATOM     11  C   UNL     1       0.010  -0.019   0.031  0.00  0.00    +0.037 A 
ATOM     12  C   UNL     1       0.009   1.369  -0.010  0.00  0.00    +0.023 A 
ATOM     13  C   UNL     1       1.205   2.060   0.011  0.00  0.00    +0.002 A 
ATOM     14  C   UNL     1       2.402   1.371   0.072  0.00  0.00    +0.000 A 
ATOM     15  C   UNL     1       2.406  -0.011   0.114  0.00  0.00    +0.002 A 
ATOM     16  C   UNL     1       1.214  -0.708   0.093  0.00  0.00    +0.023 A 
ENDBRANCH   3  11
BRANCH   1  17
ATOM     17  C   UNL     1      -3.665  -0.817   0.185  0.00  0.00    +0.221 C 
BRANCH  17  28
ATOM     18  C   UNL     1      -8.329   3.132  -0.023  0.00  0.00    +0.155 C 
ATOM     19  N   UNL     1      -7.340   2.282  -0.691  0.00  0.00    -0.280 N 
ATOM     20  C   UNL     1      -6.446   1.538   0.061  0.00  0.00    +0.169 A 
ATOM     21  C   UNL     1      -5.518   0.740  -0.597  0.00  0.00    +0.153 A 
ATOM     22  C   UNL     1      -5.514   0.710  -2.007  0.00  0.00    +0.282 A 
ATOM     23  O   UNL     1      -4.710   0.018  -2.606  0.00  0.00    -0.265 OA
ATOM     24  N   UNL     1      -6.409   1.458  -2.684  0.00  0.00    -0.262 N 
ATOM     25  C   UNL     1      -7.302   2.225  -2.036  0.00  0.00    +0.333 A 
ATOM     26  O   UNL     1      -8.095   2.885  -2.680  0.00  0.00    -0.246 OA
ATOM     27  C   UNL     1      -6.410   1.431  -4.149  0.00  0.00    +0.157 C 
ATOM     28  N   UNL     1      -4.770   0.123   0.389  0.00  0.00    -0.300 N 
ATOM     29  C   UNL     1      -5.255   0.548   1.574  0.00  0.00    +0.206 A 
ATOM     30  N   UNL     1      -6.241   1.387   1.372  0.00  0.00    -0.199 NA
ATOM     31 CL   UNL     1      -4.661   0.059   3.130  0.00  0.00    -0.043 Cl
ENDBRANCH  17  28
ENDBRANCH   1  17
TORSDOF 4
