REMARK  Name = ZINC08284148
REMARK  4 active torsions:
REMARK  status: ('A' for Active; 'I' for Inactive)
REMARK    1  A    between atoms: C_1  and  C_2
REMARK    2  A    between atoms: C_3  and  C_11
REMARK    3  A    between atoms: N_13  and  N_14
REMARK    4  A    between atoms: C_15  and  C_17
REMARK                            x       y       z     vdW  Elec       q    Type
REMARK                         _______ _______ _______ _____ _____    ______ ____
ROOT
ATOM      1  C   UNL     1       8.461   3.244   0.385  0.00  0.00    +0.279 C 
ATOM      2  O   UNL     1       8.473   2.159   0.937  0.00  0.00    -0.267 OA
ATOM      3  N   UNL     1       7.289   3.856   0.128  0.00  0.00    -0.229 N 
ATOM      4  H   UNL     1       7.281   4.752  -0.244  0.00  0.00    +0.173 HD
ENDROOT
BRANCH   1   7
ATOM      5  C   UNL     1      10.325   4.850   2.302  0.00  0.00    +0.068 C 
ATOM      6  C   UNL     1      10.532   4.582   0.834  0.00  0.00    +0.069 A 
ATOM      7  C   UNL     1       9.681   3.863   0.011  0.00  0.00    +0.133 A 
ATOM      8  N   UNL     1      10.260   3.862  -1.245  0.00  0.00    -0.295 N 
ATOM      9  C   UNL     1       9.878   3.314  -2.430  0.00  0.00    +0.093 A 
ATOM     10  C   UNL     1      10.642   3.464  -3.536  0.00  0.00    +0.018 A 
ATOM     11  C   UNL     1      11.840   4.189  -3.471  0.00  0.00    +0.005 A 
ATOM     12  C   UNL     1      12.225   4.749  -2.290  0.00  0.00    +0.047 A 
ATOM     13  C   UNL     1      11.419   4.578  -1.150  0.00  0.00    +0.138 A 
ATOM     14  N   UNL     1      11.559   4.994   0.108  0.00  0.00    -0.232 NA
ENDBRANCH   1   7
BRANCH   3  15
ATOM     15  N   UNL     1       6.081   3.199   0.398  0.00  0.00    -0.234 N 
ATOM     16  C   UNL     1       4.909   3.811   0.141  0.00  0.00    +0.236 C 
ATOM     17  O   UNL     1       4.898   4.932  -0.323  0.00  0.00    -0.274 OA
ATOM     18  H   UNL     1       6.089   2.303   0.770  0.00  0.00    +0.173 HD
BRANCH  16  19
ATOM     19  C   UNL     1       3.610   3.104   0.432  0.00  0.00    +0.118 C 
ATOM     20  C   UNL     1       2.434   3.998   0.027  0.00  0.00    +0.055 C 
ATOM     21  C   UNL     1       1.159   3.193   0.036  0.00  0.00    -0.005 A 
ATOM     22  C   UNL     1      -0.052   3.865   0.067  0.00  0.00    +0.007 A 
ATOM     23  C   UNL     1      -1.240   3.160   0.071  0.00  0.00    +0.000 A 
ATOM     24  C   UNL     1      -1.223   1.778   0.038  0.00  0.00    +0.004 A 
ATOM     25  C   UNL     1      -0.020   1.103   0.015  0.00  0.00    +0.046 A 
ATOM     26  C   UNL     1       1.179   1.810   0.011  0.00  0.00    +0.124 A 
ATOM     27  O   UNL     1       2.343   1.111  -0.012  0.00  0.00    -0.491 OA
ATOM     28  C   UNL     1       3.533   1.808  -0.385  0.00  0.00    +0.242 C 
ENDBRANCH  16  19
ENDBRANCH   3  15
TORSDOF 3
