REMARK  Name = ZINC32438806
REMARK  9 active torsions:
REMARK  status: ('A' for Active; 'I' for Inactive)
REMARK    1  A    between atoms: C_1  and  C_2
REMARK    2  A    between atoms: C_3  and  C_27
REMARK    3  A    between atoms: C_4  and  S_8
REMARK    4  A    between atoms: C_5  and  C_7
REMARK    5  A    between atoms: S_8  and  N_11
REMARK    6  A    between atoms: N_14  and  S_17
REMARK    7  A    between atoms: S_17  and  N_20
REMARK    8  A    between atoms: C_27  and  O_29
REMARK    9  A    between atoms: O_29  and  C_30
REMARK                            x       y       z     vdW  Elec       q    Type
REMARK                         _______ _______ _______ _____ _____    ______ ____
ROOT
ATOM      1  N   UNL     1      -1.768  -4.091  -1.595  0.00  0.00    -0.174 NA
ATOM      2  C   UNL     1      -2.958  -3.599  -2.303  0.00  0.00    +0.126 C 
ATOM      3  C   UNL     1      -2.506  -2.868  -3.574  0.00  0.00    +0.127 C 
ATOM      4  N   UNL     1      -1.557  -3.726  -4.296  0.00  0.00    -0.164 NA
ATOM      5  C   UNL     1      -0.367  -4.218  -3.589  0.00  0.00    +0.127 C 
ATOM      6  C   UNL     1      -0.816  -4.944  -2.320  0.00  0.00    +0.126 C 
ENDROOT
BRANCH   1   7
ATOM      7  S   UNL     1      -1.501  -3.685  -0.012  0.00  0.00    +0.065 S 
ATOM      8  O   UNL     1      -0.657  -4.692   0.528  0.00  0.00    -0.153 OA
ATOM      9  O   UNL     1      -2.769  -3.373   0.547  0.00  0.00    -0.153 OA
BRANCH   7  13
ATOM     10  C   UNL     1      -0.018   1.503   0.010  0.00  0.00    +0.087 C 
ATOM     11  C   UNL     1       0.002  -0.004   0.002  0.00  0.00    +0.118 A 
ATOM     12  C   UNL     1      -1.094  -0.818   0.003  0.00  0.00    +0.126 A 
ATOM     13  C   UNL     1      -0.567  -2.191  -0.008  0.00  0.00    +0.160 A 
ATOM     14  C   UNL     1       0.769  -2.073  -0.014  0.00  0.00    +0.129 A 
ATOM     15  O   UNL     1       1.096  -0.771  -0.013  0.00  0.00    -0.462 OA
ATOM     16  C   UNL     1       1.747  -3.219  -0.026  0.00  0.00    +0.088 C 
BRANCH  12  17
ATOM     17  C   UNL     1      -2.508  -0.407   0.013  0.00  0.00    +0.344 C 
ATOM     18  O   UNL     1      -3.097  -0.231  -1.036  0.00  0.00    -0.245 OA
BRANCH  17  19
ATOM     19  O   UNL     1      -3.148  -0.226   1.185  0.00  0.00    -0.464 OA
ATOM     20  C   UNL     1      -4.519   0.173   1.120  0.00  0.00    +0.280 C 
ENDBRANCH  17  19
ENDBRANCH  12  17
ENDBRANCH   7  13
ENDBRANCH   1   7
BRANCH   4  21
ATOM     21  S   UNL     1      -1.824  -4.132  -5.879  0.00  0.00    +0.100 S 
ATOM     22  O   UNL     1      -1.117  -5.342  -6.114  0.00  0.00    -0.141 OA
ATOM     23  O   UNL     1      -3.223  -4.014  -6.098  0.00  0.00    -0.141 OA
BRANCH  21  24
ATOM     24  N   UNL     1      -1.099  -2.971  -6.811  0.00  0.00    -0.166 NA
ATOM     25  C   UNL     1      -1.867  -1.806  -7.189  0.00  0.00    +0.110 C 
ATOM     26  C   UNL     1      -2.607  -2.081  -8.521  0.00  0.00    +0.017 C 
ATOM     27  C   UNL     1      -1.652  -2.119  -9.639  0.00  0.00    +0.001 C 
ATOM     28  C   UNL     1      -0.617  -3.236  -9.544  0.00  0.00    +0.001 C 
ATOM     29  C   UNL     1       0.540  -2.776  -8.692  0.00  0.00    +0.017 C 
ATOM     30  C   UNL     1       0.306  -3.166  -7.218  0.00  0.00    +0.110 C 
ENDBRANCH  21  24
ENDBRANCH   4  21
TORSDOF 6
