REMARK  Name = ZINC33812719
REMARK  11 active torsions:
REMARK  status: ('A' for Active; 'I' for Inactive)
REMARK    1  A    between atoms: C_1  and  C_2
REMARK    2  A    between atoms: C_2  and  C_3
REMARK    3  A    between atoms: C_3  and  C_4
REMARK    4  A    between atoms: C_4  and  N_5
REMARK    5  A    between atoms: C_6  and  N_30
REMARK    6  A    between atoms: C_7  and  C_15
REMARK    7  A    between atoms: C_8  and  C_14
REMARK    8  A    between atoms: C_9  and  C_12
REMARK    9  A    between atoms: N_19  and  C_23
REMARK   10  A    between atoms: C_23  and  C_24
REMARK   11  A    between atoms: N_33  and  C_36
REMARK                            x       y       z     vdW  Elec       q    Type
REMARK                         _______ _______ _______ _____ _____    ______ ____
ROOT
ATOM      1  N   UNL     1       1.278  -2.443   2.832  0.00  0.00    -0.295 N 
ATOM      2  C   UNL     1       2.597  -2.686   2.619  0.00  0.00    +0.112 A 
ATOM      3  C   UNL     1       3.319  -3.519   3.490  0.00  0.00    +0.019 A 
ATOM      4  C   UNL     1       2.665  -4.101   4.589  0.00  0.00    -0.017 A 
ATOM      5  C   UNL     1       1.313  -3.836   4.786  0.00  0.00    +0.120 A 
ATOM      6  C   UNL     1       0.631  -2.984   3.880  0.00  0.00    +0.270 A 
ATOM      7  O   UNL     1      -0.551  -2.744   4.050  0.00  0.00    -0.266 OA
ATOM      8  C   UNL     1       3.416  -4.999   5.538  0.00  0.00    +0.046 C 
ENDROOT
BRANCH   3   9
ATOM      9  C   UNL     1       4.740  -3.778   3.254  0.00  0.00    +0.032 C 
ATOM     10  C   UNL     1       5.669  -3.340   4.147  0.00  0.00    +0.077 C 
ATOM     11  C   UNL     1       7.086  -3.519   4.145  0.00  0.00    +0.258 C 
ATOM     12  O   UNL     1       7.639  -4.141   3.256  0.00  0.00    -0.269 OA
ATOM     13  N   UNL     1       7.779  -2.989   5.138  0.00  0.00    -0.253 N 
ATOM     14  C   UNL     1       7.166  -2.298   6.124  0.00  0.00    +0.121 C 
ATOM     15  S   UNL     1       7.859  -1.535   7.491  0.00  0.00    -0.027 S 
ATOM     16  S   UNL     1       5.449  -2.377   5.637  0.00  0.00    -0.061 S 
BRANCH  13  17
ATOM     17  C   UNL     1       9.235  -3.152   5.169  0.00  0.00    +0.146 C 
BRANCH  17  18
ATOM     18  C   UNL     1       9.895  -1.991   4.422  0.00  0.00    +0.136 C 
ATOM     19  C   UNL     1      11.435  -2.163   4.413  0.00  0.00    +0.035 C 
ATOM     20  C   UNL     1      11.815  -1.345   3.150  0.00  0.00    +0.031 C 
ATOM     21  C   UNL     1      10.611  -1.600   2.219  0.00  0.00    +0.160 C 
ATOM     22  O   UNL     1       9.506  -2.003   3.039  0.00  0.00    -0.375 OA
ENDBRANCH  17  18
ENDBRANCH  13  17
ENDBRANCH   3   9
BRANCH   2  23
ATOM     23  N   UNL     1       3.226  -2.118   1.550  0.00  0.00    -0.320 N 
ATOM     24  C   UNL     1       3.211  -2.767   0.230  0.00  0.00    +0.088 C 
ATOM     25  C   UNL     1       4.649  -2.837  -0.294  0.00  0.00    -0.060 C 
ATOM     26  N   UNL     1       5.237  -1.491  -0.287  0.00  0.00    +0.380 N 
ATOM     27  C   UNL     1       5.342  -0.998   1.092  0.00  0.00    -0.060 C 
ATOM     28  C   UNL     1       3.933  -0.835   1.683  0.00  0.00    +0.088 C 
ATOM     29  C   UNL     1       6.575  -1.541  -0.891  0.00  0.00    -0.096 C 
ATOM     30  H   UNL     1       4.652  -0.867  -0.823  0.00  0.00    -0.082 HD
ENDBRANCH   2  23
BRANCH   5  31
ATOM     31  C   UNL     1       0.618  -4.414   5.896  0.00  0.00    +0.105 C 
ATOM     32  N   UNL     1       0.066  -4.873   6.777  0.00  0.00    -0.191 NA
ENDBRANCH   5  31
BRANCH   1  33
ATOM     33  C   UNL     1       0.549  -1.571   1.908  0.00  0.00    +0.126 C 
BRANCH  33  34
ATOM     34  C   UNL     1       0.527  -0.145   2.462  0.00  0.00    +0.021 C 
BRANCH  34  36
ATOM     35  C   UNL     1      -0.256   2.192   2.051  0.00  0.00    +0.004 C 
ATOM     36  C   UNL     1      -0.234   0.766   1.497  0.00  0.00    -0.002 C 
ENDBRANCH  34  36
ENDBRANCH  33  34
ENDBRANCH   1  33
TORSDOF 8
