REMARK  Name = ZINC41027141
REMARK  7 active torsions:
REMARK  status: ('A' for Active; 'I' for Inactive)
REMARK    1  A    between atoms: C_1  and  C_2
REMARK    2  A    between atoms: C_2  and  C_4
REMARK    3  A    between atoms: C_2  and  S_14
REMARK    4  A    between atoms: N_6  and  C_7
REMARK    5  A    between atoms: C_12  and  N_13
REMARK    6  A    between atoms: S_14  and  C_15
REMARK    7  A    between atoms: C_21  and  N_23
REMARK                            x       y       z     vdW  Elec       q    Type
REMARK                         _______ _______ _______ _____ _____    ______ ____
ROOT
ATOM      1  C   UNL     1      -0.001   1.512   0.006  0.00  0.00    +0.029 C 
ATOM      2  C   UNL     1       0.008  -0.018   0.000  0.00  0.00    +0.137 C 
ENDROOT
BRANCH   2   3
ATOM      3  C   UNL     1      -1.410  -0.529   0.012  0.00  0.00    +0.230 C 
ATOM      4  O   UNL     1      -1.940  -0.824   1.063  0.00  0.00    -0.274 OA
ATOM      5  N   UNL     1      -2.090  -0.657  -1.144  0.00  0.00    -0.283 N 
ATOM      6  H   UNL     1      -1.697  -0.347  -1.975  0.00  0.00    +0.155 HD
BRANCH   5   7
ATOM      7  C   UNL     1      -3.365  -1.240  -1.147  0.00  0.00    +0.054 A 
ATOM      8  C   UNL     1      -3.728  -2.123  -0.142  0.00  0.00    +0.025 A 
ATOM      9  C   UNL     1      -4.985  -2.697  -0.146  0.00  0.00    +0.002 A 
ATOM     10  C   UNL     1      -5.885  -2.393  -1.151  0.00  0.00    +0.002 A 
ATOM     11  C   UNL     1      -5.532  -1.512  -2.157  0.00  0.00    +0.024 A 
ATOM     12  C   UNL     1      -4.275  -0.927  -2.157  0.00  0.00    +0.046 A 
BRANCH  12  13
ATOM     13  N   UNL     1      -3.917  -0.032  -3.171  0.00  0.00    -0.357 N 
ATOM     14  H   UNL     1      -3.036   0.373  -3.172  0.00  0.00    +0.142 HD
ATOM     15  H   UNL     1      -4.551   0.184  -3.873  0.00  0.00    +0.142 HD
ENDBRANCH  12  13
ENDBRANCH   5   7
ENDBRANCH   2   3
BRANCH   2  16
ATOM     16  S   UNL     1       0.881  -0.623   1.470  0.00  0.00    -0.075 S 
BRANCH  16  17
ATOM     17  C   UNL     1       2.539  -0.074   1.238  0.00  0.00    +0.171 A 
ATOM     18  N   UNL     1       3.478  -0.371   2.178  0.00  0.00    -0.302 N 
ATOM     19  H   UNL     1       3.231  -0.881   2.966  0.00  0.00    +0.171 HD
ATOM     20  C   UNL     1       4.753   0.042   2.017  0.00  0.00    +0.254 A 
ATOM     21  O   UNL     1       5.601  -0.221   2.854  0.00  0.00    -0.268 OA
ATOM     22  C   UNL     1       5.085   0.774   0.873  0.00  0.00    +0.113 A 
ATOM     23  C   UNL     1       4.091   1.051  -0.055  0.00  0.00    +0.124 A 
ATOM     24  N   UNL     1       2.845   0.611   0.156  0.00  0.00    -0.209 NA
BRANCH  23  25
ATOM     25  N   UNL     1       4.388   1.772  -1.194  0.00  0.00    -0.343 N 
ATOM     26  H   UNL     1       5.293   2.087  -1.347  0.00  0.00    +0.144 HD
ATOM     27  H   UNL     1       3.692   1.964  -1.842  0.00  0.00    +0.144 HD
ENDBRANCH  23  25
ENDBRANCH  16  17
ENDBRANCH   2  16
TORSDOF 6
