REMARK  Name = ZINC12296603
REMARK  9 active torsions:
REMARK  status: ('A' for Active; 'I' for Inactive)
REMARK    1  A    between atoms: C_1  and  C_2
REMARK    2  A    between atoms: C_6  and  C_30
REMARK    3  A    between atoms: C_7  and  C_29
REMARK    4  A    between atoms: C_10  and  C_28
REMARK    5  A    between atoms: C_15  and  C_16
REMARK    6  A    between atoms: C_16  and  C_17
REMARK    7  A    between atoms: N_19  and  C_20
REMARK    8  A    between atoms: C_20  and  C_21
REMARK    9  A    between atoms: C_21  and  C_22
REMARK                            x       y       z     vdW  Elec       q    Type
REMARK                         _______ _______ _______ _____ _____    ______ ____
ROOT
ATOM      1  C   UNL     1       0.011   1.491   0.253  0.00  0.00    +0.045 C 
ATOM      2  C   UNL     1       0.016  -0.009   0.116  0.00  0.00    -0.029 A 
ATOM      3  C   UNL     1      -1.227  -0.779   0.223  0.00  0.00    +0.022 A 
ATOM      4  C   UNL     1      -2.446  -0.139   0.453  0.00  0.00    +0.024 A 
ATOM      5  C   UNL     1      -3.603  -0.896   0.548  0.00  0.00    +0.029 A 
ATOM      6  C   UNL     1      -5.024  -0.572   0.778  0.00  0.00    +0.031 A 
ATOM      7  C   UNL     1      -5.680  -1.754   0.764  0.00  0.00    +0.111 A 
ATOM      8  O   UNL     1      -4.814  -2.759   0.551  0.00  0.00    -0.459 OA
ATOM      9  C   UNL     1      -3.554  -2.297   0.415  0.00  0.00    +0.142 A 
ATOM     10  C   UNL     1      -2.339  -2.928   0.186  0.00  0.00    +0.035 A 
ATOM     11  C   UNL     1      -1.177  -2.182   0.089  0.00  0.00    +0.146 A 
ATOM     12  O   UNL     1       0.009  -2.791  -0.134  0.00  0.00    -0.422 OA
ATOM     13  C   UNL     1       1.150  -2.091  -0.233  0.00  0.00    +0.341 A 
ATOM     14  O   UNL     1       2.194  -2.684  -0.435  0.00  0.00    -0.245 OA
ATOM     15  C   UNL     1       1.171  -0.685  -0.114  0.00  0.00    +0.049 A 
ATOM     16  C   UNL     1      -2.285  -4.427   0.043  0.00  0.00    +0.051 C 
ATOM     17  C   UNL     1      -7.165  -1.919   0.959  0.00  0.00    +0.087 C 
ENDROOT
BRANCH   6  18
ATOM     18  C   UNL     1      -5.611   0.774   0.983  0.00  0.00    -0.014 A 
ATOM     19  C   UNL     1      -5.270   1.522   2.109  0.00  0.00    +0.008 A 
ATOM     20  C   UNL     1      -5.820   2.774   2.295  0.00  0.00    +0.001 A 
ATOM     21  C   UNL     1      -6.708   3.287   1.367  0.00  0.00    +0.000 A 
ATOM     22  C   UNL     1      -7.051   2.549   0.248  0.00  0.00    +0.001 A 
ATOM     23  C   UNL     1      -6.503   1.298   0.049  0.00  0.00    +0.008 A 
ENDBRANCH   6  18
BRANCH  15  24
ATOM     24  C   UNL     1       2.472   0.065  -0.238  0.00  0.00    +0.138 C 
BRANCH  24  25
ATOM     25  C   UNL     1       3.164   0.095   1.101  0.00  0.00    +0.218 C 
ATOM     26  O   UNL     1       2.650  -0.439   2.061  0.00  0.00    -0.275 OA
ATOM     27  N   UNL     1       4.353   0.716   1.231  0.00  0.00    -0.315 N 
ATOM     28  H   UNL     1       4.764   1.143   0.463  0.00  0.00    +0.149 HD
BRANCH  27  29
ATOM     29  C   UNL     1       5.025   0.745   2.532  0.00  0.00    +0.110 C 
BRANCH  29  30
ATOM     30  C   UNL     1       6.347   1.506   2.406  0.00  0.00    +0.073 C 
BRANCH  30  31
ATOM     31  C   UNL     1       7.038   1.536   3.745  0.00  0.00    +0.035 A 
ATOM     32  C   UNL     1       6.815   2.426   4.731  0.00  0.00    +0.105 A 
ATOM     33  N   UNL     1       7.649   2.091   5.763  0.00  0.00    -0.352 N 
ATOM     34  H   UNL     1       7.721   2.547   6.616  0.00  0.00    +0.166 HD
ATOM     35  C   UNL     1       8.354   1.008   5.372  0.00  0.00    +0.171 A 
ATOM     36  N   UNL     1       7.979   0.678   4.166  0.00  0.00    -0.350 N 
ATOM     37  H   UNL     1       8.328  -0.068   3.654  0.00  0.00    +0.166 HD
ENDBRANCH  30  31
ENDBRANCH  29  30
ENDBRANCH  27  29
ENDBRANCH  24  25
ENDBRANCH  15  24
TORSDOF 6
