REMARK  Name = ZINC14784300
REMARK  18 active torsions:
REMARK  status: ('A' for Active; 'I' for Inactive)
REMARK    1  A    between atoms: C_1  and  C_2
REMARK    2  A    between atoms: C_2  and  C_3
REMARK    3  A    between atoms: C_3  and  C_4
REMARK    4  A    between atoms: C_3  and  C_5
REMARK    5  A    between atoms: C_3  and  C_6
REMARK    6  A    between atoms: C_9  and  O_12
REMARK    7  A    between atoms: O_12  and  C_13
REMARK    8  A    between atoms: C_13  and  C_14
REMARK    9  A    between atoms: N_16  and  C_17
REMARK   10  A    between atoms: C_23  and  N_25
REMARK   11  A    between atoms: C_26  and  C_28
REMARK   12  A    between atoms: C_28  and  O_29
REMARK   13  A    between atoms: O_29  and  C_30
REMARK   14  A    between atoms: C_33  and  C_36
REMARK   15  A    between atoms: C_36  and  C_37
REMARK   16  A    between atoms: C_36  and  C_38
REMARK   17  A    between atoms: C_36  and  C_39
REMARK   18  A    between atoms: C_39  and  C_40
REMARK                            x       y       z     vdW  Elec       q    Type
REMARK                         _______ _______ _______ _____ _____    ______ ____
ROOT
ATOM      1  C   UNL     1       6.347   6.038  -0.029  0.00  0.00    +0.093 C 
ATOM      2  C   UNL     1       6.879   6.117   1.404  0.00  0.00    +0.024 C 
ATOM      3  C   UNL     1       5.953   6.997   2.245  0.00  0.00    +0.002 C 
ATOM      4  C   UNL     1       5.901   8.403   1.643  0.00  0.00    +0.002 C 
ATOM      5  C   UNL     1       5.369   8.325   0.210  0.00  0.00    +0.024 C 
ATOM      6  C   UNL     1       6.295   7.444  -0.631  0.00  0.00    +0.093 C 
ENDROOT
BRANCH   1   9
ATOM      7  C   UNL     1       4.841   4.123  -0.024  0.00  0.00    +0.251 C 
ATOM      8  O   UNL     1       5.812   3.397  -0.037  0.00  0.00    -0.272 OA
ATOM      9  N   UNL     1       5.000   5.461  -0.018  0.00  0.00    -0.308 N 
ATOM     10  H   UNL     1       4.120   6.120  -0.006  0.00  0.00    +0.149 HD
BRANCH   7  11
ATOM     11  C   UNL     1       3.456   3.530  -0.013  0.00  0.00    +0.324 C 
BRANCH  11  12
ATOM     12  O   UNL     1       3.548   2.104  -0.021  0.00  0.00    -0.483 OA
BRANCH  12  16
ATOM     13  C   UNL     1       0.002  -0.004   0.002  0.00  0.00    -0.042 A 
ATOM     14  C   UNL     1      -0.017   1.378   0.010  0.00  0.00    +0.008 A 
ATOM     15  C   UNL     1       1.169   2.087   0.002  0.00  0.00    +0.046 A 
ATOM     16  C   UNL     1       2.380   1.409  -0.013  0.00  0.00    +0.121 A 
ATOM     17  C   UNL     1       2.396   0.022  -0.020  0.00  0.00    +0.046 A 
ATOM     18  C   UNL     1       1.207  -0.681  -0.013  0.00  0.00    +0.008 A 
BRANCH  13  19
ATOM     19  C   UNL     1      -1.293  -0.774   0.010  0.00  0.00    -0.010 C 
ATOM     20  C   UNL     1      -2.088  -0.421   1.269  0.00  0.00    +0.016 C 
ATOM     21  C   UNL     1      -2.112  -0.408  -1.229  0.00  0.00    +0.016 C 
BRANCH  19  23
ATOM     22  C   UNL     1      -2.310  -3.056   0.008  0.00  0.00    +0.005 C 
ATOM     23  C   UNL     1      -0.995  -2.275  -0.001  0.00  0.00    +0.007 C 
ENDBRANCH  19  23
ENDBRANCH  13  19
ENDBRANCH  12  16
ENDBRANCH  11  12
ENDBRANCH   7  11
ENDBRANCH   1   9
BRANCH   6  24
ATOM     24  N   UNL     1       5.785   7.369  -2.002  0.00  0.00    -0.308 N 
ATOM     25  C   UNL     1       6.103   8.330  -2.893  0.00  0.00    +0.251 C 
ATOM     26  O   UNL     1       6.811   9.256  -2.558  0.00  0.00    -0.272 OA
ATOM     27  H   UNL     1       5.143   6.529  -2.305  0.00  0.00    +0.149 HD
BRANCH  25  28
ATOM     28  C   UNL     1       5.579   8.253  -4.303  0.00  0.00    +0.324 C 
BRANCH  28  29
ATOM     29  O   UNL     1       6.051   9.377  -5.049  0.00  0.00    -0.483 OA
BRANCH  29  30
ATOM     30  C   UNL     1       5.667   9.460  -6.350  0.00  0.00    +0.121 A 
ATOM     31  C   UNL     1       4.856   8.477  -6.899  0.00  0.00    +0.046 A 
ATOM     32  C   UNL     1       4.463   8.566  -8.220  0.00  0.00    +0.008 A 
ATOM     33  C   UNL     1       4.884   9.629  -8.998  0.00  0.00    -0.042 A 
ATOM     34  C   UNL     1       5.696  10.607  -8.454  0.00  0.00    +0.008 A 
ATOM     35  C   UNL     1       6.088  10.525  -7.132  0.00  0.00    +0.046 A 
BRANCH  33  36
ATOM     36  C   UNL     1       4.457   9.721 -10.440  0.00  0.00    -0.010 C 
ATOM     37  C   UNL     1       3.673  11.017 -10.659  0.00  0.00    +0.016 C 
ATOM     38  C   UNL     1       5.695   9.716 -11.339  0.00  0.00    +0.016 C 
BRANCH  36  39
ATOM     39  C   UNL     1       3.570   8.524 -10.787  0.00  0.00    +0.007 C 
ATOM     40  C   UNL     1       3.138   8.617 -12.252  0.00  0.00    +0.005 C 
ENDBRANCH  36  39
ENDBRANCH  33  36
ENDBRANCH  29  30
ENDBRANCH  28  29
ENDBRANCH  25  28
ENDBRANCH   6  24
TORSDOF 12
