REMARK  Name = ZINC37358441
REMARK  7 active torsions:
REMARK  status: ('A' for Active; 'I' for Inactive)
REMARK    1  A    between atoms: C_1  and  C_2
REMARK    2  A    between atoms: C_2  and  C_3
REMARK    3  A    between atoms: C_2  and  C_4
REMARK    4  A    between atoms: C_4  and  N_5
REMARK    5  A    between atoms: C_8  and  C_23
REMARK    6  A    between atoms: C_10  and  N_22
REMARK    7  A    between atoms: N_11  and  C_15
REMARK                            x       y       z     vdW  Elec       q    Type
REMARK                         _______ _______ _______ _____ _____    ______ ____
ROOT
ATOM      1  N   UNL     1      -1.548  -1.905  -0.924  0.00  0.00    -0.313 N 
ATOM      2  C   UNL     1      -2.675  -2.647  -0.620  0.00  0.00    +0.218 A 
ATOM      3  N   UNL     1      -2.619  -3.967  -0.774  0.00  0.00    -0.214 NA
ATOM      4  C   UNL     1      -3.653  -4.753  -0.506  0.00  0.00    +0.089 A 
ATOM      5  C   UNL     1      -4.846  -4.155  -0.042  0.00  0.00    +0.086 A 
ATOM      6  C   UNL     1      -6.104  -4.607   0.336  0.00  0.00    +0.131 A 
ATOM      7  N   UNL     1      -6.832  -3.530   0.692  0.00  0.00    -0.216 N 
ATOM      8  N   UNL     1      -6.063  -2.369   0.551  0.00  0.00    -0.144 NA
ATOM      9  C   UNL     1      -4.865  -2.689   0.115  0.00  0.00    +0.189 A 
ATOM     10  N   UNL     1      -3.743  -2.009  -0.189  0.00  0.00    -0.193 NA
ATOM     11  H   UNL     1      -0.746  -2.349  -1.244  0.00  0.00    +0.149 HD
ENDROOT
BRANCH   7  12
ATOM     12  C   UNL     1      -8.160  -3.567   1.135  0.00  0.00    +0.068 A 
ATOM     13  C   UNL     1      -9.042  -4.502   0.611  0.00  0.00    +0.029 A 
ATOM     14  C   UNL     1     -10.351  -4.536   1.050  0.00  0.00    +0.022 A 
ATOM     15  C   UNL     1     -10.784  -3.640   2.011  0.00  0.00    +0.041 A 
ATOM     16  C   UNL     1      -9.906  -2.707   2.535  0.00  0.00    +0.022 A 
ATOM     17  C   UNL     1      -8.595  -2.672   2.104  0.00  0.00    +0.029 A 
ATOM     18 CL   UNL     1     -12.430  -3.685   2.560  0.00  0.00    -0.084 Cl
ENDBRANCH   7  12
BRANCH   4  19
ATOM     19  C   UNL     1      -3.560  -6.220  -0.688  0.00  0.00    +0.003 A 
ATOM     20  C   UNL     1      -4.580  -6.910  -1.341  0.00  0.00    +0.010 A 
ATOM     21  C   UNL     1      -4.488  -8.277  -1.509  0.00  0.00    +0.002 A 
ATOM     22  C   UNL     1      -3.386  -8.963  -1.030  0.00  0.00    +0.020 A 
ATOM     23  C   UNL     1      -2.370  -8.283  -0.379  0.00  0.00    +0.042 A 
ATOM     24  C   UNL     1      -2.448  -6.915  -0.211  0.00  0.00    +0.030 A 
ATOM     25 CL   UNL     1      -0.992  -9.153   0.220  0.00  0.00    -0.084 Cl
ENDBRANCH   4  19
BRANCH   6  26
ATOM     26  N   UNL     1      -6.532  -5.921   0.346  0.00  0.00    -0.342 N 
ATOM     27  H   UNL     1      -5.893  -6.640   0.220  0.00  0.00    +0.144 HD
ATOM     28  H   UNL     1      -7.471  -6.125   0.478  0.00  0.00    +0.144 HD
ENDBRANCH   6  26
BRANCH   1  29
ATOM     29  C   UNL     1      -1.564  -0.449  -0.763  0.00  0.00    +0.107 C 
BRANCH  29  31
ATOM     30  C   UNL     1      -0.259   1.652  -1.116  0.00  0.00    +0.009 C 
ATOM     31  C   UNL     1      -0.203   0.124  -1.165  0.00  0.00    -0.000 C 
ATOM     32  C   UNL     1       0.868  -0.379  -0.195  0.00  0.00    +0.009 C 
ENDBRANCH  29  31
ENDBRANCH   1  29
TORSDOF 5
