REMARK  Name = ZINC21500313
REMARK  5 active torsions:
REMARK  status: ('A' for Active; 'I' for Inactive)
REMARK    1  A    between atoms: C_1  and  C_2
REMARK    2  A    between atoms: C_2  and  C_4
REMARK    3  A    between atoms: C_2  and  S_20
REMARK    4  A    between atoms: N_9  and  C_10
REMARK    5  A    between atoms: S_20  and  C_21
REMARK                            x       y       z     vdW  Elec       q    Type
REMARK                         _______ _______ _______ _____ _____    ______ ____
ROOT
ATOM      1  C   UNL     1      -1.613   5.077   2.768  0.00  0.00    +0.233 C 
ATOM      2  O   UNL     1      -1.171   5.875   1.970  0.00  0.00    -0.274 OA
ATOM      3  N   UNL     1      -1.474   3.755   2.546  0.00  0.00    -0.239 N 
ATOM      4  C   UNL     1      -0.843   3.320   1.438  0.00  0.00    +0.306 C 
ATOM      5  O   UNL     1      -0.400   4.121   0.637  0.00  0.00    -0.252 OA
ATOM      6  N   UNL     1      -0.704   1.998   1.216  0.00  0.00    -0.294 N 
ATOM      7  H   UNL     1      -1.876   3.031   3.270  0.00  0.00    +0.159 HD
ATOM      8  H   UNL     1      -1.106   1.274   1.940  0.00  0.00    +0.151 HD
ENDROOT
BRANCH   6   9
ATOM      9  C   UNL     1      -0.019   1.526   0.010  0.00  0.00    +0.037 C 
ATOM     10  C   UNL     1       1.417   2.055  -0.000  0.00  0.00    +0.029 C 
ATOM     11  C   UNL     1       2.133   1.562  -1.259  0.00  0.00    -0.008 C 
ATOM     12  C   UNL     1       2.154   0.032  -1.268  0.00  0.00    +0.007 C 
ATOM     13  C   UNL     1       0.718  -0.497  -1.257  0.00  0.00    -0.008 C 
ATOM     14  C   UNL     1       0.002  -0.004   0.002  0.00  0.00    +0.029 C 
ATOM     15  C   UNL     1      -0.022   0.009  -2.496  0.00  0.00    +0.007 C 
ATOM     16  C   UNL     1      -0.043   1.539  -2.488  0.00  0.00    -0.008 C 
ATOM     17  C   UNL     1       1.393   2.069  -2.499  0.00  0.00    +0.007 C 
ATOM     18  C   UNL     1      -0.759   2.033  -1.229  0.00  0.00    +0.029 C 
ENDBRANCH   6   9
BRANCH   1  20
ATOM     19  C   UNL     1      -3.832   5.478   3.800  0.00  0.00    +0.029 C 
ATOM     20  C   UNL     1      -2.319   5.563   4.008  0.00  0.00    +0.137 C 
BRANCH  20  21
ATOM     21  S   UNL     1      -1.850   7.285   4.335  0.00  0.00    -0.073 S 
BRANCH  21  22
ATOM     22  C   UNL     1      -2.626   7.653   5.873  0.00  0.00    +0.197 A 
ATOM     23  N   UNL     1      -3.373   6.838   6.583  0.00  0.00    -0.122 NA
ATOM     24  N   UNL     1      -3.779   7.424   7.654  0.00  0.00    -0.127 NA
ATOM     25  C   UNL     1      -3.320   8.662   7.685  0.00  0.00    +0.180 A 
ATOM     26  N   UNL     1      -2.569   8.839   6.543  0.00  0.00    -0.275 N 
ATOM     27  C   UNL     1      -1.958  10.038   6.295  0.00  0.00    +0.115 A 
ATOM     28  C   UNL     1      -2.083  11.062   7.165  0.00  0.00    +0.059 A 
ATOM     29  C   UNL     1      -2.843  10.910   8.340  0.00  0.00    +0.045 A 
ATOM     30  C   UNL     1      -3.457   9.725   8.601  0.00  0.00    +0.087 A 
ATOM     31 CL   UNL     1      -4.398   9.524  10.046  0.00  0.00    -0.080 Cl
ATOM     32 CL   UNL     1      -1.300  12.575   6.833  0.00  0.00    -0.082 Cl
ENDBRANCH  21  22
ENDBRANCH  20  21
ENDBRANCH   1  20
TORSDOF 4
