REMARK  Name = ZINC00970292
REMARK  11 active torsions:
REMARK  status: ('A' for Active; 'I' for Inactive)
REMARK    1  A    between atoms: C_1  and  C_2
REMARK    2  A    between atoms: C_2  and  O_3
REMARK    3  A    between atoms: O_3  and  C_4
REMARK    4  A    between atoms: C_5  and  O_31
REMARK    5  A    between atoms: C_7  and  C_12
REMARK    6  A    between atoms: C_9  and  O_10
REMARK    7  A    between atoms: O_10  and  C_11
REMARK    8  A    between atoms: C_15  and  C_26
REMARK    9  A    between atoms: C_21  and  N_25
REMARK   10  A    between atoms: C_22  and  C_23
REMARK   11  A    between atoms: O_31  and  C_32
REMARK                            x       y       z     vdW  Elec       q    Type
REMARK                         _______ _______ _______ _____ _____    ______ ____
ROOT
ATOM      1  C   UNL     1       1.145  -6.067   1.766  0.00  0.00    +0.102 C 
ATOM      2  C   UNL     1       2.417  -6.397   2.503  0.00  0.00    +0.055 A 
ATOM      3  C   UNL     1       2.730  -6.215   3.856  0.00  0.00    +0.107 A 
ATOM      4  N   UNL     1       3.962  -6.651   4.049  0.00  0.00    -0.170 NA
ATOM      5  N   UNL     1       4.462  -7.120   2.824  0.00  0.00    -0.246 N 
ATOM      6  H   UNL     1       5.344  -7.495   2.675  0.00  0.00    +0.192 HD
ATOM      7  C   UNL     1       3.501  -6.957   1.891  0.00  0.00    +0.223 A 
ATOM      8  O   UNL     1       3.518  -7.263   0.570  0.00  0.00    -0.423 OA
ATOM      9  C   UNL     1       2.341  -7.258  -0.088  0.00  0.00    +0.200 C 
ATOM     10  C   UNL     1       1.202  -6.724   0.410  0.00  0.00    +0.098 C 
ENDROOT
BRANCH   1  14
ATOM     11  C   UNL     1       0.802  -1.826   1.306  0.00  0.00    +0.204 A 
ATOM     12  C   UNL     1      -0.180  -2.535   1.987  0.00  0.00    +0.165 A 
ATOM     13  C   UNL     1      -0.066  -3.909   2.134  0.00  0.00    +0.054 A 
ATOM     14  C   UNL     1       1.024  -4.574   1.604  0.00  0.00    -0.027 A 
ATOM     15  C   UNL     1       2.004  -3.873   0.926  0.00  0.00    +0.054 A 
ATOM     16  C   UNL     1       1.893  -2.499   0.770  0.00  0.00    +0.165 A 
BRANCH  16  17
ATOM     17  O   UNL     1       2.855  -1.811   0.098  0.00  0.00    -0.491 OA
ATOM     18  C   UNL     1       3.948  -2.568  -0.427  0.00  0.00    +0.277 C 
ENDBRANCH  16  17
BRANCH  12  19
ATOM     19  O   UNL     1      -1.253  -1.881   2.509  0.00  0.00    -0.491 OA
ATOM     20  C   UNL     1      -2.224  -2.674   3.196  0.00  0.00    +0.277 C 
ENDBRANCH  12  19
BRANCH  11  21
ATOM     21  O   UNL     1       0.693  -0.477   1.160  0.00  0.00    -0.485 OA
BRANCH  21  23
ATOM     22  C   UNL     1      -0.019   1.526   0.010  0.00  0.00    +0.048 C 
ATOM     23  C   UNL     1       0.002  -0.004   0.002  0.00  0.00    +0.226 C 
ENDBRANCH  21  23
ENDBRANCH  11  21
ENDBRANCH   1  14
BRANCH   3  24
ATOM     24  C   UNL     1       1.839  -5.638   4.886  0.00  0.00    +0.040 A 
ATOM     25  C   UNL     1       1.729  -5.962   6.211  0.00  0.00    +0.018 A 
ATOM     26  C   UNL     1       0.817  -5.280   6.987  0.00  0.00    +0.008 A 
ATOM     27  C   UNL     1       0.056  -4.311   6.415  0.00  0.00    +0.046 A 
ATOM     28  S   UNL     1       0.630  -4.334   4.725  0.00  0.00    -0.095 S 
ENDBRANCH   3  24
BRANCH   9  29
ATOM     29  N   UNL     1       2.295  -7.829  -1.336  0.00  0.00    -0.328 N 
ATOM     30  H   UNL     1       3.095  -8.221  -1.719  0.00  0.00    +0.145 HD
ATOM     31  H   UNL     1       1.462  -7.840  -1.833  0.00  0.00    +0.145 HD
ENDBRANCH   9  29
BRANCH  10  32
ATOM     32  C   UNL     1       0.008  -6.782  -0.379  0.00  0.00    +0.101 C 
ATOM     33  N   UNL     1      -0.939  -6.829  -1.005  0.00  0.00    -0.191 NA
ENDBRANCH  10  32
TORSDOF 8
