REMARK  Name = ZINC09696032
REMARK  10 active torsions:
REMARK  status: ('A' for Active; 'I' for Inactive)
REMARK    1  A    between atoms: C_1  and  O_2
REMARK    2  A    between atoms: O_2  and  C_3
REMARK    3  A    between atoms: C_8  and  C_9
REMARK    4  A    between atoms: N_11  and  C_12
REMARK    5  A    between atoms: C_12  and  N_14
REMARK    6  A    between atoms: C_20  and  C_22
REMARK    7  A    between atoms: C_22  and  C_23
REMARK    8  A    between atoms: C_23  and  O_25
REMARK    9  A    between atoms: O_25  and  C_26
REMARK   10  A    between atoms: C_26  and  C_27
REMARK                            x       y       z     vdW  Elec       q    Type
REMARK                         _______ _______ _______ _____ _____    ______ ____
ROOT
ATOM      1  N   UNL     1      -3.574   7.402  -0.034  0.00  0.00    -0.299 N 
ATOM      2  C   UNL     1      -2.426   8.311  -0.194  0.00  0.00    +0.126 C 
ATOM      3  C   UNL     1      -2.567   9.026  -1.539  0.00  0.00    +0.123 C 
ATOM      4  N   UNL     1      -3.921   9.530  -1.717  0.00  0.00    -0.312 N 
ATOM      5  C   UNL     1      -4.993   9.062  -1.075  0.00  0.00    +0.234 C 
ATOM      6  O   UNL     1      -6.082   9.510  -1.367  0.00  0.00    -0.274 OA
ATOM      7  C   UNL     1      -4.914   8.006  -0.012  0.00  0.00    +0.171 C 
ATOM      8  H   UNL     1      -4.053  10.256  -2.346  0.00  0.00    +0.149 HD
ENDROOT
BRANCH   1   9
ATOM      9  C   UNL     1      -3.402   6.071   0.083  0.00  0.00    +0.140 C 
ATOM     10  S   UNL     1      -1.824   5.416   0.185  0.00  0.00    -0.018 S 
BRANCH   9  13
ATOM     11  C   UNL     1      -4.303   3.917   0.129  0.00  0.00    +0.253 C 
ATOM     12  O   UNL     1      -3.181   3.448   0.106  0.00  0.00    -0.270 OA
ATOM     13  N   UNL     1      -4.474   5.254   0.118  0.00  0.00    -0.264 N 
ATOM     14  H   UNL     1      -5.369   5.628   0.136  0.00  0.00    +0.157 HD
BRANCH  11  20
ATOM     15  C   UNL     1      -5.301   1.633   0.184  0.00  0.00    +0.132 A 
ATOM     16  C   UNL     1      -6.411   0.802   0.215  0.00  0.00    +0.047 A 
ATOM     17  C   UNL     1      -7.681   1.343   0.240  0.00  0.00    +0.019 A 
ATOM     18  C   UNL     1      -7.858   2.718   0.229  0.00  0.00    +0.019 A 
ATOM     19  C   UNL     1      -6.766   3.559   0.193  0.00  0.00    +0.032 A 
ATOM     20  C   UNL     1      -5.475   3.024   0.167  0.00  0.00    +0.080 A 
ATOM     21 BR   UNL     1      -9.604   3.443   0.263  0.00  0.00    -0.050 Br
BRANCH  15  23
ATOM     22  C   UNL     1      -3.954  -0.323   0.179  0.00  0.00    +0.277 C 
ATOM     23  O   UNL     1      -4.053   1.102   0.165  0.00  0.00    -0.494 OA
ENDBRANCH  15  23
ENDBRANCH  11  20
ENDBRANCH   9  13
ENDBRANCH   1   9
BRANCH   7  24
ATOM     24  C   UNL     1      -5.168   8.642   1.356  0.00  0.00    +0.152 C 
BRANCH  24  25
ATOM     25  C   UNL     1      -5.229   7.564   2.407  0.00  0.00    +0.309 C 
ATOM     26  O   UNL     1      -5.210   6.400   2.081  0.00  0.00    -0.251 OA
BRANCH  25  27
ATOM     27  O   UNL     1      -5.304   7.896   3.706  0.00  0.00    -0.462 OA
BRANCH  27  28
ATOM     28  C   UNL     1      -5.359   6.805   4.663  0.00  0.00    +0.263 C 
BRANCH  28  29
ATOM     29  C   UNL     1      -5.441   7.375   6.080  0.00  0.00    +0.156 C 
ATOM     30  C   UNL     1      -5.592   6.229   7.112  0.00  0.00    +0.037 C 
ATOM     31  C   UNL     1      -5.015   6.904   8.388  0.00  0.00    +0.031 C 
ATOM     32  C   UNL     1      -3.909   7.811   7.808  0.00  0.00    +0.160 C 
ATOM     33  O   UNL     1      -4.211   8.033   6.425  0.00  0.00    -0.373 OA
ENDBRANCH  28  29
ENDBRANCH  27  28
ENDBRANCH  25  27
ENDBRANCH  24  25
ENDBRANCH   7  24
TORSDOF 9
