REMARK  Name = ZINC61719509
REMARK  9 active torsions:
REMARK  status: ('A' for Active; 'I' for Inactive)
REMARK    1  A    between atoms: C_1  and  C_2
REMARK    2  A    between atoms: C_2  and  C_3
REMARK    3  A    between atoms: C_3  and  C_5
REMARK    4  A    between atoms: C_3  and  N_6
REMARK    5  A    between atoms: C_7  and  C_30
REMARK    6  A    between atoms: C_8  and  C_12
REMARK    7  A    between atoms: C_9  and  C_11
REMARK    8  A    between atoms: C_14  and  C_18
REMARK    9  A    between atoms: C_21  and  C_26
REMARK                            x       y       z     vdW  Elec       q    Type
REMARK                         _______ _______ _______ _____ _____    ______ ____
ROOT
ATOM      1  C   UNL     1       0.113  -5.099  -3.040  0.00  0.00    +0.097 A 
ATOM      2  C   UNL     1       1.004  -6.142  -3.340  0.00  0.00    +0.060 A 
ATOM      3  C   UNL     1       0.390  -6.969  -4.238  0.00  0.00    +0.093 A 
ATOM      4  N   UNL     1      -0.849  -6.454  -4.489  0.00  0.00    -0.274 N 
ATOM      5  H   UNL     1      -1.512  -6.829  -5.090  0.00  0.00    +0.189 HD
ATOM      6  N   UNL     1      -0.995  -5.291  -3.723  0.00  0.00    -0.173 NA
ENDROOT
BRANCH   3   7
ATOM      7  C   UNL     1       0.962  -8.194  -4.828  0.00  0.00    +0.150 A 
ATOM      8  N   UNL     1       2.136  -8.736  -4.622  0.00  0.00    -0.154 NA
ATOM      9  N   UNL     1       2.512  -9.905  -5.271  0.00  0.00    -0.182 N 
ATOM     10  C   UNL     1       3.585 -10.770  -5.347  0.00  0.00    +0.259 A 
ATOM     11  N   UNL     1       3.278 -11.720  -6.185  0.00  0.00    -0.122 NA
ATOM     12  N   UNL     1       2.093 -11.531  -6.652  0.00  0.00    -0.120 NA
ATOM     13  C   UNL     1       1.591 -10.452  -6.131  0.00  0.00    +0.219 A 
ATOM     14  S   UNL     1       0.228  -9.323  -6.002  0.00  0.00    -0.025 S 
BRANCH  10  15
ATOM     15  C   UNL     1       4.883 -10.638  -4.594  0.00  0.00    +0.454 C 
ATOM     16  F   UNL     1       5.842 -11.481  -5.167  0.00  0.00    -0.163 F 
ATOM     17  F   UNL     1       5.328  -9.313  -4.658  0.00  0.00    -0.163 F 
ATOM     18  F   UNL     1       4.685 -10.999  -3.257  0.00  0.00    -0.163 F 
ENDBRANCH  10  15
ENDBRANCH   3   7
BRANCH   1  21
ATOM     19  N   UNL     1       0.502  -1.965  -1.246  0.00  0.00    -0.265 N 
ATOM     20  C   UNL     1       0.125  -2.655  -2.342  0.00  0.00    +0.046 A 
ATOM     21  C   UNL     1       0.375  -3.975  -2.105  0.00  0.00    +0.045 A 
ATOM     22  C   UNL     1       0.925  -4.078  -0.812  0.00  0.00    +0.069 A 
ATOM     23  N   UNL     1       1.004  -2.875  -0.307  0.00  0.00    -0.175 NA
ATOM     24  C   UNL     1       1.353  -5.353  -0.133  0.00  0.00    +0.068 C 
ATOM     25  C   UNL     1      -0.466  -2.074  -3.600  0.00  0.00    +0.066 C 
BRANCH  19  26
ATOM     26  C   UNL     1       0.409  -0.514  -1.070  0.00  0.00    +0.104 C 
ATOM     27  C   UNL     1       1.807   0.062  -0.833  0.00  0.00    +0.032 C 
BRANCH  26  29
ATOM     28  C   UNL     1      -0.680   1.312   0.242  0.00  0.00    +0.006 C 
ATOM     29  C   UNL     1      -0.482  -0.202   0.133  0.00  0.00    +0.023 C 
ENDBRANCH  26  29
ENDBRANCH  19  26
ENDBRANCH   1  21
TORSDOF 5
