REMARK  Name = ZINC09308017
REMARK  7 active torsions:
REMARK  status: ('A' for Active; 'I' for Inactive)
REMARK    1  A    between atoms: C_1  and  C_2
REMARK    2  A    between atoms: C_9  and  N_34
REMARK    3  A    between atoms: C_10  and  C_30
REMARK    4  A    between atoms: N_18  and  C_21
REMARK    5  A    between atoms: C_21  and  C_22
REMARK    6  A    between atoms: C_30  and  O_32
REMARK    7  A    between atoms: O_32  and  C_33
REMARK                            x       y       z     vdW  Elec       q    Type
REMARK                         _______ _______ _______ _____ _____    ______ ____
ROOT
ATOM      1  C   UNL     1       0.527   1.371   0.149  0.00  0.00    +0.068 C 
ATOM      2  C   UNL     1       0.299  -0.117   0.077  0.00  0.00    +0.068 A 
ATOM      3  C   UNL     1       0.172  -0.866  -1.085  0.00  0.00    +0.061 A 
ATOM      4  C   UNL     1      -0.022  -2.173  -0.727  0.00  0.00    +0.223 A 
ATOM      5  N   UNL     1      -0.016  -2.230   0.614  0.00  0.00    -0.246 N 
ATOM      6  H   UNL     1      -0.132  -3.029   1.152  0.00  0.00    +0.192 HD
ATOM      7  N   UNL     1       0.193  -0.930   1.100  0.00  0.00    -0.176 NA
ATOM      8  O   UNL     1      -0.182  -3.164  -1.638  0.00  0.00    -0.424 OA
ATOM      9  C   UNL     1       0.116  -2.895  -2.924  0.00  0.00    +0.198 C 
ATOM     10  C   UNL     1       0.319  -1.641  -3.402  0.00  0.00    +0.117 C 
ATOM     11  C   UNL     1       0.221  -0.426  -2.521  0.00  0.00    +0.142 C 
ATOM     12  C   UNL     1      -0.967   0.409  -2.875  0.00  0.00    -0.002 A 
ATOM     13  C   UNL     1      -2.316   0.130  -2.869  0.00  0.00    +0.007 A 
ATOM     14  C   UNL     1      -3.174   1.152  -3.262  0.00  0.00    +0.000 A 
ATOM     15  C   UNL     1      -2.692   2.389  -3.640  0.00  0.00    +0.002 A 
ATOM     16  C   UNL     1      -1.336   2.677  -3.650  0.00  0.00    +0.024 A 
ATOM     17  C   UNL     1      -0.465   1.660  -3.257  0.00  0.00    +0.041 A 
ATOM     18  N   UNL     1       0.917   1.669  -3.175  0.00  0.00    -0.265 N 
ATOM     19  C   UNL     1       1.407   0.485  -2.752  0.00  0.00    +0.240 C 
ATOM     20  O   UNL     1       2.575   0.204  -2.587  0.00  0.00    -0.274 OA
ENDROOT
BRANCH   9  21
ATOM     21  N   UNL     1       0.222  -3.945  -3.796  0.00  0.00    -0.329 N 
ATOM     22  H   UNL     1       0.170  -4.856  -3.467  0.00  0.00    +0.145 HD
ATOM     23  H   UNL     1       0.349  -3.777  -4.743  0.00  0.00    +0.145 HD
ENDBRANCH   9  21
BRANCH  10  24
ATOM     24  C   UNL     1       0.627  -1.473  -4.760  0.00  0.00    +0.341 C 
ATOM     25  O   UNL     1      -0.239  -1.125  -5.543  0.00  0.00    -0.245 OA
BRANCH  24  26
ATOM     26  O   UNL     1       1.885  -1.698  -5.199  0.00  0.00    -0.465 OA
ATOM     27  C   UNL     1       2.128  -1.508  -6.595  0.00  0.00    +0.280 C 
ENDBRANCH  24  26
ENDBRANCH  10  24
BRANCH  18  28
ATOM     28  C   UNL     1       1.749   2.828  -3.507  0.00  0.00    +0.153 C 
BRANCH  28  29
ATOM     29  C   UNL     1       1.951   3.672  -2.274  0.00  0.00    +0.024 A 
ATOM     30  C   UNL     1       1.056   4.685  -1.974  0.00  0.00    +0.129 A 
ATOM     31  C   UNL     1       1.242   5.459  -0.842  0.00  0.00    +0.039 A 
ATOM     32  C   UNL     1       2.321   5.220  -0.011  0.00  0.00    +0.004 A 
ATOM     33  C   UNL     1       3.214   4.209  -0.310  0.00  0.00    +0.020 A 
ATOM     34  C   UNL     1       3.026   3.430  -1.439  0.00  0.00    +0.048 A 
ATOM     35 CL   UNL     1       4.144   2.155  -1.810  0.00  0.00    -0.083 Cl
ATOM     36  F   UNL     1       0.002   4.919  -2.787  0.00  0.00    -0.205 F 
ENDBRANCH  28  29
ENDBRANCH  18  28
TORSDOF 5
