REMARK  Name = ZINC22294459
REMARK  12 active torsions:
REMARK  status: ('A' for Active; 'I' for Inactive)
REMARK    1  A    between atoms: C_1  and  C_2
REMARK    2  A    between atoms: C_3  and  C_28
REMARK    3  A    between atoms: C_4  and  C_27
REMARK    4  A    between atoms: C_7  and  C_8
REMARK    5  A    between atoms: C_13  and  C_16
REMARK    6  A    between atoms: C_16  and  N_17
REMARK    7  A    between atoms: C_19  and  C_26
REMARK    8  A    between atoms: C_22  and  C_25
REMARK    9  A    between atoms: C_28  and  O_30
REMARK   10  A    between atoms: O_30  and  C_31
REMARK   11  A    between atoms: C_31  and  C_32
REMARK   12  A    between atoms: C_31  and  C_33
REMARK                            x       y       z     vdW  Elec       q    Type
REMARK                         _______ _______ _______ _____ _____    ______ ____
ROOT
ATOM      1  C   UNL     1       2.497   1.325  -0.015  0.00  0.00    +0.266 C 
ATOM      2  O   UNL     1       3.401   2.140  -0.020  0.00  0.00    -0.268 OA
ATOM      3  N   UNL     1       2.777   0.007  -0.025  0.00  0.00    -0.259 N 
ATOM      4  C   UNL     1       4.098  -0.422  -0.040  0.00  0.00    +0.165 A 
ATOM      5  N   UNL     1       4.569  -1.654  -0.051  0.00  0.00    -0.231 NA
ATOM      6  C   UNL     1       5.867  -1.889  -0.065  0.00  0.00    +0.034 A 
ATOM      7  C   UNL     1       6.715  -0.832  -0.068  0.00  0.00    +0.070 A 
ATOM      8  S   UNL     1       5.553   0.526  -0.057  0.00  0.00    -0.060 S 
ATOM      9  H   UNL     1       1.960  -0.729  -0.021  0.00  0.00    +0.157 HD
ENDROOT
BRANCH   1  16
ATOM     10  C   UNL     1       1.562   4.301   0.010  0.00  0.00    +0.047 C 
ATOM     11  C   UNL     1       0.684   3.077   0.012  0.00  0.00    -0.006 A 
ATOM     12  C   UNL     1      -0.730   3.056   0.025  0.00  0.00    +0.083 A 
ATOM     13  C   UNL     1      -1.116   1.728   0.016  0.00  0.00    +0.028 A 
ATOM     14  N   UNL     1      -0.011   0.966   0.007  0.00  0.00    -0.354 N 
ATOM     15  H   UNL     1      -0.099  -0.131   0.006  0.00  0.00    +0.166 HD
ATOM     16  C   UNL     1       1.101   1.779   0.001  0.00  0.00    +0.106 A 
ATOM     17  C   UNL     1      -2.536   1.223   0.019  0.00  0.00    +0.064 C 
BRANCH  12  18
ATOM     18  C   UNL     1      -1.622   4.227   0.040  0.00  0.00    +0.341 C 
ATOM     19  O   UNL     1      -2.001   4.716  -1.007  0.00  0.00    -0.245 OA
BRANCH  18  20
ATOM     20  O   UNL     1      -2.020   4.757   1.214  0.00  0.00    -0.458 OA
BRANCH  20  21
ATOM     21  C   UNL     1      -2.899   5.911   1.152  0.00  0.00    +0.171 C 
ATOM     22  C   UNL     1      -3.810   5.924   2.381  0.00  0.00    +0.052 C 
ATOM     23  C   UNL     1      -2.061   7.190   1.123  0.00  0.00    +0.052 C 
ENDBRANCH  20  21
ENDBRANCH  18  20
ENDBRANCH  12  18
ENDBRANCH   1  16
BRANCH   6  24
ATOM     24  C   UNL     1       6.394  -3.300  -0.078  0.00  0.00    -0.022 C 
BRANCH  24  25
ATOM     25  N   UNL     1       6.466  -3.808   1.299  0.00  0.00    +0.384 N 
ATOM     26  C   UNL     1       5.235  -3.500   2.038  0.00  0.00    -0.075 C 
ATOM     27  C   UNL     1       5.402  -3.912   3.503  0.00  0.00    -0.031 C 
ATOM     28  C   UNL     1       5.700  -5.412   3.575  0.00  0.00    +0.003 C 
ATOM     29  C   UNL     1       6.959  -5.714   2.757  0.00  0.00    -0.031 C 
ATOM     30  C   UNL     1       6.747  -5.249   1.314  0.00  0.00    -0.075 C 
ATOM     31  C   UNL     1       7.230  -7.220   2.774  0.00  0.00    +0.005 C 
ATOM     32  C   UNL     1       4.112  -3.610   4.269  0.00  0.00    +0.005 C 
ATOM     33  H   UNL     1       7.298  -3.299   1.806  0.00  0.00    -0.081 HD
ENDBRANCH  24  25
ENDBRANCH   6  24
TORSDOF 6
