REMARK  Name = ZINC08189705
REMARK  4 active torsions:
REMARK  status: ('A' for Active; 'I' for Inactive)
REMARK    1  A    between atoms: C_1  and  C_2
REMARK    2  A    between atoms: C_2  and  C_24
REMARK    3  A    between atoms: N_5  and  C_9
REMARK    4  A    between atoms: C_9  and  C_10
REMARK                            x       y       z     vdW  Elec       q    Type
REMARK                         _______ _______ _______ _____ _____    ______ ____
ROOT
ATOM      1  C   UNL     1     -10.712   3.497  -0.559  0.00  0.00    +0.047 C 
ATOM      2  C   UNL     1      -9.281   3.796  -0.108  0.00  0.00    +0.135 C 
ATOM      3  C   UNL     1      -8.309   2.811  -0.727  0.00  0.00    +0.251 C 
ATOM      4  O   UNL     1      -8.089   2.643  -1.907  0.00  0.00    -0.272 OA
ATOM      5  N   UNL     1      -7.739   2.162   0.308  0.00  0.00    -0.215 N 
ATOM      6  C   UNL     1      -8.215   2.593   1.482  0.00  0.00    +0.310 C 
ATOM      7  O   UNL     1      -7.856   2.155   2.558  0.00  0.00    -0.252 OA
ATOM      8  N   UNL     1      -9.132   3.567   1.339  0.00  0.00    -0.281 N 
ATOM      9  H   UNL     1      -9.605   4.025   2.051  0.00  0.00    +0.152 HD
ENDROOT
BRANCH   2  10
ATOM     10  C   UNL     1      -8.900   5.211  -0.462  0.00  0.00    -0.015 A 
ATOM     11  C   UNL     1      -8.254   5.465  -1.671  0.00  0.00    +0.007 A 
ATOM     12  C   UNL     1      -7.897   6.731  -2.022  0.00  0.00    +0.009 A 
ATOM     13  C   UNL     1      -8.182   7.799  -1.154  0.00  0.00    -0.018 A 
ATOM     14  C   UNL     1      -7.829   9.120  -1.482  0.00  0.00    +0.008 A 
ATOM     15  C   UNL     1      -8.121  10.129  -0.617  0.00  0.00    +0.001 A 
ATOM     16  C   UNL     1      -8.766   9.874   0.592  0.00  0.00    +0.001 A 
ATOM     17  C   UNL     1      -9.123   8.609   0.942  0.00  0.00    +0.008 A 
ATOM     18  C   UNL     1      -8.838   7.540   0.075  0.00  0.00    -0.018 A 
ATOM     19  C   UNL     1      -9.196   6.221   0.400  0.00  0.00    +0.014 A 
ENDBRANCH   2  10
BRANCH   5  20
ATOM     20  C   UNL     1      -6.729   1.111   0.164  0.00  0.00    +0.213 C 
BRANCH  20  21
ATOM     21  C   UNL     1      -5.356   1.732   0.165  0.00  0.00    +0.234 C 
ATOM     22  O   UNL     1      -5.233   2.933   0.274  0.00  0.00    -0.274 OA
ATOM     23  N   UNL     1      -4.264   0.951   0.043  0.00  0.00    -0.297 N 
ATOM     24  C   UNL     1      -4.392  -0.507  -0.089  0.00  0.00    +0.108 C 
ATOM     25  C   UNL     1      -3.636  -0.961  -1.342  0.00  0.00    +0.019 C 
ATOM     26  C   UNL     1      -2.192  -0.457  -1.276  0.00  0.00    +0.007 C 
ATOM     27  C   UNL     1      -2.189   1.071  -1.223  0.00  0.00    +0.010 C 
ATOM     28  C   UNL     1      -2.914   1.538   0.042  0.00  0.00    +0.079 C 
ATOM     29  C   UNL     1      -2.162   1.038   1.277  0.00  0.00    +0.023 C 
ATOM     30  C   UNL     1      -0.731   1.580   1.266  0.00  0.00    +0.002 C 
ATOM     31  C   UNL     1      -0.013   1.086   0.008  0.00  0.00    +0.000 C 
ATOM     32  C   UNL     1      -0.754   1.593  -1.230  0.00  0.00    +0.005 C 
ENDBRANCH  20  21
ENDBRANCH   5  20
TORSDOF 3
