REMARK  Name = ZINC43553416
REMARK  11 active torsions:
REMARK  status: ('A' for Active; 'I' for Inactive)
REMARK    1  A    between atoms: C_1  and  C_2
REMARK    2  A    between atoms: C_5  and  O_38
REMARK    3  A    between atoms: C_7  and  C_35
REMARK    4  A    between atoms: C_7  and  C_36
REMARK    5  A    between atoms: C_17  and  C_19
REMARK    6  A    between atoms: C_25  and  C_27
REMARK    7  A    between atoms: C_27  and  C_28
REMARK    8  A    between atoms: N_30  and  C_31
REMARK    9  A    between atoms: N_30  and  C_32
REMARK   10  A    between atoms: C_32  and  C_33
REMARK   11  A    between atoms: C_36  and  O_37
REMARK                            x       y       z     vdW  Elec       q    Type
REMARK                         _______ _______ _______ _____ _____    ______ ____
ROOT
ATOM      1  C   UNL     1       0.116   1.506  -0.019  0.00  0.00    +0.012 C 
ATOM      2  C   UNL     1       0.117  -0.030  -0.010  0.00  0.00    -0.019 C 
ATOM      3  C   UNL     1      -1.325  -0.518   0.066  0.00  0.00    +0.010 C 
ATOM      4  C   UNL     1      -1.977   0.039   1.333  0.00  0.00    +0.032 C 
ATOM      5  C   UNL     1      -1.232  -0.383   2.585  0.00  0.00    +0.123 C 
ATOM      6  C   UNL     1       0.274  -0.192   2.529  0.00  0.00    +0.021 C 
ATOM      7  C   UNL     1       0.891  -0.577   1.185  0.00  0.00    +0.011 C 
ATOM      8  C   UNL     1       0.935  -2.118   1.138  0.00  0.00    +0.049 C 
ATOM      9  C   UNL     1       1.032  -2.629  -0.253  0.00  0.00    +0.015 A 
ATOM     10  C   UNL     1       0.946  -1.924  -1.408  0.00  0.00    +0.058 A 
ATOM     11  N   UNL     1       1.041  -2.642  -2.520  0.00  0.00    -0.229 NA
ATOM     12  C   UNL     1       1.228  -3.944  -2.488  0.00  0.00    +0.165 A 
ATOM     13  S   UNL     1       1.286  -4.283  -0.838  0.00  0.00    -0.057 S 
ATOM     14  N   UNL     1       1.350  -4.825  -3.556  0.00  0.00    -0.264 N 
ATOM     15  C   UNL     1       1.541  -6.139  -3.327  0.00  0.00    +0.222 C 
ATOM     16  O   UNL     1       1.606  -6.553  -2.189  0.00  0.00    -0.275 OA
ATOM     17  C   UNL     1       0.783  -0.419  -1.333  0.00  0.00    +0.054 C 
ATOM     18  C   UNL     1       0.644   1.238   2.945  0.00  0.00    +0.016 C 
ATOM     19  H   UNL     1       1.298  -4.493  -4.466  0.00  0.00    +0.157 HD
ENDROOT
BRANCH  15  20
ATOM     20  C   UNL     1       1.673  -7.094  -4.486  0.00  0.00    +0.075 C 
ATOM     21  C   UNL     1       0.400  -7.047  -5.333  0.00  0.00    +0.013 C 
ATOM     22  C   UNL     1       0.534  -8.017  -6.509  0.00  0.00    +0.001 C 
ATOM     23  C   UNL     1       0.741  -9.437  -5.978  0.00  0.00    +0.000 C 
ATOM     24  C   UNL     1       2.014  -9.484  -5.130  0.00  0.00    +0.001 C 
ATOM     25  C   UNL     1       1.880  -8.514  -3.955  0.00  0.00    +0.013 C 
ENDBRANCH  15  20
BRANCH   5  26
ATOM     26  O   UNL     1      -1.545  -1.745   2.899  0.00  0.00    -0.391 OA
ATOM     27  H   UNL     1      -2.485  -1.906   3.061  0.00  0.00    +0.210 HD
ENDBRANCH   5  26
BRANCH  17  28
ATOM     28  C   UNL     1      -0.030   0.091  -2.518  0.00  0.00    +0.106 C 
BRANCH  28  29
ATOM     29  C   UNL     1       0.711  -0.200  -3.798  0.00  0.00    +0.216 C 
ATOM     30  O   UNL     1       1.785  -0.761  -3.762  0.00  0.00    -0.276 OA
ATOM     31  N   UNL     1       0.180   0.164  -4.982  0.00  0.00    -0.301 N 
ATOM     32  C   UNL     1      -1.118   0.842  -5.025  0.00  0.00    +0.132 C 
BRANCH  31  33
ATOM     33  C   UNL     1       0.900  -0.118  -6.226  0.00  0.00    +0.134 C 
BRANCH  33  34
ATOM     34  C   UNL     1       0.493  -1.473  -6.746  0.00  0.00    -0.016 C 
ATOM     35  C   UNL     1       0.031  -1.595  -7.965  0.00  0.00    +0.005 C 
ENDBRANCH  33  34
ENDBRANCH  31  33
ENDBRANCH  28  29
ENDBRANCH  17  28
BRANCH   6  36
ATOM     36  C   UNL     1       0.888  -1.105   3.624  0.00  0.00    +0.165 C 
BRANCH  36  37
ATOM     37  O   UNL     1       0.378  -0.724   4.903  0.00  0.00    -0.394 OA
ATOM     38  H   UNL     1       0.719  -1.253   5.636  0.00  0.00    +0.209 HD
ENDBRANCH  36  37
ENDBRANCH   6  36
TORSDOF 8
