REMARK  Name = ZINC04753725
REMARK  6 active torsions:
REMARK  status: ('A' for Active; 'I' for Inactive)
REMARK    1  A    between atoms: C_1  and  C_2
REMARK    2  A    between atoms: C_4  and  C_28
REMARK    3  A    between atoms: C_6  and  C_8
REMARK    4  A    between atoms: C_8  and  C_9
REMARK    5  A    between atoms: N_14  and  C_17
REMARK    6  A    between atoms: C_17  and  C_18
REMARK                            x       y       z     vdW  Elec       q    Type
REMARK                         _______ _______ _______ _____ _____    ______ ____
ROOT
ATOM      1  C   UNL     1       1.502  -3.083   2.922  0.00  0.00    +0.089 C 
ATOM      2  C   UNL     1       1.549  -3.798   4.287  0.00  0.00    +0.109 C 
ATOM      3  C   UNL     1       2.252  -5.102   3.981  0.00  0.00    +0.223 C 
ATOM      4  O   UNL     1       2.498  -5.974   4.787  0.00  0.00    -0.275 OA
ATOM      5  N   UNL     1       2.558  -5.142   2.678  0.00  0.00    -0.241 N 
ATOM      6  C   UNL     1       2.184  -4.056   1.984  0.00  0.00    +0.226 C 
ATOM      7  O   UNL     1       2.362  -3.880   0.798  0.00  0.00    -0.275 OA
ENDROOT
BRANCH   1   8
ATOM      8  C   UNL     1       0.054  -2.844   2.489  0.00  0.00    +0.048 C 
BRANCH   8  14
ATOM      9  C   UNL     1      -0.018   1.503   0.010  0.00  0.00    +0.044 C 
ATOM     10  C   UNL     1       0.002  -0.004   0.002  0.00  0.00    -0.050 A 
ATOM     11  C   UNL     1       0.006  -0.689  -1.199  0.00  0.00    +0.006 A 
ATOM     12  C   UNL     1       0.025  -2.071  -1.206  0.00  0.00    -0.050 A 
ATOM     13  C   UNL     1       0.040  -2.768  -0.013  0.00  0.00    +0.007 A 
ATOM     14  C   UNL     1       0.037  -2.084   1.188  0.00  0.00    -0.046 A 
ATOM     15  C   UNL     1       0.023  -0.702   1.195  0.00  0.00    +0.007 A 
ATOM     16  C   UNL     1       0.027  -2.817  -2.516  0.00  0.00    +0.044 C 
ENDBRANCH   8  14
ENDBRANCH   1   8
BRANCH   5  17
ATOM     17  C   UNL     1       3.248  -6.277   2.060  0.00  0.00    +0.123 C 
BRANCH  17  18
ATOM     18  C   UNL     1       2.216  -7.292   1.564  0.00  0.00    -0.012 C 
ATOM     19  C   UNL     1       1.378  -7.786   2.745  0.00  0.00    +0.012 C 
ATOM     20  C   UNL     1       0.346  -8.801   2.249  0.00  0.00    -0.010 C 
ATOM     21  C   UNL     1       1.066  -9.986   1.603  0.00  0.00    +0.007 C 
ATOM     22  C   UNL     1       1.904  -9.492   0.422  0.00  0.00    -0.010 C 
ATOM     23  C   UNL     1       2.936  -8.478   0.918  0.00  0.00    +0.012 C 
ATOM     24  C   UNL     1       0.990  -8.828  -0.609  0.00  0.00    +0.007 C 
ATOM     25  C   UNL     1       0.270  -7.642   0.036  0.00  0.00    -0.010 C 
ATOM     26  C   UNL     1      -0.568  -8.136   1.217  0.00  0.00    +0.007 C 
ATOM     27  C   UNL     1       1.302  -6.627   0.532  0.00  0.00    +0.012 C 
ENDBRANCH  17  18
ENDBRANCH   5  17
TORSDOF 4
