REMARK  Name = ZINC25612171
REMARK  3 active torsions:
REMARK  status: ('A' for Active; 'I' for Inactive)
REMARK    1  A    between atoms: C_1  and  C_2
REMARK    2  A    between atoms: C_14  and  C_15
REMARK    3  A    between atoms: N_17  and  N_18
REMARK                            x       y       z     vdW  Elec       q    Type
REMARK                         _______ _______ _______ _____ _____    ______ ____
ROOT
ATOM      1  C   UNL     1      -0.018   1.503   0.010  0.00  0.00    +0.048 C 
ATOM      2  C   UNL     1       0.002  -0.004   0.002  0.00  0.00    +0.008 A 
ATOM      3  C   UNL     1       0.008  -0.842  -1.141  0.00  0.00    +0.024 A 
ATOM      4  C   UNL     1      -0.002  -0.585  -2.528  0.00  0.00    +0.012 A 
ATOM      5  C   UNL     1       0.008  -1.601  -3.421  0.00  0.00    +0.009 A 
ATOM      6  C   UNL     1       0.028  -2.941  -2.977  0.00  0.00    -0.014 A 
ATOM      7  C   UNL     1       0.038  -4.004  -3.893  0.00  0.00    +0.008 A 
ATOM      8  C   UNL     1       0.058  -5.288  -3.439  0.00  0.00    +0.001 A 
ATOM      9  C   UNL     1       0.069  -5.565  -2.075  0.00  0.00    +0.001 A 
ATOM     10  C   UNL     1       0.059  -4.558  -1.157  0.00  0.00    +0.012 A 
ATOM     11  C   UNL     1       0.039  -3.224  -1.590  0.00  0.00    +0.025 A 
ATOM     12  C   UNL     1       0.029  -2.157  -0.664  0.00  0.00    +0.144 A 
ATOM     13  O   UNL     1       0.034  -2.106   0.680  0.00  0.00    -0.449 OA
ATOM     14  C   UNL     1       0.024  -0.819   1.089  0.00  0.00    +0.195 A 
ENDROOT
BRANCH  14  15
ATOM     15  C   UNL     1       0.031  -0.371   2.488  0.00  0.00    +0.296 C 
ATOM     16  O   UNL     1       0.017   0.817   2.746  0.00  0.00    -0.265 OA
ATOM     17  N   UNL     1       0.053  -1.278   3.485  0.00  0.00    -0.224 N 
ATOM     18  H   UNL     1       0.065  -2.225   3.280  0.00  0.00    +0.174 HD
BRANCH  17  19
ATOM     19  N   UNL     1       0.060  -0.851   4.820  0.00  0.00    -0.195 N 
ATOM     20  C   UNL     1       1.212  -0.852   5.738  0.00  0.00    +0.228 C 
ATOM     21  C   UNL     1       0.642  -0.290   7.025  0.00  0.00    +0.240 C 
ATOM     22  O   UNL     1       1.232  -0.106   8.069  0.00  0.00    -0.274 OA
ATOM     23  N   UNL     1      -0.657  -0.037   6.769  0.00  0.00    -0.237 N 
ATOM     24  C   UNL     1      -0.982  -0.354   5.510  0.00  0.00    +0.325 C 
ATOM     25  O   UNL     1      -2.095  -0.211   5.043  0.00  0.00    -0.251 OA
ATOM     26  H   UNL     1      -1.278   0.331   7.416  0.00  0.00    +0.159 HD
ENDBRANCH  17  19
ENDBRANCH  14  15
TORSDOF 2
