REMARK  Name = ZINC26777842
REMARK  7 active torsions:
REMARK  status: ('A' for Active; 'I' for Inactive)
REMARK    1  A    between atoms: C_1  and  C_2
REMARK    2  A    between atoms: C_2  and  C_4
REMARK    3  A    between atoms: C_2  and  N_11
REMARK    4  A    between atoms: C_12  and  C_14
REMARK    5  A    between atoms: C_14  and  N_15
REMARK    6  A    between atoms: C_18  and  C_22
REMARK    7  A    between atoms: C_18  and  C_23
REMARK                            x       y       z     vdW  Elec       q    Type
REMARK                         _______ _______ _______ _____ _____    ______ ____
ROOT
ATOM      1  N   UNL     1      -3.693   1.835  -1.442  0.00  0.00    -0.215 N 
ATOM      2  C   UNL     1      -3.283   2.809  -0.606  0.00  0.00    +0.251 C 
ATOM      3  O   UNL     1      -3.719   3.937  -0.526  0.00  0.00    -0.272 OA
ATOM      4  C   UNL     1      -2.162   2.201   0.213  0.00  0.00    +0.135 C 
ATOM      5  N   UNL     1      -2.060   0.824  -0.301  0.00  0.00    -0.281 N 
ATOM      6  C   UNL     1      -2.995   0.707  -1.266  0.00  0.00    +0.310 C 
ATOM      7  O   UNL     1      -3.182  -0.310  -1.904  0.00  0.00    -0.252 OA
ATOM      8  C   UNL     1      -2.523   2.195   1.700  0.00  0.00    +0.047 C 
ATOM      9  H   UNL     1      -1.314   0.134   0.119  0.00  0.00    +0.152 HD
ENDROOT
BRANCH   4  10
ATOM     10  C   UNL     1      -0.873   2.949  -0.015  0.00  0.00    -0.015 A 
ATOM     11  C   UNL     1      -0.898   4.307  -0.274  0.00  0.00    +0.006 A 
ATOM     12  C   UNL     1       0.284   4.989  -0.488  0.00  0.00    +0.004 A 
ATOM     13  C   UNL     1       1.494   4.318  -0.438  0.00  0.00    -0.044 A 
ATOM     14  C   UNL     1       1.519   2.962  -0.174  0.00  0.00    -0.044 A 
ATOM     15  C   UNL     1       0.334   2.280   0.041  0.00  0.00    +0.010 A 
ATOM     16  C   UNL     1       2.950   2.467  -0.174  0.00  0.00    +0.036 C 
ATOM     17  C   UNL     1       3.758   3.567  -0.895  0.00  0.00    +0.009 C 
ATOM     18  C   UNL     1       2.906   4.827  -0.635  0.00  0.00    +0.036 C 
ENDBRANCH   4  10
BRANCH   1  19
ATOM     19  C   UNL     1      -4.772   1.990  -2.420  0.00  0.00    +0.213 C 
BRANCH  19  21
ATOM     20  N   UNL     1      -5.012   2.694  -4.779  0.00  0.00    -0.307 N 
ATOM     21  C   UNL     1      -4.199   2.478  -3.726  0.00  0.00    +0.231 C 
ATOM     22  O   UNL     1      -3.007   2.676  -3.829  0.00  0.00    -0.274 OA
ATOM     23  H   UNL     1      -6.093   2.514  -4.686  0.00  0.00    +0.149 HD
BRANCH  20  25
ATOM     24  C   UNL     1      -4.008   1.971  -6.889  0.00  0.00    +0.033 C 
ATOM     25  C   UNL     1      -4.455   3.169  -6.049  0.00  0.00    +0.102 C 
BRANCH  25  26
ATOM     26  C   UNL     1      -5.506   3.945  -6.800  0.00  0.00    -0.009 A 
ATOM     27  C   UNL     1      -6.845   3.669  -6.597  0.00  0.00    +0.007 A 
ATOM     28  C   UNL     1      -7.810   4.384  -7.282  0.00  0.00    +0.000 A 
ATOM     29  C   UNL     1      -7.435   5.367  -8.179  0.00  0.00    +0.001 A 
ATOM     30  C   UNL     1      -6.096   5.640  -8.386  0.00  0.00    +0.020 A 
ATOM     31  C   UNL     1      -5.131   4.929  -7.697  0.00  0.00    +0.046 A 
ATOM     32 CL   UNL     1      -3.449   5.270  -7.957  0.00  0.00    -0.083 Cl
ENDBRANCH  25  26
ENDBRANCH  20  25
ENDBRANCH  19  21
ENDBRANCH   1  19
TORSDOF 5
