REMARK  Name = ZINC09923571
REMARK  9 active torsions:
REMARK  status: ('A' for Active; 'I' for Inactive)
REMARK    1  A    between atoms: C_1  and  N_2
REMARK    2  A    between atoms: N_2  and  C_3
REMARK    3  A    between atoms: N_2  and  C_4
REMARK    4  A    between atoms: C_7  and  C_13
REMARK    5  A    between atoms: C_9  and  N_10
REMARK    6  A    between atoms: C_13  and  O_15
REMARK    7  A    between atoms: O_15  and  C_16
REMARK    8  A    between atoms: C_16  and  C_17
REMARK    9  A    between atoms: N_19  and  C_20
REMARK                            x       y       z     vdW  Elec       q    Type
REMARK                         _______ _______ _______ _____ _____    ______ ____
ROOT
ATOM      1  O   UNL     1       2.466   0.562   2.620  0.00  0.00    -0.452 OA
ENDROOT
BRANCH   1   2
ATOM      2  C   UNL     1       1.351  -0.150   2.879  0.00  0.00    +0.340 C 
ATOM      3  O   UNL     1       0.790  -0.748   1.982  0.00  0.00    -0.245 OA
BRANCH   2   7
ATOM      4  C   UNL     1      -0.205  -0.286   6.821  0.00  0.00    +0.060 A 
ATOM      5  C   UNL     1       0.950   0.443   6.551  0.00  0.00    +0.026 A 
ATOM      6  C   UNL     1       1.456   0.484   5.283  0.00  0.00    +0.017 A 
ATOM      7  C   UNL     1       0.808  -0.198   4.248  0.00  0.00    +0.061 A 
ATOM      8  C   UNL     1      -0.352  -0.931   4.517  0.00  0.00    +0.049 A 
ATOM      9  C   UNL     1      -0.853  -0.973   5.798  0.00  0.00    +0.148 A 
BRANCH   4  11
ATOM     10  C   UNL     1       0.268  -0.902   9.046  0.00  0.00    +0.129 C 
ATOM     11  N   UNL     1      -0.712  -0.328   8.115  0.00  0.00    -0.334 N 
ATOM     12  C   UNL     1      -1.139   1.007   8.556  0.00  0.00    +0.129 C 
ENDBRANCH   4  11
BRANCH   9  13
ATOM     13  N   UNL     1      -2.081  -1.747   6.088  0.00  0.00    +0.058 N 
ATOM     14  O   UNL     1      -2.648  -2.348   5.193  0.00  0.00    -0.126 OA
ATOM     15  O   UNL     1      -2.524  -1.784   7.222  0.00  0.00    -0.126 OA
ENDBRANCH   9  13
ENDBRANCH   2   7
ENDBRANCH   1   2
BRANCH   1  16
ATOM     16  C   UNL     1       2.939   0.569   1.248  0.00  0.00    +0.328 C 
BRANCH  16  17
ATOM     17  C   UNL     1       4.186   1.410   1.151  0.00  0.00    +0.255 C 
ATOM     18  O   UNL     1       4.632   1.950   2.142  0.00  0.00    -0.272 OA
ATOM     19  N   UNL     1       4.806   1.562  -0.035  0.00  0.00    -0.280 N 
ATOM     20  H   UNL     1       4.494   1.073  -0.812  0.00  0.00    +0.155 HD
BRANCH  19  21
ATOM     21  C   UNL     1       5.902   2.427  -0.147  0.00  0.00    +0.073 A 
ATOM     22  C   UNL     1       5.704   3.767  -0.456  0.00  0.00    +0.082 A 
ATOM     23  C   UNL     1       6.788   4.619  -0.560  0.00  0.00    +0.063 A 
ATOM     24  C   UNL     1       8.071   4.136  -0.368  0.00  0.00    +0.043 A 
ATOM     25  C   UNL     1       8.272   2.801  -0.066  0.00  0.00    +0.063 A 
ATOM     26  C   UNL     1       7.191   1.945   0.045  0.00  0.00    +0.082 A 
ATOM     27 CL   UNL     1       7.445   0.270   0.425  0.00  0.00    -0.080 Cl
ATOM     28 CL   UNL     1       9.883   2.200   0.174  0.00  0.00    -0.082 Cl
ATOM     29 CL   UNL     1       6.540   6.295  -0.939  0.00  0.00    -0.082 Cl
ATOM     30 CL   UNL     1       4.096   4.372  -0.703  0.00  0.00    -0.080 Cl
ENDBRANCH  19  21
ENDBRANCH  16  17
ENDBRANCH   1  16
TORSDOF 7
