REMARK  Name = ZINC65734128
REMARK  8 active torsions:
REMARK  status: ('A' for Active; 'I' for Inactive)
REMARK    1  A    between atoms: C_1  and  C_2
REMARK    2  A    between atoms: C_5  and  O_32
REMARK    3  A    between atoms: C_16  and  O_31
REMARK    4  A    between atoms: C_19  and  C_30
REMARK    5  A    between atoms: C_24  and  C_25
REMARK    6  A    between atoms: C_24  and  O_29
REMARK    7  A    between atoms: C_25  and  C_27
REMARK    8  A    between atoms: C_27  and  O_28
REMARK                            x       y       z     vdW  Elec       q    Type
REMARK                         _______ _______ _______ _____ _____    ______ ____
ROOT
ATOM      1  C   UNL     1       0.511   2.241  -0.313  0.00  0.00    +0.012 C 
ATOM      2  C   UNL     1       0.330   0.723  -0.177  0.00  0.00    -0.024 C 
ATOM      3  C   UNL     1      -1.168   0.424  -0.071  0.00  0.00    +0.010 C 
ATOM      4  C   UNL     1      -1.766   1.108   1.158  0.00  0.00    +0.032 C 
ATOM      5  C   UNL     1      -1.061   0.625   2.425  0.00  0.00    +0.115 C 
ATOM      6  C   UNL     1       0.440   0.893   2.329  0.00  0.00    +0.035 C 
ATOM      7  C   UNL     1       1.017   0.220   1.085  0.00  0.00    -0.002 C 
ATOM      8  C   UNL     1       2.520   0.483   1.009  0.00  0.00    +0.004 C 
ATOM      9  C   UNL     1       3.074  -0.283  -0.188  0.00  0.00    +0.004 C 
ATOM     10  C   UNL     1       2.429   0.218  -1.492  0.00  0.00    -0.001 C 
ATOM     11  C   UNL     1       0.917   0.077  -1.438  0.00  0.00    +0.027 C 
ATOM     12  C   UNL     1       0.390  -1.323  -1.668  0.00  0.00    +0.119 C 
ATOM     13  C   UNL     1       1.121  -2.108  -2.768  0.00  0.00    +0.041 C 
ATOM     14  C   UNL     1       2.014  -1.198  -3.568  0.00  0.00    +0.009 C 
ATOM     15  C   UNL     1       3.049  -0.579  -2.609  0.00  0.00    +0.002 C 
ATOM     16  C   UNL     1       3.993   0.141  -3.577  0.00  0.00    +0.008 C 
ATOM     17  C   UNL     1       4.123  -0.884  -4.741  0.00  0.00    +0.043 C 
ATOM     18  C   UNL     1       2.960  -1.895  -4.569  0.00  0.00    +0.131 C 
ATOM     19  C   UNL     1       1.222  -0.166  -4.365  0.00  0.00    +0.015 C 
ENDROOT
BRANCH  18  20
ATOM     20  C   UNL     1       2.252  -2.115  -5.876  0.00  0.00    +0.190 C 
ATOM     21  O   UNL     1       2.342  -1.293  -6.756  0.00  0.00    -0.292 OA
BRANCH  20  22
ATOM     22  C   UNL     1       1.431  -3.360  -6.089  0.00  0.00    +0.233 C 
BRANCH  22  23
ATOM     23  O   UNL     1       0.863  -3.338  -7.400  0.00  0.00    -0.387 OA
ATOM     24  H   UNL     1       0.320  -4.112  -7.606  0.00  0.00    +0.210 HD
ENDBRANCH  22  23
ENDBRANCH  20  22
ENDBRANCH  18  20
BRANCH  18  25
ATOM     25  O   UNL     1       3.434  -3.123  -4.027  0.00  0.00    -0.380 OA
ATOM     26  H   UNL     1       4.034  -3.606  -4.612  0.00  0.00    +0.211 HD
ENDBRANCH  18  25
BRANCH  12  27
ATOM     27  O   UNL     1      -0.999  -1.263  -2.045  0.00  0.00    -0.391 OA
ATOM     28  H   UNL     1      -1.400  -2.127  -2.208  0.00  0.00    +0.210 HD
ENDBRANCH  12  27
BRANCH   5  29
ATOM     29  O   UNL     1      -1.290  -0.774   2.600  0.00  0.00    -0.392 OA
ATOM     30  H   UNL     1      -2.224  -1.012   2.687  0.00  0.00    +0.210 HD
ENDBRANCH   5  29
TORSDOF 6
