REMARK  Name = ZINC36558793
REMARK  16 active torsions:
REMARK  status: ('A' for Active; 'I' for Inactive)
REMARK    1  A    between atoms: C_1  and  C_2
REMARK    2  A    between atoms: C_5  and  C_7
REMARK    3  A    between atoms: C_7  and  N_8
REMARK    4  A    between atoms: N_8  and  C_9
REMARK    5  A    between atoms: C_9  and  C_11
REMARK    6  A    between atoms: C_9  and  C_18
REMARK    7  A    between atoms: C_16  and  O_17
REMARK    8  A    between atoms: N_20  and  C_21
REMARK    9  A    between atoms: C_21  and  C_22
REMARK   10  A    between atoms: C_21  and  C_23
REMARK   11  A    between atoms: C_21  and  C_24
REMARK   12  A    between atoms: C_24  and  C_25
REMARK   13  A    between atoms: C_25  and  C_26
REMARK   14  A    between atoms: C_25  and  C_27
REMARK   15  A    between atoms: C_25  and  C_28
REMARK   16  A    between atoms: C_29  and  C_31
REMARK                            x       y       z     vdW  Elec       q    Type
REMARK                         _______ _______ _______ _____ _____    ______ ____
ROOT
ATOM      1  C   UNL     1       2.768  -2.190  -1.370  0.00  0.00    +0.196 C 
ENDROOT
BRANCH   1   2
ATOM      2  C   UNL     1       3.321  -1.400  -0.212  0.00  0.00    +0.023 A 
ATOM      3  C   UNL     1       3.260  -0.020  -0.225  0.00  0.00    +0.009 A 
ATOM      4  C   UNL     1       3.768   0.705   0.836  0.00  0.00    +0.001 A 
ATOM      5  C   UNL     1       4.339   0.052   1.913  0.00  0.00    +0.004 A 
ATOM      6  C   UNL     1       4.402  -1.328   1.931  0.00  0.00    +0.046 A 
ATOM      7  C   UNL     1       3.888  -2.058   0.869  0.00  0.00    +0.122 A 
BRANCH   7   8
ATOM      8  O   UNL     1       3.944  -3.416   0.887  0.00  0.00    -0.506 OA
ATOM      9  H   UNL     1       4.781  -3.779   0.565  0.00  0.00    +0.292 HD
ENDBRANCH   7   8
ENDBRANCH   1   2
BRANCH   1  10
ATOM     10  C   UNL     1       2.341  -1.246  -2.464  0.00  0.00    +0.239 C 
ATOM     11  O   UNL     1       1.162  -1.081  -2.697  0.00  0.00    -0.273 OA
ATOM     12  N   UNL     1       3.269  -0.585  -3.184  0.00  0.00    -0.308 N 
ATOM     13  H   UNL     1       4.211  -0.765  -3.042  0.00  0.00    +0.149 HD
BRANCH  12  14
ATOM     14  C   UNL     1       2.854   0.405  -4.181  0.00  0.00    +0.030 C 
ATOM     15  C   UNL     1       1.977  -0.271  -5.237  0.00  0.00    +0.031 C 
ATOM     16  C   UNL     1       2.059   1.518  -3.495  0.00  0.00    +0.031 C 
BRANCH  14  17
ATOM     17  C   UNL     1       4.092   1.002  -4.853  0.00  0.00    +0.031 C 
BRANCH  17  18
ATOM     18  C   UNL     1       5.198   1.186  -3.811  0.00  0.00    -0.036 C 
ATOM     19  C   UNL     1       6.036  -0.091  -3.727  0.00  0.00    +0.010 C 
ATOM     20  C   UNL     1       6.093   2.358  -4.220  0.00  0.00    +0.010 C 
ATOM     21  C   UNL     1       4.570   1.476  -2.446  0.00  0.00    +0.010 C 
ENDBRANCH  17  18
ENDBRANCH  14  17
ENDBRANCH  12  14
ENDBRANCH   1  10
BRANCH   1  22
ATOM     22  N   UNL     1       1.612  -2.971  -0.920  0.00  0.00    -0.274 N 
ATOM     23  C   UNL     1       1.637  -4.316  -0.998  0.00  0.00    +0.248 C 
ATOM     24  O   UNL     1       2.633  -4.884  -1.401  0.00  0.00    -0.270 OA
BRANCH  23  25
ATOM     25  C   UNL     1       0.452  -5.101  -0.592  0.00  0.00    +0.037 A 
ATOM     26  C   UNL     1      -0.331  -4.682   0.485  0.00  0.00    +0.014 A 
ATOM     27  C   UNL     1      -1.436  -5.419   0.859  0.00  0.00    +0.021 A 
ATOM     28  C   UNL     1      -1.768  -6.572   0.168  0.00  0.00    +0.041 A 
ATOM     29  C   UNL     1      -0.995  -6.993  -0.902  0.00  0.00    +0.021 A 
ATOM     30  C   UNL     1       0.108  -6.262  -1.288  0.00  0.00    +0.014 A 
ATOM     31 CL   UNL     1      -3.160  -7.495   0.644  0.00  0.00    -0.084 Cl
ENDBRANCH  23  25
BRANCH  22  32
ATOM     32  C   UNL     1       0.430  -2.289  -0.386  0.00  0.00    +0.183 C 
BRANCH  32  37
ATOM     33  C   UNL     1       1.046  -2.090   4.616  0.00  0.00    +0.086 C 
ATOM     34  C   UNL     1       1.002  -1.675   3.167  0.00  0.00    +0.102 A 
ATOM     35  C   UNL     1       1.296  -0.453   2.690  0.00  0.00    +0.045 A 
ATOM     36  C   UNL     1       1.123  -0.509   1.287  0.00  0.00    +0.046 A 
ATOM     37  C   UNL     1       0.735  -1.762   0.992  0.00  0.00    +0.122 A 
ATOM     38  O   UNL     1       0.669  -2.466   2.134  0.00  0.00    -0.463 OA
ENDBRANCH  32  37
ENDBRANCH  22  32
ENDBRANCH   1  22
TORSDOF 10
