REMARK  Name = ZINC35742248
REMARK  9 active torsions:
REMARK  status: ('A' for Active; 'I' for Inactive)
REMARK    1  A    between atoms: C_3  and  C_6
REMARK    2  A    between atoms: N_8  and  C_9
REMARK    3  A    between atoms: N_8  and  C_16
REMARK    4  A    between atoms: C_9  and  C_10
REMARK    5  A    between atoms: C_10  and  N_11
REMARK    6  A    between atoms: C_16  and  C_17
REMARK    7  A    between atoms: C_27  and  C_29
REMARK    8  A    between atoms: C_29  and  O_30
REMARK    9  A    between atoms: O_30  and  C_31
REMARK                            x       y       z     vdW  Elec       q    Type
REMARK                         _______ _______ _______ _____ _____    ______ ____
ROOT
ATOM      1  C   UNL     1       3.385  -2.364  -1.340  0.00  0.00    +0.234 C 
ATOM      2  O   UNL     1       3.921  -1.768  -2.250  0.00  0.00    -0.274 OA
ATOM      3  N   UNL     1       2.733  -3.518  -1.582  0.00  0.00    -0.289 N 
ATOM      4  C   UNL     1       2.074  -4.246  -0.487  0.00  0.00    +0.114 C 
ATOM      5  C   UNL     1       0.561  -4.247  -0.750  0.00  0.00    +0.061 C 
ATOM      6  C   UNL     1       0.326  -4.535  -2.197  0.00  0.00    -0.004 A 
ATOM      7  C   UNL     1       1.222  -4.467  -3.219  0.00  0.00    -0.014 A 
ATOM      8  C   UNL     1       0.746  -4.780  -4.491  0.00  0.00    +0.013 A 
ATOM      9  C   UNL     1      -0.549  -5.136  -4.660  0.00  0.00    +0.046 A 
ATOM     10  S   UNL     1      -1.176  -5.044  -2.990  0.00  0.00    -0.101 S 
ATOM     11  C   UNL     1       2.665  -4.064  -2.944  0.00  0.00    +0.144 C 
ENDROOT
BRANCH   1  12
ATOM     12  C   UNL     1       3.449  -1.813   0.061  0.00  0.00    +0.204 C 
BRANCH  12  15
ATOM     13  C   UNL     1       3.597   0.597  -0.264  0.00  0.00    +0.282 C 
ATOM     14  O   UNL     1       4.242   1.626  -0.335  0.00  0.00    -0.267 OA
ATOM     15  N   UNL     1       4.207  -0.560   0.060  0.00  0.00    -0.288 N 
BRANCH  13  18
ATOM     16  C   UNL     1       0.080   1.282  -0.961  0.00  0.00    +0.042 A 
ATOM     17  C   UNL     1       1.393   1.728  -0.747  0.00  0.00    +0.054 A 
ATOM     18  C   UNL     1       2.155   0.615  -0.533  0.00  0.00    +0.189 A 
ATOM     19  O   UNL     1       1.350  -0.464  -0.612  0.00  0.00    -0.458 OA
ATOM     20  C   UNL     1       0.097  -0.066  -0.870  0.00  0.00    +0.196 A 
ENDBRANCH  13  18
BRANCH  15  21
ATOM     21  C   UNL     1       5.630  -0.565   0.412  0.00  0.00    +0.090 C 
BRANCH  21  22
ATOM     22  C   UNL     1       5.783  -0.358   1.920  0.00  0.00    -0.060 C 
BRANCH  22  23
ATOM     23  N   UNL     1       7.209  -0.362   2.272  0.00  0.00    +0.381 N 
ATOM     24  C   UNL     1       7.875   0.847   1.726  0.00  0.00    -0.079 C 
ATOM     25  C   UNL     1       9.137   0.989   2.614  0.00  0.00    -0.020 C 
ATOM     26  C   UNL     1       8.625   0.568   4.011  0.00  0.00    -0.020 C 
ATOM     27  C   UNL     1       7.372  -0.284   3.740  0.00  0.00    -0.079 C 
ATOM     28  H   UNL     1       7.653  -1.196   1.917  0.00  0.00    -0.082 HD
ENDBRANCH  22  23
ENDBRANCH  21  22
ENDBRANCH  15  21
ENDBRANCH  12  15
ENDBRANCH   1  12
BRANCH  11  29
ATOM     29  C   UNL     1       3.571  -5.291  -3.056  0.00  0.00    +0.256 C 
BRANCH  29  30
ATOM     30  O   UNL     1       3.073  -6.330  -2.212  0.00  0.00    -0.490 OA
BRANCH  30  31
ATOM     31  C   UNL     1       3.768  -7.499  -2.194  0.00  0.00    +0.121 A 
ATOM     32  C   UNL     1       4.909  -7.639  -2.970  0.00  0.00    +0.048 A 
ATOM     33  C   UNL     1       5.615  -8.827  -2.951  0.00  0.00    +0.042 A 
ATOM     34  C   UNL     1       5.183  -9.877  -2.159  0.00  0.00    +0.124 A 
ATOM     35  C   UNL     1       4.043  -9.738  -1.384  0.00  0.00    +0.042 A 
ATOM     36  C   UNL     1       3.340  -8.549  -1.396  0.00  0.00    +0.048 A 
ATOM     37  F   UNL     1       5.873 -11.038  -2.142  0.00  0.00    -0.205 F 
ENDBRANCH  30  31
ENDBRANCH  29  30
ENDBRANCH  11  29
TORSDOF 9
