REMARK  Name = ZINC18120493
REMARK  6 active torsions:
REMARK  status: ('A' for Active; 'I' for Inactive)
REMARK    1  A    between atoms: C_1  and  C_2
REMARK    2  A    between atoms: C_5  and  C_8
REMARK    3  A    between atoms: N_16  and  C_19
REMARK    4  A    between atoms: C_19  and  C_20
REMARK    5  A    between atoms: N_27  and  C_28
REMARK    6  A    between atoms: C_32  and  N_34
REMARK                            x       y       z     vdW  Elec       q    Type
REMARK                         _______ _______ _______ _____ _____    ______ ____
ROOT
ATOM      1  C   UNL     1       0.059  -4.275  -0.021  0.00  0.00    +0.157 C 
ATOM      2  C   UNL     1      -1.344  -4.843   0.296  0.00  0.00    +0.145 C 
ATOM      3  C   UNL     1      -1.273  -5.146   1.818  0.00  0.00    +0.249 C 
ATOM      4  C   UNL     1      -1.352  -6.655   1.878  0.00  0.00    +0.254 C 
ATOM      5  O   UNL     1      -1.321  -7.318   2.893  0.00  0.00    -0.272 OA
ATOM      6  N   UNL     1      -1.461  -7.144   0.638  0.00  0.00    -0.235 N 
ATOM      7  C   UNL     1      -1.477  -6.207  -0.344  0.00  0.00    +0.231 C 
ATOM      8  O   UNL     1      -1.577  -6.416  -1.534  0.00  0.00    -0.275 OA
ATOM      9  O   UNL     1       0.029  -4.704   2.242  0.00  0.00    -0.257 OA
ATOM     10  N   UNL     1       0.889  -4.796   1.092  0.00  0.00    -0.244 N 
ENDROOT
BRANCH   1  15
ATOM     11  C   UNL     1      -0.018   1.503   0.010  0.00  0.00    +0.044 C 
ATOM     12  C   UNL     1       0.002  -0.004   0.002  0.00  0.00    -0.050 A 
ATOM     13  C   UNL     1       0.006  -0.689  -1.199  0.00  0.00    +0.004 A 
ATOM     14  C   UNL     1       0.025  -2.071  -1.206  0.00  0.00    +0.006 A 
ATOM     15  C   UNL     1       0.040  -2.768  -0.013  0.00  0.00    -0.022 A 
ATOM     16  C   UNL     1       0.037  -2.084   1.188  0.00  0.00    +0.006 A 
ATOM     17  C   UNL     1       0.023  -0.702   1.195  0.00  0.00    +0.004 A 
ENDBRANCH   1  15
BRANCH  10  18
ATOM     18  C   UNL     1       2.205  -5.261   1.032  0.00  0.00    +0.067 A 
ATOM     19  C   UNL     1       2.889  -5.262  -0.177  0.00  0.00    +0.028 A 
ATOM     20  C   UNL     1       4.190  -5.722  -0.233  0.00  0.00    +0.004 A 
ATOM     21  C   UNL     1       4.812  -6.180   0.914  0.00  0.00    +0.033 A 
ATOM     22  C   UNL     1       4.135  -6.180   2.119  0.00  0.00    +0.128 A 
ATOM     23  C   UNL     1       2.835  -5.716   2.183  0.00  0.00    +0.060 A 
BRANCH  22  24
ATOM     24  N   UNL     1       4.805  -6.672   3.344  0.00  0.00    +0.056 N 
ATOM     25  O   UNL     1       5.944  -7.074   3.290  0.00  0.00    -0.126 OA
ATOM     26  O   UNL     1       4.213  -6.673   4.398  0.00  0.00    -0.126 OA
ENDBRANCH  22  24
ENDBRANCH  10  18
BRANCH   6  27
ATOM     27  C   UNL     1      -1.562  -8.578   0.357  0.00  0.00    +0.151 C 
BRANCH  27  28
ATOM     28  C   UNL     1      -3.013  -8.988   0.353  0.00  0.00    -0.030 A 
ATOM     29  C   UNL     1      -3.617  -9.403   1.524  0.00  0.00    +0.005 A 
ATOM     30  C   UNL     1      -4.948  -9.779   1.520  0.00  0.00    +0.000 A 
ATOM     31  C   UNL     1      -5.673  -9.738   0.344  0.00  0.00    +0.000 A 
ATOM     32  C   UNL     1      -5.069  -9.322  -0.827  0.00  0.00    +0.000 A 
ATOM     33  C   UNL     1      -3.740  -8.942  -0.822  0.00  0.00    +0.005 A 
ENDBRANCH  27  28
ENDBRANCH   6  27
TORSDOF 5
