REMARK  Name = ZINC37146977
REMARK  6 active torsions:
REMARK  status: ('A' for Active; 'I' for Inactive)
REMARK    1  A    between atoms: C_1  and  C_2
REMARK    2  A    between atoms: C_2  and  N_3
REMARK    3  A    between atoms: N_3  and  C_4
REMARK    4  A    between atoms: N_3  and  C_16
REMARK    5  A    between atoms: C_7  and  C_15
REMARK    6  A    between atoms: C_11  and  C_13
REMARK                            x       y       z     vdW  Elec       q    Type
REMARK                         _______ _______ _______ _____ _____    ______ ____
ROOT
ATOM      1  C   UNL     1       1.006  -2.011  -1.079  0.00  0.00    -0.051 C 
ATOM      2  C   UNL     1       2.008  -2.387  -2.172  0.00  0.00    -0.011 C 
ATOM      3  C   UNL     1       2.291  -3.889  -2.109  0.00  0.00    -0.015 C 
ATOM      4  C   UNL     1       2.874  -4.241  -0.740  0.00  0.00    +0.004 C 
ATOM      5  C   UNL     1       1.872  -3.865   0.354  0.00  0.00    +0.017 C 
ATOM      6  C   UNL     1       1.589  -2.363   0.291  0.00  0.00    +0.078 C 
ATOM      7  C   UNL     1       0.989  -4.663  -2.323  0.00  0.00    +0.007 C 
ENDROOT
BRANCH   1   8
ATOM      8  N   UNL     1       0.734  -0.568  -1.140  0.00  0.00    +0.384 N 
ATOM      9  H   UNL     1       1.557  -0.059  -0.854  0.00  0.00    -0.081 HD
BRANCH   8  10
ATOM     10  C   UNL     1       0.380  -0.194  -2.515  0.00  0.00    -0.068 C 
ATOM     11  C   UNL     1       1.426   0.565  -3.333  0.00  0.00    -0.017 C 
ATOM     12  C   UNL     1       0.185   1.294  -2.815  0.00  0.00    -0.017 C 
ENDBRANCH   8  10
BRANCH   8  14
ATOM     13  C   UNL     1      -1.537  -1.212  -0.489  0.00  0.00    -0.017 C 
ATOM     14  C   UNL     1      -0.381  -0.242  -0.241  0.00  0.00    -0.081 C 
ENDBRANCH   8  14
ENDBRANCH   1   8
BRANCH   6  15
ATOM     15  C   UNL     1       0.625  -2.001   1.342  0.00  0.00    +0.064 C 
ATOM     16  N   UNL     1      -0.119  -1.721   2.154  0.00  0.00    -0.196 NA
ENDBRANCH   6  15
TORSDOF 4
