REMARK  Name = ZINC01308234
REMARK  11 active torsions:
REMARK  status: ('A' for Active; 'I' for Inactive)
REMARK    1  A    between atoms: C_1  and  C_2
REMARK    2  A    between atoms: C_2  and  O_3
REMARK    3  A    between atoms: O_3  and  C_4
REMARK    4  A    between atoms: C_4  and  C_6
REMARK    5  A    between atoms: C_7  and  N_35
REMARK    6  A    between atoms: C_11  and  C_13
REMARK    7  A    between atoms: C_18  and  O_19
REMARK    8  A    between atoms: O_19  and  C_20
REMARK    9  A    between atoms: C_20  and  C_21
REMARK   10  A    between atoms: C_31  and  C_33
REMARK   11  A    between atoms: C_31  and  C_34
REMARK                            x       y       z     vdW  Elec       q    Type
REMARK                         _______ _______ _______ _____ _____    ______ ____
ROOT
ATOM      1  C   UNL     1       1.438   8.957   1.269  0.00  0.00    +0.105 C 
ATOM      2  C   UNL     1       1.524  10.311   1.193  0.00  0.00    +0.195 C 
ATOM      3  O   UNL     1       1.757  10.931   0.027  0.00  0.00    -0.446 OA
ATOM      4  C   UNL     1       1.488  10.302  -1.133  0.00  0.00    +0.115 C 
ATOM      5  C   UNL     1       1.397   8.964  -1.198  0.00  0.00    +0.045 C 
ATOM      6  C   UNL     1       1.599   8.116   0.034  0.00  0.00    +0.101 C 
ATOM      7  C   UNL     1       1.105   8.307  -2.412  0.00  0.00    +0.164 C 
ATOM      8  O   UNL     1       1.046   7.094  -2.435  0.00  0.00    -0.292 OA
ATOM      9  C   UNL     1       0.867   9.082  -3.679  0.00  0.00    +0.086 C 
ATOM     10  C   UNL     1       0.311  10.464  -3.317  0.00  0.00    -0.021 C 
ATOM     11  C   UNL     1       1.297  11.150  -2.370  0.00  0.00    +0.081 C 
ATOM     12  C   UNL     1      -1.044  10.307  -2.624  0.00  0.00    +0.012 C 
ATOM     13  C   UNL     1       0.147  11.305  -4.585  0.00  0.00    +0.012 C 
ENDROOT
BRANCH   6  14
ATOM     14  C   UNL     1       2.983   7.522   0.011  0.00  0.00    +0.007 A 
ATOM     15  C   UNL     1       4.090   8.349  -0.007  0.00  0.00    +0.008 A 
ATOM     16  C   UNL     1       5.361   7.805  -0.029  0.00  0.00    +0.001 A 
ATOM     17  C   UNL     1       5.528   6.432  -0.033  0.00  0.00    +0.004 A 
ATOM     18  C   UNL     1       4.425   5.601  -0.010  0.00  0.00    +0.046 A 
ATOM     19  C   UNL     1       3.148   6.144   0.006  0.00  0.00    +0.125 A 
BRANCH  19  20
ATOM     20  O   UNL     1       2.061   5.329   0.023  0.00  0.00    -0.487 OA
BRANCH  20  21
ATOM     21  C   UNL     1       2.307   3.921   0.017  0.00  0.00    +0.266 C 
BRANCH  21  22
ATOM     22  C   UNL     1       0.993   3.182   0.038  0.00  0.00    +0.008 A 
ATOM     23  C   UNL     1      -0.196   3.887   0.060  0.00  0.00    +0.008 A 
ATOM     24  C   UNL     1      -1.401   3.209   0.080  0.00  0.00    +0.000 A 
ATOM     25  C   UNL     1      -1.417   1.827   0.073  0.00  0.00    +0.001 A 
ATOM     26  C   UNL     1      -0.229   1.122   0.057  0.00  0.00    +0.020 A 
ATOM     27  C   UNL     1       0.977   1.799   0.037  0.00  0.00    +0.047 A 
ATOM     28 CL   UNL     1       2.470   0.914   0.010  0.00  0.00    -0.083 Cl
ENDBRANCH  21  22
ENDBRANCH  20  21
ENDBRANCH  19  20
ENDBRANCH   6  14
BRANCH   2  29
ATOM     29  N   UNL     1       1.368  11.058   2.329  0.00  0.00    -0.329 N 
ATOM     30  H   UNL     1       1.274  10.619   3.189  0.00  0.00    +0.145 HD
ATOM     31  H   UNL     1       1.352  12.026   2.275  0.00  0.00    +0.145 HD
ENDBRANCH   2  29
BRANCH   1  32
ATOM     32  C   UNL     1       1.198   8.342   2.507  0.00  0.00    +0.341 C 
ATOM     33  O   UNL     1       0.081   7.944   2.784  0.00  0.00    -0.245 OA
BRANCH  32  34
ATOM     34  O   UNL     1       2.207   8.191   3.393  0.00  0.00    -0.462 OA
BRANCH  34  36
ATOM     35  C   UNL     1       3.151   7.475   5.499  0.00  0.00    +0.048 C 
ATOM     36  C   UNL     1       1.892   7.556   4.633  0.00  0.00    +0.229 C 
ENDBRANCH  34  36
ENDBRANCH  32  34
ENDBRANCH   1  32
TORSDOF 8
