REMARK  Name = ZINC33769729
REMARK  13 active torsions:
REMARK  status: ('A' for Active; 'I' for Inactive)
REMARK    1  A    between atoms: C_1  and  C_2
REMARK    2  A    between atoms: C_2  and  N_3
REMARK    3  A    between atoms: N_3  and  C_4
REMARK    4  A    between atoms: N_3  and  C_6
REMARK    5  A    between atoms: C_4  and  C_5
REMARK    6  A    between atoms: C_6  and  C_7
REMARK    7  A    between atoms: C_7  and  N_8
REMARK    8  A    between atoms: C_9  and  C_27
REMARK    9  A    between atoms: C_11  and  C_16
REMARK   10  A    between atoms: C_16  and  C_18
REMARK   11  A    between atoms: C_30  and  O_35
REMARK   12  A    between atoms: C_31  and  O_33
REMARK   13  A    between atoms: O_33  and  C_34
REMARK                            x       y       z     vdW  Elec       q    Type
REMARK                         _______ _______ _______ _____ _____    ______ ____
ROOT
ATOM      1  N   UNL     1       2.874   2.039   1.296  0.00  0.00    -0.285 N 
ATOM      2  C   UNL     1       2.467   2.697   2.543  0.00  0.00    +0.145 C 
ATOM      3  C   UNL     1       2.239   4.150   2.198  0.00  0.00    +0.079 C 
ATOM      4  C   UNL     1       2.498   4.282   0.876  0.00  0.00    +0.249 C 
ATOM      5  C   UNL     1       2.896   2.971   0.326  0.00  0.00    +0.288 C 
ATOM      6  O   UNL     1       3.197   2.764  -0.833  0.00  0.00    -0.266 OA
ATOM      7  O   UNL     1       2.410   5.435   0.172  0.00  0.00    -0.282 OA
ENDROOT
BRANCH   2   8
ATOM      8  C   UNL     1       3.558   2.573   3.575  0.00  0.00    -0.019 A 
ATOM      9  C   UNL     1       3.337   1.844   4.729  0.00  0.00    +0.009 A 
ATOM     10  C   UNL     1       4.337   1.723   5.676  0.00  0.00    +0.049 A 
ATOM     11  C   UNL     1       5.560   2.342   5.475  0.00  0.00    +0.158 A 
ATOM     12  C   UNL     1       5.781   3.080   4.316  0.00  0.00    +0.162 A 
ATOM     13  C   UNL     1       4.776   3.193   3.368  0.00  0.00    +0.055 A 
BRANCH  12  14
ATOM     14  O   UNL     1       6.980   3.689   4.114  0.00  0.00    -0.491 OA
ATOM     15  C   UNL     1       7.098   4.520   2.958  0.00  0.00    +0.277 C 
ENDBRANCH  12  14
BRANCH  11  16
ATOM     16  O   UNL     1       6.543   2.228   6.408  0.00  0.00    -0.503 OA
ATOM     17  H   UNL     1       7.513   2.720   6.247  0.00  0.00    +0.292 HD
ENDBRANCH  11  16
ENDBRANCH   2   8
BRANCH   3  18
ATOM     18  C   UNL     1       1.817   5.212   3.118  0.00  0.00    +0.230 C 
ATOM     19  O   UNL     1       1.800   6.371   2.743  0.00  0.00    -0.283 OA
BRANCH  18  20
ATOM     20  C   UNL     1       1.415   4.878   4.490  0.00  0.00    +0.176 A 
ATOM     21  C   UNL     1       1.129   5.784   5.465  0.00  0.00    +0.061 A 
ATOM     22  C   UNL     1       0.778   5.004   6.651  0.00  0.00    +0.021 A 
ATOM     23  C   UNL     1       0.392   5.332   7.953  0.00  0.00    +0.011 A 
ATOM     24  C   UNL     1       0.132   4.338   8.853  0.00  0.00    +0.001 A 
ATOM     25  C   UNL     1       0.248   3.005   8.482  0.00  0.00    +0.004 A 
ATOM     26  C   UNL     1       0.627   2.660   7.203  0.00  0.00    +0.047 A 
ATOM     27  C   UNL     1       0.897   3.654   6.269  0.00  0.00    +0.136 A 
ATOM     28  O   UNL     1       1.278   3.627   4.977  0.00  0.00    -0.452 OA
ENDBRANCH  18  20
ENDBRANCH   3  18
BRANCH   1  29
ATOM     29  C   UNL     1       3.205   0.621   1.137  0.00  0.00    +0.090 C 
BRANCH  29  30
ATOM     30  C   UNL     1       1.939  -0.162   0.782  0.00  0.00    -0.060 C 
BRANCH  30  31
ATOM     31  N   UNL     1       2.271  -1.584   0.623  0.00  0.00    +0.380 N 
ATOM     32  H   UNL     1       2.817  -1.906   1.522  0.00  0.00    -0.082 HD
BRANCH  31  34
ATOM     33  C   UNL     1       0.417  -2.548   1.901  0.00  0.00    -0.017 C 
ATOM     34  C   UNL     1       1.054  -2.400   0.517  0.00  0.00    -0.082 C 
ENDBRANCH  31  34
BRANCH  31  35
ATOM     35  C   UNL     1       3.147  -1.793  -0.537  0.00  0.00    -0.082 C 
ATOM     36  C   UNL     1       3.797  -3.175  -0.443  0.00  0.00    -0.017 C 
ENDBRANCH  31  35
ENDBRANCH  30  31
ENDBRANCH  29  30
ENDBRANCH   1  29
TORSDOF 10
