REMARK  Name = ZINC12600433
REMARK  8 active torsions:
REMARK  status: ('A' for Active; 'I' for Inactive)
REMARK    1  A    between atoms: C_1  and  C_2
REMARK    2  A    between atoms: C_2  and  C_25
REMARK    3  A    between atoms: C_4  and  N_11
REMARK    4  A    between atoms: C_7  and  C_9
REMARK    5  A    between atoms: C_7  and  C_10
REMARK    6  A    between atoms: C_12  and  C_14
REMARK    7  A    between atoms: C_25  and  N_26
REMARK    8  A    between atoms: C_27  and  C_29
REMARK                            x       y       z     vdW  Elec       q    Type
REMARK                         _______ _______ _______ _____ _____    ______ ____
ROOT
ATOM      1  C   UNL     1      -0.019   1.527   0.010  0.00  0.00    +0.013 C 
ATOM      2  C   UNL     1       0.002  -0.004   0.002  0.00  0.00    -0.014 C 
ATOM      3  C   UNL     1      -1.418  -0.544  -0.123  0.00  0.00    +0.030 C 
ATOM      4  C   UNL     1      -2.191  -0.343   1.179  0.00  0.00    +0.074 C 
ATOM      5  C   UNL     1      -1.490  -1.119   2.293  0.00  0.00    +0.028 C 
ATOM      6  C   UNL     1      -0.073  -0.599   2.505  0.00  0.00    -0.033 C 
ATOM      7  C   UNL     1       0.729  -0.548   1.218  0.00  0.00    +0.014 C 
ATOM      8  C   UNL     1      -0.114   0.772   3.185  0.00  0.00    +0.011 C 
ATOM      9  C   UNL     1       0.641  -1.570   3.472  0.00  0.00    +0.011 C 
ENDROOT
BRANCH   4  10
ATOM     10  N   UNL     1      -3.554  -0.865   1.014  0.00  0.00    -0.308 N 
ATOM     11  C   UNL     1      -4.556  -0.385   1.776  0.00  0.00    +0.251 C 
ATOM     12  O   UNL     1      -4.332   0.481   2.601  0.00  0.00    -0.270 OA
ATOM     13  H   UNL     1      -3.733  -1.556   0.357  0.00  0.00    +0.149 HD
BRANCH  11  14
ATOM     14  C   UNL     1      -5.923  -0.908   1.611  0.00  0.00    +0.122 A 
ATOM     15  C   UNL     1      -6.977  -0.429   2.377  0.00  0.00    +0.031 A 
ATOM     16  C   UNL     1      -8.259  -1.004   2.183  0.00  0.00    +0.018 A 
ATOM     17  C   UNL     1      -9.393  -0.432   2.777  0.00  0.00    +0.011 A 
ATOM     18  C   UNL     1     -10.625  -0.973   2.546  0.00  0.00    +0.001 A 
ATOM     19  C   UNL     1     -10.765  -2.090   1.735  0.00  0.00    +0.004 A 
ATOM     20  C   UNL     1      -9.661  -2.681   1.157  0.00  0.00    +0.047 A 
ATOM     21  C   UNL     1      -8.397  -2.153   1.383  0.00  0.00    +0.139 A 
ATOM     22  O   UNL     1      -7.301  -2.749   0.855  0.00  0.00    -0.422 OA
ATOM     23  C   UNL     1      -6.227  -1.957   0.621  0.00  0.00    +0.350 A 
ATOM     24  O   UNL     1      -5.536  -2.107  -0.369  0.00  0.00    -0.244 OA
ENDBRANCH  11  14
ENDBRANCH   4  10
BRANCH   2  25
ATOM     25  C   UNL     1       0.782  -0.446  -1.256  0.00  0.00    +0.111 C 
BRANCH  25  26
ATOM     26  N   UNL     1       0.110   0.066  -2.453  0.00  0.00    -0.311 N 
ATOM     27  C   UNL     1       0.615  -0.197  -3.674  0.00  0.00    +0.251 C 
ATOM     28  O   UNL     1       1.630  -0.859  -3.783  0.00  0.00    -0.270 OA
ATOM     29  H   UNL     1      -0.699   0.594  -2.366  0.00  0.00    +0.149 HD
BRANCH  27  30
ATOM     30  C   UNL     1      -0.061   0.318  -4.877  0.00  0.00    +0.122 A 
ATOM     31  C   UNL     1       0.432   0.059  -6.149  0.00  0.00    +0.031 A 
ATOM     32  C   UNL     1      -0.256   0.615  -7.258  0.00  0.00    +0.018 A 
ATOM     33  C   UNL     1       0.072   0.228  -8.565  0.00  0.00    +0.011 A 
ATOM     34  C   UNL     1      -0.628   0.741  -9.620  0.00  0.00    +0.001 A 
ATOM     35  C   UNL     1      -1.657   1.648  -9.410  0.00  0.00    +0.004 A 
ATOM     36  C   UNL     1      -1.983   2.057  -8.133  0.00  0.00    +0.047 A 
ATOM     37  C   UNL     1      -1.281   1.555  -7.046  0.00  0.00    +0.139 A 
ATOM     38  O   UNL     1      -1.563   1.981  -5.792  0.00  0.00    -0.422 OA
ATOM     39  C   UNL     1      -1.292   1.123  -4.779  0.00  0.00    +0.350 A 
ATOM     40  O   UNL     1      -2.035   1.022  -3.821  0.00  0.00    -0.244 OA
ENDBRANCH  27  30
ENDBRANCH  25  26
ENDBRANCH   2  25
TORSDOF 5
