REMARK  Name = ZINC12979747
REMARK  8 active torsions:
REMARK  status: ('A' for Active; 'I' for Inactive)
REMARK    1  A    between atoms: C_1  and  C_2
REMARK    2  A    between atoms: C_2  and  C_36
REMARK    3  A    between atoms: N_5  and  C_9
REMARK    4  A    between atoms: C_9  and  C_10
REMARK    5  A    between atoms: C_10  and  O_11
REMARK    6  A    between atoms: O_11  and  C_12
REMARK    7  A    between atoms: C_12  and  C_14
REMARK    8  A    between atoms: C_28  and  C_29
REMARK                            x       y       z     vdW  Elec       q    Type
REMARK                         _______ _______ _______ _____ _____    ______ ____
ROOT
ATOM      1  C   UNL     1      -0.644   0.718   2.363  0.00  0.00    +0.073 A 
ATOM      2  C   UNL     1      -1.115   1.332   3.604  0.00  0.00    +0.015 A 
ATOM      3  C   UNL     1      -0.906   0.726   4.847  0.00  0.00    +0.011 A 
ATOM      4  C   UNL     1      -1.358   1.336   5.980  0.00  0.00    +0.001 A 
ATOM      5  C   UNL     1      -2.027   2.556   5.915  0.00  0.00    +0.002 A 
ATOM      6  C   UNL     1      -2.249   3.173   4.722  0.00  0.00    +0.028 A 
ATOM      7  C   UNL     1      -1.798   2.573   3.531  0.00  0.00    +0.072 A 
ATOM      8  N   UNL     1      -2.002   3.151   2.349  0.00  0.00    -0.247 NA
ATOM      9  C   UNL     1      -1.589   2.615   1.212  0.00  0.00    +0.072 A 
ATOM     10  C   UNL     1      -0.897   1.392   1.174  0.00  0.00    -0.007 A 
ATOM     11  C   UNL     1      -0.417   0.789  -0.116  0.00  0.00    +0.038 C 
ATOM     12  C   UNL     1      -1.213   1.321  -1.305  0.00  0.00    +0.009 C 
ATOM     13  C   UNL     1      -1.163   2.854  -1.303  0.00  0.00    +0.037 C 
ATOM     14  C   UNL     1      -1.870   3.331  -0.053  0.00  0.00    -0.021 C 
ATOM     15  C   UNL     1      -2.723   4.369  -0.089  0.00  0.00    +0.013 C 
ENDROOT
BRANCH  15  16
ATOM     16  C   UNL     1      -2.856   5.170  -1.318  0.00  0.00    -0.025 A 
ATOM     17  C   UNL     1      -1.748   5.372  -2.147  0.00  0.00    +0.011 A 
ATOM     18  C   UNL     1      -1.880   6.119  -3.298  0.00  0.00    +0.039 A 
ATOM     19  C   UNL     1      -3.104   6.678  -3.629  0.00  0.00    +0.123 A 
ATOM     20  C   UNL     1      -4.205   6.486  -2.808  0.00  0.00    +0.039 A 
ATOM     21  C   UNL     1      -4.088   5.737  -1.657  0.00  0.00    +0.011 A 
ATOM     22  F   UNL     1      -3.226   7.414  -4.756  0.00  0.00    -0.205 F 
ENDBRANCH  15  16
BRANCH   1  23
ATOM     23  C   UNL     1       0.075  -0.573   2.373  0.00  0.00    +0.340 C 
ATOM     24  O   UNL     1      -0.544  -1.614   2.281  0.00  0.00    -0.245 OA
BRANCH  23  25
ATOM     25  O   UNL     1       1.418  -0.596   2.483  0.00  0.00    -0.460 OA
BRANCH  25  26
ATOM     26  C   UNL     1       2.057  -1.899   2.486  0.00  0.00    +0.252 C 
BRANCH  26  27
ATOM     27  C   UNL     1       3.571  -1.724   2.618  0.00  0.00    +0.159 C 
BRANCH  27  32
ATOM     28  C   UNL     1       3.201   1.079   6.369  0.00  0.00    +0.041 C 
ATOM     29  C   UNL     1       4.306   0.323   5.628  0.00  0.00    +0.107 C 
ATOM     30  C   UNL     1       3.970   0.187   4.156  0.00  0.00    +0.246 C 
ATOM     31  O   UNL     1       3.811   1.084   3.355  0.00  0.00    -0.273 OA
ATOM     32  N   UNL     1       3.883  -1.137   3.923  0.00  0.00    -0.221 N 
ATOM     33  C   UNL     1       4.122  -1.850   5.030  0.00  0.00    +0.309 C 
ATOM     34  O   UNL     1       4.105  -3.064   5.068  0.00  0.00    -0.252 OA
ATOM     35  N   UNL     1       4.384  -1.071   6.096  0.00  0.00    -0.285 N 
ATOM     36  C   UNL     1       5.653   1.027   5.805  0.00  0.00    +0.041 C 
ATOM     37  H   UNL     1       4.585  -1.370   6.996  0.00  0.00    +0.151 HD
ENDBRANCH  27  32
ENDBRANCH  26  27
ENDBRANCH  25  26
ENDBRANCH  23  25
ENDBRANCH   1  23
TORSDOF 6
