REMARK  Name = ZINC40114217
REMARK  9 active torsions:
REMARK  status: ('A' for Active; 'I' for Inactive)
REMARK    1  A    between atoms: C_2  and  C_3
REMARK    2  A    between atoms: C_3  and  N_4
REMARK    3  A    between atoms: C_12  and  C_14
REMARK    4  A    between atoms: C_15  and  C_16
REMARK    5  A    between atoms: C_15  and  C_18
REMARK    6  A    between atoms: N_20  and  C_21
REMARK    7  A    between atoms: C_22  and  C_30
REMARK    8  A    between atoms: N_32  and  C_33
REMARK    9  A    between atoms: C_33  and  C_34
REMARK                            x       y       z     vdW  Elec       q    Type
REMARK                         _______ _______ _______ _____ _____    ______ ____
ROOT
ATOM      1  C   UNL     1      -1.941  -8.572  -0.718  0.00  0.00    +0.259 C 
ATOM      2  O   UNL     1      -1.683  -9.420   0.115  0.00  0.00    -0.269 OA
ATOM      3  N   UNL     1      -2.761  -8.865  -1.747  0.00  0.00    -0.275 N 
ATOM      4  H   UNL     1      -2.967  -8.188  -2.411  0.00  0.00    +0.156 HD
ENDROOT
BRANCH   3   5
ATOM      5  C   UNL     1      -3.309 -10.132  -1.856  0.00  0.00    +0.085 A 
ATOM      6  C   UNL     1      -4.160 -10.611  -2.841  0.00  0.00    +0.069 A 
ATOM      7  C   UNL     1      -4.598 -11.991  -2.726  0.00  0.00    -0.023 A 
ATOM      8  C   UNL     1      -4.105 -12.640  -1.649  0.00  0.00    -0.004 A 
ATOM      9  S   UNL     1      -3.090 -11.444  -0.831  0.00  0.00    -0.077 S 
ATOM     10  C   UNL     1      -4.369 -14.060  -1.255  0.00  0.00    +0.043 C 
ATOM     11  C   UNL     1      -5.584 -14.563  -2.050  0.00  0.00    +0.005 C 
ATOM     12  C   UNL     1      -5.396 -14.199  -3.526  0.00  0.00    +0.005 C 
ATOM     13  C   UNL     1      -5.528 -12.686  -3.710  0.00  0.00    +0.037 C 
BRANCH   6  14
ATOM     14  C   UNL     1      -4.600  -9.760  -3.950  0.00  0.00    +0.247 C 
ATOM     15  O   UNL     1      -3.952  -9.717  -4.979  0.00  0.00    -0.270 OA
ATOM     16  N   UNL     1      -5.723  -9.024  -3.830  0.00  0.00    -0.309 N 
ATOM     17  H   UNL     1      -6.241  -9.058  -3.011  0.00  0.00    +0.149 HD
BRANCH  16  18
ATOM     18  C   UNL     1      -6.163  -8.173  -4.939  0.00  0.00    +0.136 C 
BRANCH  18  19
ATOM     19  C   UNL     1      -7.454  -7.452  -4.547  0.00  0.00    +0.135 C 
ATOM     20  C   UNL     1      -7.956  -6.572  -5.720  0.00  0.00    +0.035 C 
ATOM     21  C   UNL     1      -9.473  -6.488  -5.397  0.00  0.00    +0.031 C 
ATOM     22  C   UNL     1      -9.754  -7.875  -4.779  0.00  0.00    +0.160 C 
ATOM     23  O   UNL     1      -8.505  -8.402  -4.312  0.00  0.00    -0.375 OA
ENDBRANCH  18  19
ENDBRANCH  16  18
ENDBRANCH   6  14
ENDBRANCH   3   5
BRANCH   1  25
ATOM     24  C   UNL     1      -0.521  -6.927   0.451  0.00  0.00    +0.032 C 
ATOM     25  C   UNL     1      -1.360  -7.226  -0.602  0.00  0.00    +0.114 C 
BRANCH  24  34
ATOM     26  N   UNL     1       1.256  -1.654   1.237  0.00  0.00    -0.326 N 
ATOM     27  C   UNL     1       0.578  -0.545   0.552  0.00  0.00    +0.106 C 
ATOM     28  C   UNL     1      -0.934  -0.758   0.694  0.00  0.00    +0.024 C 
ATOM     29  C   UNL     1      -1.318  -2.054  -0.020  0.00  0.00    +0.038 C 
ATOM     30  C   UNL     1      -0.437  -3.188   0.437  0.00  0.00    -0.026 A 
ATOM     31  C   UNL     1       0.801  -2.953   1.031  0.00  0.00    +0.033 A 
ATOM     32  C   UNL     1       1.603  -4.021   1.436  0.00  0.00    +0.024 A 
ATOM     33  C   UNL     1       1.183  -5.306   1.250  0.00  0.00    +0.010 A 
ATOM     34  C   UNL     1      -0.061  -5.552   0.651  0.00  0.00    -0.023 A 
ATOM     35  C   UNL     1      -0.870  -4.473   0.254  0.00  0.00    +0.013 A 
BRANCH  26  36
ATOM     36  C   UNL     1       2.397  -1.397   2.119  0.00  0.00    +0.131 C 
BRANCH  36  38
ATOM     37  C   UNL     1       4.495  -0.424   1.336  0.00  0.00    +0.005 C 
ATOM     38  C   UNL     1       3.672  -1.443   1.317  0.00  0.00    -0.016 C 
ENDBRANCH  36  38
ENDBRANCH  26  36
ENDBRANCH  24  34
BRANCH  25  39
ATOM     39  C   UNL     1      -1.664  -6.228  -1.582  0.00  0.00    +0.104 C 
ATOM     40  N   UNL     1      -1.905  -5.435  -2.359  0.00  0.00    -0.191 NA
ENDBRANCH  25  39
ENDBRANCH   1  25
TORSDOF 9
