REMARK  Name = ZINC21471064
REMARK  9 active torsions:
REMARK  status: ('A' for Active; 'I' for Inactive)
REMARK    1  A    between atoms: C_1  and  C_2
REMARK    2  A    between atoms: C_2  and  C_3
REMARK    3  A    between atoms: C_3  and  C_4
REMARK    4  A    between atoms: C_4  and  C_5
REMARK    5  A    between atoms: C_5  and  N_6
REMARK    6  A    between atoms: C_15  and  S_16
REMARK    7  A    between atoms: S_16  and  C_17
REMARK    8  A    between atoms: C_17  and  C_18
REMARK    9  A    between atoms: C_23  and  C_28
REMARK                            x       y       z     vdW  Elec       q    Type
REMARK                         _______ _______ _______ _____ _____    ______ ____
ROOT
ATOM      1  N   UNL     1       4.402   0.073  -0.040  0.00  0.00    -0.287 N 
ATOM      2  C   UNL     1       3.688   1.223  -0.026  0.00  0.00    +0.263 A 
ATOM      3  O   UNL     1       4.224   2.318  -0.025  0.00  0.00    -0.267 OA
ATOM      4  C   UNL     1       2.263   1.074  -0.013  0.00  0.00    +0.076 A 
ATOM      5  C   UNL     1       1.278   2.143   0.001  0.00  0.00    -0.023 A 
ATOM      6  C   UNL     1      -0.022   1.771   0.012  0.00  0.00    -0.004 A 
ATOM      7  S   UNL     1       0.002  -0.004   0.002  0.00  0.00    -0.073 S 
ATOM      8  C   UNL     1       1.751  -0.243  -0.016  0.00  0.00    +0.117 A 
ATOM      9  N   UNL     1       2.508  -1.333  -0.029  0.00  0.00    -0.216 NA
ATOM     10  C   UNL     1       3.823  -1.159  -0.041  0.00  0.00    +0.173 A 
ATOM     11  C   UNL     1      -1.222   2.667   0.034  0.00  0.00    +0.043 C 
ATOM     12  C   UNL     1      -0.767   4.084   0.403  0.00  0.00    +0.005 C 
ATOM     13  C   UNL     1       0.456   4.447  -0.445  0.00  0.00    +0.005 C 
ATOM     14  C   UNL     1       1.662   3.621   0.004  0.00  0.00    +0.037 C 
ENDROOT
BRANCH   1  15
ATOM     15  C   UNL     1       5.865   0.158  -0.054  0.00  0.00    +0.127 C 
BRANCH  15  16
ATOM     16  C   UNL     1       6.388   0.180   1.383  0.00  0.00    +0.022 C 
BRANCH  16  17
ATOM     17  C   UNL     1       7.916   0.269   1.368  0.00  0.00    +0.001 C 
BRANCH  17  19
ATOM     18  C   UNL     1       9.967   0.379   2.791  0.00  0.00    +0.004 C 
ATOM     19  C   UNL     1       8.439   0.290   2.806  0.00  0.00    -0.003 C 
ENDBRANCH  17  19
ENDBRANCH  16  17
ENDBRANCH  15  16
ENDBRANCH   1  15
BRANCH  10  20
ATOM     20  S   UNL     1       4.863  -2.582  -0.059  0.00  0.00    -0.081 S 
BRANCH  20  21
ATOM     21  C   UNL     1       3.609  -3.888  -0.054  0.00  0.00    +0.133 C 
BRANCH  21  22
ATOM     22  C   UNL     1       4.286  -5.234  -0.069  0.00  0.00    +0.059 A 
ATOM     23  C   UNL     1       4.338  -6.005   1.073  0.00  0.00    +0.095 A 
ATOM     24  C   UNL     1       4.969  -7.249   1.040  0.00  0.00    +0.259 A 
ATOM     25  O   UNL     1       5.017  -7.936   2.048  0.00  0.00    -0.267 OA
ATOM     26  N   UNL     1       5.532  -7.698  -0.121  0.00  0.00    -0.259 N 
ATOM     27  C   UNL     1       6.184  -8.892  -0.311  0.00  0.00    +0.033 A 
ATOM     28  C   UNL     1       6.693  -9.217  -1.499  0.00  0.00    +0.070 A 
ATOM     29  S   UNL     1       6.267  -7.788  -2.483  0.00  0.00    -0.057 S 
ATOM     30  C   UNL     1       5.434  -6.868  -1.207  0.00  0.00    +0.180 A 
ATOM     31  N   UNL     1       4.840  -5.702  -1.185  0.00  0.00    -0.227 NA
ATOM     32  C   UNL     1       6.325  -9.851   0.843  0.00  0.00    +0.064 C 
ENDBRANCH  21  22
ENDBRANCH  20  21
ENDBRANCH  10  20
TORSDOF 7
