REMARK  Name = ZINC39531566
REMARK  11 active torsions:
REMARK  status: ('A' for Active; 'I' for Inactive)
REMARK    1  A    between atoms: C_1  and  C_2
REMARK    2  A    between atoms: C_5  and  C_8
REMARK    3  A    between atoms: C_8  and  C_10
REMARK    4  A    between atoms: C_8  and  N_18
REMARK    5  A    between atoms: C_10  and  N_11
REMARK    6  A    between atoms: N_11  and  S_12
REMARK    7  A    between atoms: S_12  and  C_15
REMARK    8  A    between atoms: C_15  and  C_16
REMARK    9  A    between atoms: C_15  and  C_17
REMARK   10  A    between atoms: C_22  and  C_25
REMARK   11  A    between atoms: C_30  and  O_31
REMARK                            x       y       z     vdW  Elec       q    Type
REMARK                         _______ _______ _______ _____ _____    ______ ____
ROOT
ATOM      1  C   UNL     1      -0.853  -4.119  -0.045  0.00  0.00    +0.102 C 
ENDROOT
BRANCH   1   2
ATOM      2  N   UNL     1       0.252  -3.991   0.915  0.00  0.00    -0.297 NA
ATOM      3  C   UNL     1      -0.219  -3.422   2.186  0.00  0.00    +0.066 C 
ATOM      4  C   UNL     1       0.947  -3.361   3.176  0.00  0.00    -0.066 C 
ATOM      5  N   UNL     1       2.022  -2.531   2.616  0.00  0.00    +0.385 N 
ATOM      6  C   UNL     1       2.498  -3.125   1.360  0.00  0.00    -0.023 C 
ATOM      7  C   UNL     1       1.345  -3.184   0.355  0.00  0.00    +0.074 C 
ATOM      8  H   UNL     1       1.670  -1.602   2.437  0.00  0.00    -0.085 HD
ATOM      9  H   UNL     1       2.785  -2.481   3.275  0.00  0.00    -0.085 HD
BRANCH   6  10
ATOM     10  C   UNL     1       3.612  -2.282   0.797  0.00  0.00    -0.019 A 
ATOM     11  C   UNL     1       3.762  -0.970   1.205  0.00  0.00    +0.005 A 
ATOM     12  C   UNL     1       4.784  -0.196   0.688  0.00  0.00    +0.000 A 
ATOM     13  C   UNL     1       5.660  -0.732  -0.238  0.00  0.00    +0.004 A 
ATOM     14  C   UNL     1       5.515  -2.043  -0.649  0.00  0.00    +0.045 A 
ATOM     15  C   UNL     1       4.493  -2.824  -0.128  0.00  0.00    +0.118 A 
BRANCH  15  16
ATOM     16  O   UNL     1       4.352  -4.115  -0.527  0.00  0.00    -0.507 OA
ATOM     17  H   UNL     1       3.781  -4.228  -1.299  0.00  0.00    +0.292 HD
ENDBRANCH  15  16
ENDBRANCH   6  10
ENDBRANCH   1   2
BRANCH   1  22
ATOM     18  C   UNL     1      -3.534   0.971  -0.583  0.00  0.00    +0.044 C 
ATOM     19  C   UNL     1      -2.835  -0.356  -0.443  0.00  0.00    -0.050 A 
ATOM     20  C   UNL     1      -3.278  -1.276   0.489  0.00  0.00    +0.003 A 
ATOM     21  C   UNL     1      -2.637  -2.494   0.618  0.00  0.00    +0.005 A 
ATOM     22  C   UNL     1      -1.553  -2.792  -0.186  0.00  0.00    -0.029 A 
ATOM     23  C   UNL     1      -1.110  -1.873  -1.119  0.00  0.00    +0.005 A 
ATOM     24  C   UNL     1      -1.754  -0.657  -1.250  0.00  0.00    +0.003 A 
ENDBRANCH   1  22
BRANCH   1  25
ATOM     25  C   UNL     1      -1.846  -5.169   0.458  0.00  0.00    +0.129 C 
BRANCH  25  26
ATOM     26  N   UNL     1      -1.153  -6.446   0.647  0.00  0.00    -0.192 NA
ATOM     27  H   UNL     1      -0.267  -6.576   0.276  0.00  0.00    +0.148 HD
BRANCH  26  28
ATOM     28  S   UNL     1      -1.884  -7.666   1.496  0.00  0.00    +0.032 S 
ATOM     29  O   UNL     1      -3.150  -7.833   0.873  0.00  0.00    -0.158 OA
ATOM     30  O   UNL     1      -0.934  -8.723   1.501  0.00  0.00    -0.158 OA
BRANCH  28  31
ATOM     31  C   UNL     1      -2.095  -7.007   3.172  0.00  0.00    +0.142 C 
ATOM     32  C   UNL     1      -2.781  -8.056   4.050  0.00  0.00    +0.033 C 
ATOM     33  C   UNL     1      -0.725  -6.665   3.762  0.00  0.00    +0.033 C 
ENDBRANCH  28  31
ENDBRANCH  26  28
ENDBRANCH  25  26
ENDBRANCH   1  25
TORSDOF 8
