REMARK  Name = ZINC02451941
REMARK  3 active torsions:
REMARK  status: ('A' for Active; 'I' for Inactive)
REMARK    1  A    between atoms: C_1  and  C_2
REMARK    2  A    between atoms: C_5  and  N_9
REMARK    3  A    between atoms: C_29  and  C_34
REMARK                            x       y       z     vdW  Elec       q    Type
REMARK                         _______ _______ _______ _____ _____    ______ ____
ROOT
ATOM      1  N   UNL     1       0.058  -4.173  -0.023  0.00  0.00    -0.209 N 
ATOM      2  C   UNL     1      -1.058  -4.912  -0.027  0.00  0.00    +0.228 C 
ATOM      3  O   UNL     1      -2.188  -4.473  -0.024  0.00  0.00    -0.275 OA
ATOM      4  C   UNL     1      -0.689  -6.378  -0.038  0.00  0.00    +0.074 C 
ATOM      5  C   UNL     1      -1.101  -6.999  -1.385  0.00  0.00    -0.054 C 
ATOM      6  C   UNL     1      -2.246  -6.170  -1.996  0.00  0.00    -0.016 C 
ATOM      7  C   UNL     1      -1.560  -5.104  -2.873  0.00  0.00    -0.020 C 
ATOM      8  C   UNL     1      -0.048  -5.356  -2.705  0.00  0.00    -0.076 C 
ATOM      9  N   UNL     1       0.075  -6.798  -2.285  0.00  0.00    +0.395 N 
ATOM     10  C   UNL     1       1.246  -6.970  -1.408  0.00  0.00    +0.053 C 
ATOM     11  C   UNL     1       0.864  -6.358  -0.039  0.00  0.00    +0.089 C 
ATOM     12  C   UNL     1       1.193  -4.882  -0.033  0.00  0.00    +0.229 C 
ATOM     13  O   UNL     1       2.311  -4.414  -0.034  0.00  0.00    -0.275 OA
ATOM     14  C   UNL     1       1.625  -8.417  -1.269  0.00  0.00    -0.027 A 
ATOM     15  C   UNL     1       0.959  -9.531  -0.809  0.00  0.00    +0.006 A 
ATOM     16  C   UNL     1       1.590 -10.762  -0.803  0.00  0.00    +0.020 A 
ATOM     17  C   UNL     1       2.891 -10.871  -1.261  0.00  0.00    +0.046 A 
ATOM     18  C   UNL     1       3.562  -9.757  -1.724  0.00  0.00    -0.011 A 
ATOM     19  C   UNL     1       2.934  -8.514  -1.732  0.00  0.00    +0.040 A 
ATOM     20  N   UNL     1       3.395  -7.262  -2.143  0.00  0.00    -0.286 N 
ATOM     21  C   UNL     1       2.465  -6.301  -1.985  0.00  0.00    +0.212 C 
ATOM     22  O   UNL     1       2.585  -5.125  -2.256  0.00  0.00    -0.277 OA
ATOM     23  C   UNL     1       4.979  -9.886  -2.220  0.00  0.00    +0.047 C 
ATOM     24 CL   UNL     1       3.684 -12.416  -1.254  0.00  0.00    -0.083 Cl
ATOM     25  H   UNL     1       4.282  -7.102  -2.500  0.00  0.00    +0.155 HD
ATOM     26  H   UNL     1       0.076  -7.433  -3.069  0.00  0.00    -0.079 HD
ENDROOT
BRANCH   1  31
ATOM     27  C   UNL     1      -0.018   1.503   0.010  0.00  0.00    +0.044 C 
ATOM     28  C   UNL     1       0.002  -0.004   0.002  0.00  0.00    -0.049 A 
ATOM     29  C   UNL     1       0.006  -0.688  -1.200  0.00  0.00    +0.005 A 
ATOM     30  C   UNL     1       0.024  -2.068  -1.212  0.00  0.00    +0.025 A 
ATOM     31  C   UNL     1       0.040  -2.771  -0.014  0.00  0.00    +0.058 A 
ATOM     32  C   UNL     1       0.036  -2.082   1.192  0.00  0.00    +0.040 A 
ATOM     33  C   UNL     1       0.023  -0.700   1.196  0.00  0.00    +0.020 A 
ATOM     34 BR   UNL     1       0.056  -3.034   2.825  0.00  0.00    -0.048 Br
ENDBRANCH   1  31
TORSDOF 1
