REMARK  Name = ZINC09309878
REMARK  9 active torsions:
REMARK  status: ('A' for Active; 'I' for Inactive)
REMARK    1  A    between atoms: C_1  and  O_2
REMARK    2  A    between atoms: O_2  and  C_3
REMARK    3  A    between atoms: C_3  and  C_5
REMARK    4  A    between atoms: C_5  and  N_49
REMARK    5  A    between atoms: C_6  and  C_8
REMARK    6  A    between atoms: C_6  and  C_14
REMARK    7  A    between atoms: C_6  and  N_49
REMARK    8  A    between atoms: C_19  and  N_20
REMARK    9  A    between atoms: C_21  and  C_23
REMARK                            x       y       z     vdW  Elec       q    Type
REMARK                         _______ _______ _______ _____ _____    ______ ____
ROOT
ATOM      1  C   UNL     1      -1.290  -0.520  -0.606  0.00  0.00    -0.035 A 
ATOM      2  C   UNL     1      -2.407   0.290  -0.660  0.00  0.00    +0.019 A 
ATOM      3  C   UNL     1      -3.582  -0.185  -1.214  0.00  0.00    +0.018 A 
ATOM      4  C   UNL     1      -3.646  -1.478  -1.704  0.00  0.00    +0.017 A 
ATOM      5  C   UNL     1      -2.534  -2.294  -1.647  0.00  0.00    +0.024 A 
ATOM      6  C   UNL     1      -1.351  -1.817  -1.097  0.00  0.00    +0.036 A 
ATOM      7 BR   UNL     1      -5.107   0.931  -1.294  0.00  0.00    -0.050 Br
ENDROOT
BRANCH   6   8
ATOM      8  N   UNL     1      -0.223  -2.643  -1.038  0.00  0.00    -0.281 N 
ATOM      9  C   UNL     1      -0.367  -3.966  -0.826  0.00  0.00    +0.248 C 
ATOM     10  O   UNL     1      -1.478  -4.455  -0.766  0.00  0.00    -0.270 OA
ATOM     11  H   UNL     1       0.662  -2.263  -1.150  0.00  0.00    +0.155 HD
BRANCH   9  12
ATOM     12  C   UNL     1       0.827  -4.822  -0.665  0.00  0.00    +0.038 A 
ATOM     13  C   UNL     1       0.682  -6.193  -0.445  0.00  0.00    +0.013 A 
ATOM     14  C   UNL     1       1.800  -6.988  -0.295  0.00  0.00    +0.002 A 
ATOM     15  C   UNL     1       3.064  -6.429  -0.363  0.00  0.00    +0.020 A 
ATOM     16  C   UNL     1       3.216  -5.070  -0.581  0.00  0.00    +0.042 A 
ATOM     17  C   UNL     1       2.105  -4.265  -0.738  0.00  0.00    +0.033 A 
ATOM     18 CL   UNL     1       4.806  -4.378  -0.665  0.00  0.00    -0.084 Cl
ENDBRANCH   9  12
ENDBRANCH   6   8
BRANCH   1  19
ATOM     19  C   UNL     1      -0.009   0.001  -0.008  0.00  0.00    -0.007 C 
BRANCH  19  20
ATOM     20  C   UNL     1       0.126  -0.501   1.407  0.00  0.00    -0.057 A 
ATOM     21  C   UNL     1      -0.559   0.125   2.431  0.00  0.00    +0.002 A 
ATOM     22  C   UNL     1      -0.439  -0.338   3.728  0.00  0.00    +0.000 A 
ATOM     23  C   UNL     1       0.375  -1.421   4.002  0.00  0.00    +0.000 A 
ATOM     24  C   UNL     1       1.064  -2.045   2.978  0.00  0.00    +0.000 A 
ATOM     25  C   UNL     1       0.940  -1.585   1.681  0.00  0.00    +0.002 A 
ENDBRANCH  19  20
BRANCH  19  26
ATOM     26  N   UNL     1      -0.040   1.475  -0.006  0.00  0.00    +0.393 N 
ATOM     27  H   UNL     1      -0.535   1.805  -0.843  0.00  0.00    -0.084 HD
ATOM     28  H   UNL     1      -0.531   1.803   0.834  0.00  0.00    -0.084 HD
BRANCH  26  29
ATOM     29  C   UNL     1       1.333   2.016  -0.009  0.00  0.00    +0.041 C 
BRANCH  29  30
ATOM     30  C   UNL     1       1.270   3.522  -0.008  0.00  0.00    +0.290 C 
ATOM     31  O   UNL     1       0.200   4.082  -0.004  0.00  0.00    -0.253 OA
BRANCH  30  33
ATOM     32  C   UNL     1       2.268   5.687  -0.008  0.00  0.00    +0.280 C 
ATOM     33  O   UNL     1       2.404   4.241  -0.010  0.00  0.00    -0.469 OA
ENDBRANCH  30  33
ENDBRANCH  29  30
ENDBRANCH  26  29
ENDBRANCH  19  26
ENDBRANCH   1  19
TORSDOF 8
