REMARK  Name = ZINC09242984
REMARK  7 active torsions:
REMARK  status: ('A' for Active; 'I' for Inactive)
REMARK    1  A    between atoms: C_1  and  C_2
REMARK    2  A    between atoms: C_4  and  O_33
REMARK    3  A    between atoms: C_5  and  C_9
REMARK    4  A    between atoms: N_17  and  C_27
REMARK    5  A    between atoms: C_18  and  C_20
REMARK    6  A    between atoms: C_24  and  O_26
REMARK    7  A    between atoms: C_27  and  C_28
REMARK                            x       y       z     vdW  Elec       q    Type
REMARK                         _______ _______ _______ _____ _____    ______ ____
ROOT
ATOM      1  C   UNL     1      -0.228  -4.713  -0.091  0.00  0.00    +0.102 A 
ATOM      2  C   UNL     1       0.044  -5.342   1.129  0.00  0.00    +0.035 A 
ATOM      3  C   UNL     1       0.104  -6.694   0.850  0.00  0.00    +0.126 A 
ATOM      4  N   UNL     1      -0.129  -6.816  -0.490  0.00  0.00    -0.272 N 
ATOM      5  H   UNL     1      -0.150  -7.655  -0.978  0.00  0.00    +0.189 HD
ATOM      6  N   UNL     1      -0.324  -5.656  -1.008  0.00  0.00    -0.173 NA
ATOM      7  C   UNL     1       0.389  -7.415   2.096  0.00  0.00    +0.266 C 
ATOM      8  O   UNL     1       0.504  -8.623   2.189  0.00  0.00    -0.268 OA
ATOM      9  N   UNL     1       0.504  -6.552   3.121  0.00  0.00    -0.278 N 
ATOM     10  C   UNL     1       0.299  -5.193   2.604  0.00  0.00    +0.142 C 
ENDROOT
BRANCH   1  15
ATOM     11  C   UNL     1      -0.845   0.954  -0.941  0.00  0.00    +0.045 C 
ATOM     12  C   UNL     1      -0.685  -0.528  -0.720  0.00  0.00    -0.029 A 
ATOM     13  C   UNL     1      -1.595  -1.409  -1.276  0.00  0.00    +0.050 A 
ATOM     14  C   UNL     1      -1.453  -2.772  -1.075  0.00  0.00    +0.126 A 
ATOM     15  C   UNL     1      -0.387  -3.254  -0.310  0.00  0.00    +0.045 A 
ATOM     16  C   UNL     1       0.524  -2.360   0.245  0.00  0.00    +0.034 A 
ATOM     17  C   UNL     1       0.374  -1.003   0.033  0.00  0.00    +0.045 A 
ATOM     18 CL   UNL     1       1.515   0.111   0.721  0.00  0.00    -0.083 Cl
BRANCH  14  19
ATOM     19  O   UNL     1      -2.347  -3.638  -1.621  0.00  0.00    -0.506 OA
ATOM     20  H   UNL     1      -2.109  -3.943  -2.507  0.00  0.00    +0.292 HD
ENDBRANCH  14  19
ENDBRANCH   1  15
BRANCH  10  21
ATOM     21  C   UNL     1      -0.891  -4.556   3.274  0.00  0.00    -0.019 A 
ATOM     22  C   UNL     1      -2.046  -5.290   3.472  0.00  0.00    +0.006 A 
ATOM     23  C   UNL     1      -3.140  -4.709   4.087  0.00  0.00    +0.004 A 
ATOM     24  C   UNL     1      -3.081  -3.393   4.504  0.00  0.00    +0.045 A 
ATOM     25  C   UNL     1      -1.923  -2.655   4.307  0.00  0.00    +0.117 A 
ATOM     26  C   UNL     1      -0.825  -3.242   3.695  0.00  0.00    +0.051 A 
BRANCH  25  27
ATOM     27  O   UNL     1      -1.863  -1.361   4.717  0.00  0.00    -0.507 OA
ATOM     28  H   UNL     1      -1.543  -1.250   5.622  0.00  0.00    +0.292 HD
ENDBRANCH  25  27
ENDBRANCH  10  21
BRANCH   9  29
ATOM     29  C   UNL     1       0.785  -6.907   4.515  0.00  0.00    +0.183 C 
BRANCH  29  30
ATOM     30  C   UNL     1       2.275  -6.914   4.741  0.00  0.00    +0.122 A 
ATOM     31  C   UNL     1       3.015  -5.864   5.139  0.00  0.00    +0.046 A 
ATOM     32  C   UNL     1       4.353  -6.315   5.222  0.00  0.00    +0.041 A 
ATOM     33  C   UNL     1       4.350  -7.612   4.868  0.00  0.00    +0.195 A 
ATOM     34  O   UNL     1       3.087  -7.972   4.583  0.00  0.00    -0.466 OA
ENDBRANCH  29  30
ENDBRANCH   9  29
TORSDOF 6
