REMARK  Name = ZINC01827361
REMARK  7 active torsions:
REMARK  status: ('A' for Active; 'I' for Inactive)
REMARK    1  A    between atoms: C_1  and  C_2
REMARK    2  A    between atoms: C_5  and  N_9
REMARK    3  A    between atoms: C_6  and  C_8
REMARK    4  A    between atoms: C_10  and  C_35
REMARK    5  A    between atoms: C_13  and  S_14
REMARK    6  A    between atoms: S_14  and  C_15
REMARK    7  A    between atoms: C_16  and  C_28
REMARK                            x       y       z     vdW  Elec       q    Type
REMARK                         _______ _______ _______ _____ _____    ______ ____
ROOT
ATOM      1  C   UNL     1       3.678   1.703   0.061  0.00  0.00    +0.088 A 
ATOM      2  C   UNL     1       3.316   2.560   1.088  0.00  0.00    +0.010 A 
ATOM      3  C   UNL     1       2.003   3.221   1.011  0.00  0.00    +0.010 A 
ATOM      4  C   UNL     1       1.579   4.096   2.014  0.00  0.00    +0.049 A 
ATOM      5  C   UNL     1       0.342   4.697   1.916  0.00  0.00    +0.124 A 
ATOM      6  C   UNL     1      -0.477   4.443   0.822  0.00  0.00    +0.040 A 
ATOM      7  C   UNL     1      -0.070   3.582  -0.174  0.00  0.00    +0.029 A 
ATOM      8  C   UNL     1       1.173   2.962  -0.092  0.00  0.00    +0.050 A 
ATOM      9  N   UNL     1       1.595   2.096  -1.083  0.00  0.00    -0.321 N 
ATOM     10  H   UNL     1       0.997   1.919  -1.864  0.00  0.00    +0.169 HD
ATOM     11  C   UNL     1       2.791   1.488  -1.020  0.00  0.00    +0.264 A 
ATOM     12  O   UNL     1       3.121   0.732  -1.918  0.00  0.00    -0.267 OA
ATOM     13  F   UNL     1      -0.075   5.540   2.886  0.00  0.00    -0.205 F 
ENDROOT
BRANCH   2  14
ATOM     14  C   UNL     1       4.223   2.803   2.230  0.00  0.00    -0.016 A 
ATOM     15  C   UNL     1       3.873   2.363   3.509  0.00  0.00    +0.010 A 
ATOM     16  C   UNL     1       4.726   2.587   4.569  0.00  0.00    +0.020 A 
ATOM     17  C   UNL     1       5.921   3.258   4.370  0.00  0.00    +0.041 A 
ATOM     18  C   UNL     1       6.271   3.702   3.106  0.00  0.00    +0.020 A 
ATOM     19  C   UNL     1       5.429   3.478   2.036  0.00  0.00    +0.010 A 
ATOM     20 CL   UNL     1       6.986   3.543   5.711  0.00  0.00    -0.084 Cl
ENDBRANCH   2  14
BRANCH   1  21
ATOM     21  S   UNL     1       5.238   0.884   0.102  0.00  0.00    -0.044 S 
BRANCH  21  26
ATOM     22  N   UNL     1       5.505  -1.884   0.435  0.00  0.00    -0.269 N 
ATOM     23  C   UNL     1       4.647  -2.959   0.530  0.00  0.00    +0.176 A 
ATOM     24  N   UNL     1       3.424  -2.485   0.421  0.00  0.00    -0.127 NA
ATOM     25  N   UNL     1       3.459  -1.209   0.272  0.00  0.00    -0.121 NA
ATOM     26  C   UNL     1       4.702  -0.785   0.276  0.00  0.00    +0.201 A 
BRANCH  22  31
ATOM     27  C   UNL     1      11.175  -1.988   0.664  0.00  0.00    +0.044 C 
ATOM     28  C   UNL     1       9.669  -1.960   0.603  0.00  0.00    -0.050 A 
ATOM     29  C   UNL     1       8.935  -1.810   1.765  0.00  0.00    +0.005 A 
ATOM     30  C   UNL     1       7.555  -1.778   1.712  0.00  0.00    +0.027 A 
ATOM     31  C   UNL     1       6.905  -1.910   0.492  0.00  0.00    +0.053 A 
ATOM     32  C   UNL     1       7.646  -2.061  -0.673  0.00  0.00    -0.026 A 
ATOM     33  C   UNL     1       9.026  -2.087  -0.614  0.00  0.00    +0.008 A 
ATOM     34  C   UNL     1       6.945  -2.198  -2.000  0.00  0.00    +0.046 C 
ENDBRANCH  22  31
BRANCH  23  35
ATOM     35  C   UNL     1       5.026  -4.368   0.714  0.00  0.00    +0.057 A 
ATOM     36  C   UNL     1       4.276  -5.499   0.510  0.00  0.00    +0.019 A 
ATOM     37  C   UNL     1       4.853  -6.726   0.747  0.00  0.00    +0.008 A 
ATOM     38  C   UNL     1       6.138  -6.780   1.184  0.00  0.00    +0.046 A 
ATOM     39  S   UNL     1       6.580  -5.053   1.266  0.00  0.00    -0.094 S 
ENDBRANCH  23  35
ENDBRANCH  21  26
ENDBRANCH   1  21
TORSDOF 5
