REMARK  Name = ZINC20527811
REMARK  7 active torsions:
REMARK  status: ('A' for Active; 'I' for Inactive)
REMARK    1  A    between atoms: C_7  and  C_11
REMARK    2  A    between atoms: N_12  and  N_13
REMARK    3  A    between atoms: C_17  and  S_20
REMARK    4  A    between atoms: N_18  and  N_19
REMARK    5  A    between atoms: S_20  and  C_21
REMARK    6  A    between atoms: C_21  and  C_22
REMARK    7  A    between atoms: N_24  and  C_25
REMARK                            x       y       z     vdW  Elec       q    Type
REMARK                         _______ _______ _______ _____ _____    ______ ____
ROOT
ATOM      1  N   UNL     1      -4.834   1.762   0.096  0.00  0.00    -0.204 N 
ATOM      2  C   UNL     1      -5.879   2.674   0.095  0.00  0.00    +0.254 A 
ATOM      3  N   UNL     1      -5.763   3.980   0.104  0.00  0.00    -0.109 NA
ATOM      4  N   UNL     1      -7.051   4.530   0.097  0.00  0.00    -0.119 NA
ATOM      5  C   UNL     1      -7.914   3.542   0.091  0.00  0.00    +0.210 A 
ATOM      6  N   UNL     1      -7.212   2.369   0.090  0.00  0.00    -0.211 N 
ATOM      7  H   UNL     1      -5.046   0.683   0.092  0.00  0.00    +0.177 HD
ENDROOT
BRANCH   6   8
ATOM      8  N   UNL     1      -7.748   1.113   0.084  0.00  0.00    -0.294 N 
ATOM      9  H   UNL     1      -8.840   0.981   0.080  0.00  0.00    +0.163 HD
ATOM     10  H   UNL     1      -7.088   0.233   0.082  0.00  0.00    +0.163 HD
ENDBRANCH   6   8
BRANCH   1  12
ATOM     11  C   UNL     1      -2.530   1.362   0.102  0.00  0.00    +0.140 C 
ATOM     12  N   UNL     1      -3.509   2.216   0.101  0.00  0.00    -0.187 NA
BRANCH  11  19
ATOM     13  C   UNL     1      -0.622   5.630   0.122  0.00  0.00    +0.001 A 
ATOM     14  C   UNL     1       0.765   5.594   0.119  0.00  0.00    +0.002 A 
ATOM     15  C   UNL     1       1.436   4.391   0.115  0.00  0.00    +0.026 A 
ATOM     16  C   UNL     1       0.718   3.199   0.113  0.00  0.00    +0.047 A 
ATOM     17  C   UNL     1      -0.686   3.242   0.116  0.00  0.00    +0.008 A 
ATOM     18  C   UNL     1      -1.346   4.470   0.120  0.00  0.00    +0.010 A 
ATOM     19  C   UNL     1      -1.137   1.839   0.108  0.00  0.00    +0.020 A 
ATOM     20  C   UNL     1      -0.015   1.071   0.109  0.00  0.00    +0.093 A 
ATOM     21  N   UNL     1       1.091   1.872   0.109  0.00  0.00    -0.360 N 
ATOM     22  H   UNL     1       2.157   1.600   0.106  0.00  0.00    +0.165 HD
ENDBRANCH  11  19
ENDBRANCH   1  12
BRANCH   5  23
ATOM     23  S   UNL     1      -9.669   3.698   0.087  0.00  0.00    -0.075 S 
BRANCH  23  24
ATOM     24  C   UNL     1      -9.949   5.490   0.091  0.00  0.00    +0.173 C 
BRANCH  24  25
ATOM     25  C   UNL     1     -11.431   5.767   0.088  0.00  0.00    +0.228 C 
ATOM     26  O   UNL     1     -12.220   4.846   0.083  0.00  0.00    -0.275 OA
ATOM     27  N   UNL     1     -11.879   7.038   0.090  0.00  0.00    -0.284 N 
ATOM     28  H   UNL     1     -11.166   7.872   0.169  0.00  0.00    +0.155 HD
BRANCH  27  29
ATOM     29  C   UNL     1     -13.251   7.296  -0.008  0.00  0.00    +0.047 A 
ATOM     30  C   UNL     1     -14.165   6.434   0.583  0.00  0.00    +0.024 A 
ATOM     31  C   UNL     1     -15.518   6.694   0.488  0.00  0.00    +0.002 A 
ATOM     32  C   UNL     1     -15.964   7.806  -0.203  0.00  0.00    +0.001 A 
ATOM     33  C   UNL     1     -15.057   8.664  -0.797  0.00  0.00    +0.017 A 
ATOM     34  C   UNL     1     -13.701   8.413  -0.702  0.00  0.00    +0.039 A 
ATOM     35 BR   UNL     1     -12.461   9.586  -1.516  0.00  0.00    -0.048 Br
ENDBRANCH  27  29
ENDBRANCH  24  25
ENDBRANCH  23  24
ENDBRANCH   5  23
TORSDOF 7
