REMARK  Name = ZINC35664901
REMARK  11 active torsions:
REMARK  status: ('A' for Active; 'I' for Inactive)
REMARK    1  A    between atoms: C_1  and  C_2
REMARK    2  A    between atoms: C_2  and  O_3
REMARK    3  A    between atoms: O_3  and  C_4
REMARK    4  A    between atoms: C_4  and  C_6
REMARK    5  A    between atoms: C_7  and  C_24
REMARK    6  A    between atoms: N_8  and  C_21
REMARK    7  A    between atoms: C_12  and  C_14
REMARK    8  A    between atoms: C_18  and  C_20
REMARK    9  A    between atoms: C_21  and  C_22
REMARK   10  A    between atoms: C_24  and  N_25
REMARK   11  A    between atoms: C_32  and  C_34
REMARK                            x       y       z     vdW  Elec       q    Type
REMARK                         _______ _______ _______ _____ _____    ______ ____
ROOT
ATOM      1  C   UNL     1      -2.205  -1.989   0.051  0.00  0.00    +0.076 C 
ATOM      2  C   UNL     1      -2.551  -3.279  -0.149  0.00  0.00    +0.011 C 
ATOM      3  N   UNL     1      -3.852  -3.635  -0.362  0.00  0.00    -0.257 N 
ATOM      4  C   UNL     1      -4.866  -2.761  -0.391  0.00  0.00    +0.307 C 
ATOM      5  O   UNL     1      -5.992  -3.173  -0.588  0.00  0.00    -0.252 OA
ATOM      6  N   UNL     1      -4.678  -1.439  -0.208  0.00  0.00    -0.288 N 
ATOM      7  C   UNL     1      -3.310  -0.952   0.036  0.00  0.00    +0.143 C 
ATOM      8  H   UNL     1      -5.427  -0.823  -0.233  0.00  0.00    +0.151 HD
ENDROOT
BRANCH   7   9
ATOM      9  C   UNL     1      -2.984   0.059  -1.033  0.00  0.00    -0.022 A 
ATOM     10  C   UNL     1      -3.260  -0.223  -2.358  0.00  0.00    +0.006 A 
ATOM     11  C   UNL     1      -2.961   0.704  -3.338  0.00  0.00    +0.001 A 
ATOM     12  C   UNL     1      -2.387   1.914  -2.994  0.00  0.00    +0.003 A 
ATOM     13  C   UNL     1      -2.112   2.196  -1.669  0.00  0.00    -0.050 A 
ATOM     14  C   UNL     1      -2.415   1.270  -0.688  0.00  0.00    +0.009 A 
ATOM     15  C   UNL     1      -1.487   3.515  -1.294  0.00  0.00    +0.044 C 
ENDBRANCH   7   9
BRANCH   1  16
ATOM     16  C   UNL     1      -0.858  -1.619   0.272  0.00  0.00    +0.339 C 
ATOM     17  O   UNL     1      -0.001  -2.476   0.379  0.00  0.00    -0.245 OA
BRANCH  16  18
ATOM     18  O   UNL     1      -0.523  -0.315   0.365  0.00  0.00    -0.462 OA
BRANCH  18  20
ATOM     19  C   UNL     1       1.041   1.503   0.665  0.00  0.00    +0.048 C 
ATOM     20  C   UNL     1       0.856  -0.014   0.589  0.00  0.00    +0.229 C 
ENDBRANCH  18  20
ENDBRANCH  16  18
ENDBRANCH   1  16
BRANCH   3  21
ATOM     21  C   UNL     1      -4.155  -5.053  -0.571  0.00  0.00    +0.141 C 
BRANCH  21  22
ATOM     22  C   UNL     1      -4.554  -5.680   0.740  0.00  0.00    -0.015 C 
ATOM     23  C   UNL     1      -5.719  -6.268   0.857  0.00  0.00    +0.005 C 
ENDBRANCH  21  22
ENDBRANCH   3  21
BRANCH   2  24
ATOM     24  C   UNL     1      -1.484  -4.343  -0.137  0.00  0.00    -0.026 C 
BRANCH  24  25
ATOM     25  N   UNL     1      -1.040  -4.606  -1.512  0.00  0.00    +0.384 N 
ATOM     26  C   UNL     1      -0.211  -5.810  -1.506  0.00  0.00    -0.077 C 
ATOM     27  C   UNL     1      -0.335  -6.507  -2.843  0.00  0.00    +0.000 C 
ATOM     28  C   UNL     1       0.799  -6.038  -3.773  0.00  0.00    +0.106 C 
ATOM     29  N   UNL     1       1.044  -4.589  -3.621  0.00  0.00    -0.297 N 
ATOM     30  C   UNL     1      -0.034  -3.630  -3.495  0.00  0.00    +0.089 C 
ATOM     31  C   UNL     1      -0.401  -3.446  -2.004  0.00  0.00    -0.059 C 
ATOM     32  C   UNL     1       2.316  -4.144  -3.600  0.00  0.00    +0.282 C 
ATOM     33  O   UNL     1       3.235  -4.917  -3.802  0.00  0.00    -0.267 OA
ATOM     34  H   UNL     1      -1.854  -4.786  -2.079  0.00  0.00    -0.081 HD
BRANCH  32  35
ATOM     35  C   UNL     1       2.593  -2.729  -3.334  0.00  0.00    +0.189 A 
ATOM     36  C   UNL     1       3.816  -2.124  -3.400  0.00  0.00    +0.054 A 
ATOM     37  C   UNL     1       3.617  -0.774  -3.071  0.00  0.00    +0.042 A 
ATOM     38  C   UNL     1       2.298  -0.616  -2.822  0.00  0.00    +0.196 A 
ATOM     39  O   UNL     1       1.684  -1.794  -2.986  0.00  0.00    -0.458 OA
ENDBRANCH  32  35
ENDBRANCH  24  25
ENDBRANCH   2  24
TORSDOF 9
