REMARK  Name = ZINC04307493
REMARK  9 active torsions:
REMARK  status: ('A' for Active; 'I' for Inactive)
REMARK    1  A    between atoms: C_1  and  C_2
REMARK    2  A    between atoms: C_5  and  C_8
REMARK    3  A    between atoms: C_8  and  N_9
REMARK    4  A    between atoms: N_9  and  C_10
REMARK    5  A    between atoms: C_11  and  C_13
REMARK    6  A    between atoms: C_13  and  N_14
REMARK    7  A    between atoms: C_17  and  C_21
REMARK    8  A    between atoms: C_17  and  C_22
REMARK    9  A    between atoms: C_25  and  N_28
REMARK                            x       y       z     vdW  Elec       q    Type
REMARK                         _______ _______ _______ _____ _____    ______ ____
ROOT
ATOM      1  N   UNL     1      -4.983   2.443   3.937  0.00  0.00    -0.215 N 
ATOM      2  C   UNL     1      -6.324   2.476   3.810  0.00  0.00    +0.251 C 
ATOM      3  O   UNL     1      -7.033   1.633   3.303  0.00  0.00    -0.272 OA
ATOM      4  C   UNL     1      -6.763   3.787   4.432  0.00  0.00    +0.135 C 
ATOM      5  N   UNL     1      -5.499   4.397   4.879  0.00  0.00    -0.281 N 
ATOM      6  C   UNL     1      -4.519   3.537   4.551  0.00  0.00    +0.310 C 
ATOM      7  O   UNL     1      -3.342   3.733   4.783  0.00  0.00    -0.252 OA
ATOM      8  C   UNL     1      -7.690   3.534   5.622  0.00  0.00    +0.047 C 
ATOM      9  H   UNL     1      -5.395   5.252   5.326  0.00  0.00    +0.152 HD
ENDROOT
BRANCH   4  10
ATOM     10  C   UNL     1      -7.440   4.660   3.407  0.00  0.00    -0.015 A 
ATOM     11  C   UNL     1      -8.129   4.084   2.355  0.00  0.00    +0.008 A 
ATOM     12  C   UNL     1      -8.754   4.885   1.418  0.00  0.00    +0.033 A 
ATOM     13  C   UNL     1      -8.681   6.261   1.526  0.00  0.00    +0.126 A 
ATOM     14  C   UNL     1      -7.988   6.837   2.575  0.00  0.00    +0.033 A 
ATOM     15  C   UNL     1      -7.368   6.036   3.515  0.00  0.00    +0.008 A 
BRANCH  13  16
ATOM     16  N   UNL     1      -9.346   7.119   0.519  0.00  0.00    +0.056 N 
ATOM     17  O   UNL     1      -9.282   8.331   0.614  0.00  0.00    -0.126 OA
ATOM     18  O   UNL     1      -9.956   6.612  -0.405  0.00  0.00    -0.126 OA
ENDBRANCH  13  16
ENDBRANCH   4  10
BRANCH   1  19
ATOM     19  C   UNL     1      -4.139   1.342   3.466  0.00  0.00    +0.213 C 
BRANCH  19  22
ATOM     20  N   UNL     1      -2.927   0.722   1.401  0.00  0.00    -0.299 N 
ATOM     21  C   UNL     1      -2.484  -0.497   2.083  0.00  0.00    +0.132 C 
ATOM     22  C   UNL     1      -3.714   1.607   2.045  0.00  0.00    +0.234 C 
ATOM     23  O   UNL     1      -4.080   2.615   1.480  0.00  0.00    -0.274 OA
BRANCH  20  24
ATOM     24  C   UNL     1      -2.514   0.980   0.019  0.00  0.00    +0.142 C 
BRANCH  24  29
ATOM     25  C   UNL     1       2.451   3.937  -0.001  0.00  0.00    +0.044 C 
ATOM     26  C   UNL     1       1.156   3.165   0.008  0.00  0.00    -0.050 A 
ATOM     27  C   UNL     1       1.175   1.783   0.000  0.00  0.00    +0.003 A 
ATOM     28  C   UNL     1      -0.013   1.076   0.008  0.00  0.00    +0.005 A 
ATOM     29  C   UNL     1      -1.219   1.751   0.017  0.00  0.00    -0.030 A 
ATOM     30  C   UNL     1      -1.238   3.133   0.030  0.00  0.00    +0.005 A 
ATOM     31  C   UNL     1      -0.050   3.840   0.022  0.00  0.00    +0.003 A 
ENDBRANCH  24  29
ENDBRANCH  20  24
ENDBRANCH  19  22
ENDBRANCH   1  19
TORSDOF 6
