REMARK  Name = ZINC00714785
REMARK  11 active torsions:
REMARK  status: ('A' for Active; 'I' for Inactive)
REMARK    1  A    between atoms: C_1  and  O_2
REMARK    2  A    between atoms: O_2  and  C_3
REMARK    3  A    between atoms: C_5  and  C_13
REMARK    4  A    between atoms: C_7  and  O_11
REMARK    5  A    between atoms: C_8  and  O_9
REMARK    6  A    between atoms: O_9  and  C_10
REMARK    7  A    between atoms: O_11  and  C_12
REMARK    8  A    between atoms: C_15  and  C_37
REMARK    9  A    between atoms: C_16  and  N_36
REMARK   10  A    between atoms: N_17  and  C_25
REMARK   11  A    between atoms: C_26  and  C_34
REMARK                            x       y       z     vdW  Elec       q    Type
REMARK                         _______ _______ _______ _____ _____    ______ ____
ROOT
ATOM      1  C   UNL     1       0.030   1.103  -0.037  0.00  0.00    +0.098 C 
ATOM      2  C   UNL     1      -0.771   1.590   1.135  0.00  0.00    +0.077 C 
ATOM      3  C   UNL     1      -0.339   2.626   1.899  0.00  0.00    +0.107 C 
ATOM      4  N   UNL     1       0.858   3.245   1.610  0.00  0.00    -0.253 N 
ATOM      5  C   UNL     1       1.802   2.610   0.845  0.00  0.00    +0.025 C 
ATOM      6  C   UNL     1       1.457   1.581   0.042  0.00  0.00    +0.025 C 
ATOM      7  C   UNL     1       2.418   0.926  -0.749  0.00  0.00    +0.162 C 
ATOM      8  O   UNL     1       2.079  -0.006  -1.451  0.00  0.00    -0.292 OA
ATOM      9  C   UNL     1       3.860   1.357  -0.741  0.00  0.00    +0.080 C 
ATOM     10  C   UNL     1       3.931   2.852  -0.411  0.00  0.00    +0.014 C 
ATOM     11  C   UNL     1       3.231   3.086   0.929  0.00  0.00    +0.052 C 
ENDROOT
BRANCH   4  12
ATOM     12  C   UNL     1       1.110   4.520   2.098  0.00  0.00    +0.095 A 
ATOM     13  C   UNL     1       1.672   4.883   3.313  0.00  0.00    +0.084 A 
ATOM     14  C   UNL     1       1.830   6.300   3.584  0.00  0.00    -0.018 A 
ATOM     15  C   UNL     1       1.402   7.125   2.602  0.00  0.00    -0.004 A 
ATOM     16  S   UNL     1       0.805   6.045   1.333  0.00  0.00    -0.076 S 
ATOM     17  C   UNL     1       1.437   8.622   2.602  0.00  0.00    +0.043 C 
ATOM     18  C   UNL     1       1.688   9.101   4.039  0.00  0.00    +0.005 C 
ATOM     19  C   UNL     1       2.857   8.305   4.627  0.00  0.00    +0.005 C 
ATOM     20  C   UNL     1       2.430   6.856   4.870  0.00  0.00    +0.037 C 
BRANCH  13  21
ATOM     21  C   UNL     1       2.082   3.894   4.264  0.00  0.00    +0.102 C 
ATOM     22  N   UNL     1       2.408   3.111   5.020  0.00  0.00    -0.191 NA
ENDBRANCH  13  21
ENDBRANCH   4  12
BRANCH   1  25
ATOM     23  C   UNL     1      -1.640   1.196  -3.426  0.00  0.00    +0.165 A 
ATOM     24  C   UNL     1      -1.066   0.727  -2.254  0.00  0.00    +0.054 A 
ATOM     25  C   UNL     1      -0.595   1.618  -1.308  0.00  0.00    -0.028 A 
ATOM     26  C   UNL     1      -0.700   2.979  -1.522  0.00  0.00    +0.054 A 
ATOM     27  C   UNL     1      -1.268   3.457  -2.693  0.00  0.00    +0.165 A 
ATOM     28  C   UNL     1      -1.743   2.564  -3.648  0.00  0.00    +0.204 A 
BRANCH  23  30
ATOM     29  C   UNL     1      -1.965  -1.072  -4.061  0.00  0.00    +0.277 C 
ATOM     30  O   UNL     1      -2.103   0.319  -4.356  0.00  0.00    -0.491 OA
ENDBRANCH  23  30
BRANCH  28  31
ATOM     31  O   UNL     1      -2.305   3.029  -4.796  0.00  0.00    -0.488 OA
ATOM     32  C   UNL     1      -3.716   3.256  -4.782  0.00  0.00    +0.277 C 
ENDBRANCH  28  31
BRANCH  27  33
ATOM     33  O   UNL     1      -1.367   4.796  -2.906  0.00  0.00    -0.491 OA
ATOM     34  C   UNL     1      -0.858   5.654  -1.882  0.00  0.00    +0.277 C 
ENDBRANCH  27  33
ENDBRANCH   1  25
BRANCH   3  35
ATOM     35  N   UNL     1      -1.097   3.059   2.961  0.00  0.00    -0.345 N 
ATOM     36  H   UNL     1      -0.834   3.852   3.453  0.00  0.00    +0.144 HD
ATOM     37  H   UNL     1      -1.895   2.571   3.218  0.00  0.00    +0.144 HD
ENDBRANCH   3  35
BRANCH   2  38
ATOM     38  C   UNL     1      -2.013   0.951   1.453  0.00  0.00    +0.099 C 
ATOM     39  N   UNL     1      -2.998   0.445   1.705  0.00  0.00    -0.191 NA
ENDBRANCH   2  38
TORSDOF 8
