REMARK  Name = ZINC09451219
REMARK  8 active torsions:
REMARK  status: ('A' for Active; 'I' for Inactive)
REMARK    1  A    between atoms: C_1  and  O_2
REMARK    2  A    between atoms: O_2  and  C_3
REMARK    3  A    between atoms: C_3  and  C_4
REMARK    4  A    between atoms: C_3  and  O_33
REMARK    5  A    between atoms: C_4  and  N_5
REMARK    6  A    between atoms: C_13  and  N_15
REMARK    7  A    between atoms: N_22  and  C_25
REMARK    8  A    between atoms: O_33  and  C_34
REMARK                            x       y       z     vdW  Elec       q    Type
REMARK                         _______ _______ _______ _____ _____    ______ ____
ROOT
ATOM      1  N   UNL     1      -1.028  -2.974  -2.030  0.00  0.00    -0.323 N 
ATOM      2  C   UNL     1      -0.925  -2.904  -0.566  0.00  0.00    +0.131 C 
ATOM      3  C   UNL     1      -1.607  -4.154   0.009  0.00  0.00    +0.145 C 
ATOM      4  C   UNL     1      -3.092  -4.110  -0.355  0.00  0.00    +0.064 C 
ATOM      5  C   UNL     1      -3.262  -3.891  -1.836  0.00  0.00    -0.023 A 
ATOM      6  C   UNL     1      -2.250  -3.336  -2.607  0.00  0.00    +0.033 A 
ATOM      7  C   UNL     1      -2.440  -3.142  -3.970  0.00  0.00    +0.025 A 
ATOM      8  C   UNL     1      -3.638  -3.496  -4.559  0.00  0.00    +0.034 A 
ATOM      9  C   UNL     1      -4.648  -4.046  -3.790  0.00  0.00    +0.127 A 
ATOM     10  C   UNL     1      -4.458  -4.250  -2.434  0.00  0.00    +0.038 A 
ATOM     11  C   UNL     1      -1.453  -4.162   1.503  0.00  0.00    +0.257 C 
ATOM     12  N   UNL     1      -0.838  -5.143   2.147  0.00  0.00    -0.126 NA
ATOM     13  C   UNL     1      -0.319  -6.179   1.527  0.00  0.00    +0.339 C 
ATOM     14  O   UNL     1       0.291  -7.137   2.249  0.00  0.00    -0.250 OA
ATOM     15  N   UNL     1      -0.382  -6.308   0.170  0.00  0.00    -0.192 N 
ATOM     16  C   UNL     1      -0.980  -5.380  -0.594  0.00  0.00    +0.244 C 
ATOM     17  O   UNL     1      -1.016  -5.535  -1.796  0.00  0.00    -0.274 OA
ATOM     18  O   UNL     1      -1.909  -3.235   2.143  0.00  0.00    -0.272 OA
ENDROOT
BRANCH  15  19
ATOM     19  C   UNL     1       0.189  -7.435  -0.440  0.00  0.00    +0.046 A 
ATOM     20  C   UNL     1      -0.368  -8.690  -0.241  0.00  0.00    +0.025 A 
ATOM     21  C   UNL     1       0.196  -9.798  -0.842  0.00  0.00    +0.022 A 
ATOM     22  C   UNL     1       1.316  -9.657  -1.642  0.00  0.00    +0.041 A 
ATOM     23  C   UNL     1       1.873  -8.407  -1.842  0.00  0.00    +0.022 A 
ATOM     24  C   UNL     1       1.309  -7.295  -1.248  0.00  0.00    +0.025 A 
ATOM     25 CL   UNL     1       2.023 -11.052  -2.397  0.00  0.00    -0.084 Cl
ENDBRANCH  15  19
BRANCH   9  26
ATOM     26  N   UNL     1      -5.931  -4.427  -4.421  0.00  0.00    +0.056 N 
ATOM     27  O   UNL     1      -6.096  -4.258  -5.607  0.00  0.00    -0.126 OA
ATOM     28  O   UNL     1      -6.815  -4.907  -3.751  0.00  0.00    -0.126 OA
ENDBRANCH   9  26
BRANCH   1  29
ATOM     29  C   UNL     1       0.129  -2.662  -2.873  0.00  0.00    +0.166 C 
BRANCH  29  30
ATOM     30  C   UNL     1       0.135  -1.167  -3.199  0.00  0.00    +0.266 C 
BRANCH  30  32
ATOM     31  C   UNL     1       0.701   0.916  -2.157  0.00  0.00    +0.197 C 
ATOM     32  O   UNL     1       0.214  -0.416  -1.986  0.00  0.00    -0.353 OA
ENDBRANCH  30  32
BRANCH  30  33
ATOM     33  O   UNL     1      -1.066  -0.826  -3.893  0.00  0.00    -0.353 OA
ATOM     34  C   UNL     1      -1.008   0.431  -4.572  0.00  0.00    +0.197 C 
ENDBRANCH  30  33
ENDBRANCH  29  30
ENDBRANCH   1  29
TORSDOF 6
