REMARK  Name = ZINC03006916
REMARK  10 active torsions:
REMARK  status: ('A' for Active; 'I' for Inactive)
REMARK    1  A    between atoms: C_1  and  C_2
REMARK    2  A    between atoms: C_2  and  O_3
REMARK    3  A    between atoms: O_3  and  C_4
REMARK    4  A    between atoms: C_4  and  C_6
REMARK    5  A    between atoms: C_10  and  N_11
REMARK    6  A    between atoms: C_12  and  C_14
REMARK    7  A    between atoms: C_17  and  S_20
REMARK    8  A    between atoms: S_20  and  N_23
REMARK    9  A    between atoms: C_26  and  C_29
REMARK   10  A    between atoms: N_31  and  C_34
REMARK                            x       y       z     vdW  Elec       q    Type
REMARK                         _______ _______ _______ _____ _____    ______ ____
ROOT
ATOM      1  N   UNL     1      -0.602  -2.455  -3.928  0.00  0.00    -0.275 N 
ATOM      2  C   UNL     1      -1.116  -2.783  -5.130  0.00  0.00    +0.249 C 
ATOM      3  O   UNL     1      -0.392  -3.228  -5.999  0.00  0.00    -0.270 OA
ATOM      4  H   UNL     1      -1.180  -2.101  -3.233  0.00  0.00    +0.156 HD
ENDROOT
BRANCH   1   9
ATOM      5  C   UNL     1       1.449  -2.344  -2.516  0.00  0.00    +0.091 A 
ATOM      6  C   UNL     1       2.872  -2.619  -2.517  0.00  0.00    -0.025 A 
ATOM      7  C   UNL     1       3.342  -3.118  -3.683  0.00  0.00    -0.021 A 
ATOM      8  S   UNL     1       1.923  -3.214  -4.732  0.00  0.00    -0.079 S 
ATOM      9  C   UNL     1       0.751  -2.625  -3.683  0.00  0.00    +0.086 A 
ATOM     10  C   UNL     1       4.761  -3.489  -3.976  0.00  0.00    -0.036 C 
ATOM     11  N   UNL     1       5.622  -2.878  -2.946  0.00  0.00    +0.381 N 
ATOM     12  C   UNL     1       5.097  -3.195  -1.612  0.00  0.00    -0.074 C 
ATOM     13  C   UNL     1       3.817  -2.396  -1.344  0.00  0.00    +0.018 C 
ATOM     14  C   UNL     1       6.987  -3.408  -3.073  0.00  0.00    -0.096 C 
ATOM     15  H   UNL     1       5.638  -1.877  -3.072  0.00  0.00    -0.082 HD
BRANCH   5  16
ATOM     16  C   UNL     1       0.776  -1.800  -1.335  0.00  0.00    +0.342 C 
ATOM     17  O   UNL     1       0.312  -2.552  -0.499  0.00  0.00    -0.245 OA
BRANCH  16  18
ATOM     18  O   UNL     1       0.671  -0.465  -1.174  0.00  0.00    -0.461 OA
BRANCH  18  20
ATOM     19  C   UNL     1      -0.019   1.526   0.010  0.00  0.00    +0.048 C 
ATOM     20  C   UNL     1       0.002  -0.004   0.002  0.00  0.00    +0.229 C 
ENDBRANCH  18  20
ENDBRANCH  16  18
ENDBRANCH   5  16
ENDBRANCH   1   9
BRANCH   2  21
ATOM     21  C   UNL     1      -2.559  -2.603  -5.390  0.00  0.00    +0.037 A 
ATOM     22  C   UNL     1      -3.392  -2.087  -4.396  0.00  0.00    +0.015 A 
ATOM     23  C   UNL     1      -4.739  -1.920  -4.646  0.00  0.00    +0.029 A 
ATOM     24  C   UNL     1      -5.264  -2.263  -5.879  0.00  0.00    +0.106 A 
ATOM     25  C   UNL     1      -4.444  -2.775  -6.869  0.00  0.00    +0.029 A 
ATOM     26  C   UNL     1      -3.095  -2.941  -6.634  0.00  0.00    +0.015 A 
BRANCH  24  27
ATOM     27  S   UNL     1      -6.985  -2.047  -6.190  0.00  0.00    +0.061 S 
ATOM     28  O   UNL     1      -7.326  -2.951  -7.232  0.00  0.00    -0.153 OA
ATOM     29  O   UNL     1      -7.631  -2.064  -4.925  0.00  0.00    -0.153 OA
BRANCH  27  30
ATOM     30  N   UNL     1      -7.184  -0.521  -6.802  0.00  0.00    -0.177 NA
ATOM     31  C   UNL     1      -7.423   0.619  -5.907  0.00  0.00    +0.110 C 
ATOM     32  C   UNL     1      -8.691   1.347  -6.364  0.00  0.00    +0.020 C 
ATOM     33  C   UNL     1      -8.554   1.725  -7.841  0.00  0.00    -0.012 C 
ATOM     34  C   UNL     1      -8.396   0.456  -8.681  0.00  0.00    +0.020 C 
ATOM     35  C   UNL     1      -7.119  -0.281  -8.250  0.00  0.00    +0.110 C 
ATOM     36  C   UNL     1      -9.804   2.483  -8.292  0.00  0.00    +0.007 C 
ENDBRANCH  27  30
ENDBRANCH  24  27
ENDBRANCH   2  21
TORSDOF 7
