REMARK  Name = ZINC20532179
REMARK  10 active torsions:
REMARK  status: ('A' for Active; 'I' for Inactive)
REMARK    1  A    between atoms: C_1  and  C_2
REMARK    2  A    between atoms: C_2  and  C_3
REMARK    3  A    between atoms: C_2  and  C_4
REMARK    4  A    between atoms: C_4  and  C_5
REMARK    5  A    between atoms: C_5  and  C_6
REMARK    6  A    between atoms: C_6  and  C_8
REMARK    7  A    between atoms: C_6  and  N_23
REMARK    8  A    between atoms: C_12  and  N_13
REMARK    9  A    between atoms: N_19  and  C_22
REMARK   10  A    between atoms: N_26  and  C_27
REMARK                            x       y       z     vdW  Elec       q    Type
REMARK                         _______ _______ _______ _____ _____    ______ ____
ROOT
ATOM      1  C   UNL     1      -3.305   1.496  -0.378  0.00  0.00    +0.108 C 
ENDROOT
BRANCH   1   2
ATOM      2  C   UNL     1      -4.530   0.759  -0.856  0.00  0.00    +0.007 A 
ATOM      3  C   UNL     1      -4.733  -0.569  -0.489  0.00  0.00    -0.034 A 
ATOM      4  C   UNL     1      -5.863  -1.167  -0.957  0.00  0.00    -0.021 A 
ATOM      5  S   UNL     1      -6.647   0.099  -1.916  0.00  0.00    -0.077 S 
ATOM      6  C   UNL     1      -5.437   1.387  -1.651  0.00  0.00    +0.090 A 
ATOM      7  C   UNL     1      -6.304  -2.572  -0.706  0.00  0.00    -0.036 C 
ATOM      8  N   UNL     1      -5.159  -3.321  -0.153  0.00  0.00    +0.381 N 
ATOM      9  C   UNL     1      -4.536  -2.576   0.950  0.00  0.00    -0.074 C 
ATOM     10  C   UNL     1      -3.783  -1.359   0.407  0.00  0.00    +0.018 C 
ATOM     11  C   UNL     1      -5.570  -4.662   0.284  0.00  0.00    -0.096 C 
ATOM     12  H   UNL     1      -4.408  -3.445  -0.947  0.00  0.00    -0.082 HD
BRANCH   6  13
ATOM     13  N   UNL     1      -5.426   2.700  -2.136  0.00  0.00    -0.317 N 
ATOM     14  C   UNL     1      -4.544   3.676  -1.770  0.00  0.00    +0.092 A 
ATOM     15  C   UNL     1      -4.852   4.798  -2.452  0.00  0.00    +0.019 A 
ATOM     16  C   UNL     1      -5.968   4.509  -3.261  0.00  0.00    +0.019 A 
ATOM     17  C   UNL     1      -6.298   3.219  -3.049  0.00  0.00    +0.092 A 
ENDBRANCH   6  13
ENDBRANCH   1   2
BRANCH   1  18
ATOM     18  N   UNL     1      -2.231   0.537  -0.109  0.00  0.00    -0.292 N 
ATOM     19  C   UNL     1      -1.398   0.163  -1.100  0.00  0.00    +0.301 C 
ATOM     20  O   UNL     1      -1.538   0.621  -2.217  0.00  0.00    -0.253 OA
ATOM     21  N   UNL     1      -0.410  -0.720  -0.852  0.00  0.00    -0.294 N 
ATOM     22  H   UNL     1      -2.105   0.122   0.902  0.00  0.00    +0.151 HD
ATOM     23  H   UNL     1      -0.281  -1.131   0.160  0.00  0.00    +0.151 HD
BRANCH  21  24
ATOM     24  C   UNL     1       0.492  -1.132  -1.931  0.00  0.00    +0.037 C 
ATOM     25  C   UNL     1      -0.319  -1.782  -3.053  0.00  0.00    +0.029 C 
ATOM     26  C   UNL     1       0.623  -2.212  -4.180  0.00  0.00    -0.008 C 
ATOM     27  C   UNL     1       1.641  -3.217  -3.637  0.00  0.00    +0.007 C 
ATOM     28  C   UNL     1       2.452  -2.567  -2.515  0.00  0.00    -0.008 C 
ATOM     29  C   UNL     1       1.510  -2.137  -1.388  0.00  0.00    +0.029 C 
ATOM     30  C   UNL     1       3.187  -1.341  -3.061  0.00  0.00    +0.007 C 
ATOM     31  C   UNL     1       2.169  -0.336  -3.603  0.00  0.00    -0.008 C 
ATOM     32  C   UNL     1       1.358  -0.986  -4.726  0.00  0.00    +0.007 C 
ATOM     33  C   UNL     1       1.227   0.094  -2.476  0.00  0.00    +0.029 C 
ENDBRANCH  21  24
ENDBRANCH   1  18
BRANCH   1  34
ATOM     34  C   UNL     1      -3.639   2.262   0.904  0.00  0.00    +0.027 C 
BRANCH  34  35
ATOM     35  C   UNL     1      -2.434   3.109   1.320  0.00  0.00    +0.005 C 
BRANCH  35  37
ATOM     36  C   UNL     1      -2.980   2.882   3.748  0.00  0.00    +0.007 C 
ATOM     37  C   UNL     1      -2.768   3.874   2.602  0.00  0.00    -0.017 C 
ATOM     38  C   UNL     1      -1.612   4.815   2.950  0.00  0.00    +0.007 C 
ENDBRANCH  35  37
ENDBRANCH  34  35
ENDBRANCH   1  34
TORSDOF 7
