REMARK  Name = ZINC39337211
REMARK  8 active torsions:
REMARK  status: ('A' for Active; 'I' for Inactive)
REMARK    1  A    between atoms: C_1  and  O_2
REMARK    2  A    between atoms: O_2  and  C_3
REMARK    3  A    between atoms: C_3  and  C_5
REMARK    4  A    between atoms: C_8  and  C_11
REMARK    5  A    between atoms: C_11  and  N_12
REMARK    6  A    between atoms: N_21  and  C_24
REMARK    7  A    between atoms: C_28  and  S_30
REMARK    8  A    between atoms: S_30  and  C_32
REMARK                            x       y       z     vdW  Elec       q    Type
REMARK                         _______ _______ _______ _____ _____    ______ ____
ROOT
ATOM      1  N   UNL     1      -1.441  -6.919   1.328  0.00  0.00    -0.216 N 
ATOM      2  C   UNL     1      -0.254  -7.140   1.967  0.00  0.00    +0.272 C 
ATOM      3  O   UNL     1       0.830  -6.992   1.439  0.00  0.00    -0.268 OA
ATOM      4  C   UNL     1      -0.427  -7.580   3.370  0.00  0.00    +0.148 C 
ATOM      5  N   UNL     1       0.217  -7.409   4.458  0.00  0.00    -0.232 NA
ATOM      6  C   UNL     1      -0.491  -7.844   5.529  0.00  0.00    +0.218 C 
ATOM      7  N   UNL     1      -1.611  -8.413   5.198  0.00  0.00    -0.243 NA
ATOM      8  C   UNL     1      -1.646  -8.429   3.741  0.00  0.00    +0.255 C 
ATOM      9  N   UNL     1      -2.782  -7.741   3.133  0.00  0.00    -0.227 N 
ATOM     10  C   UNL     1      -2.610  -7.095   1.962  0.00  0.00    +0.318 C 
ATOM     11  O   UNL     1      -3.602  -6.636   1.430  0.00  0.00    -0.252 OA
ENDROOT
BRANCH   9  12
ATOM     12  C   UNL     1      -4.033  -7.746   3.761  0.00  0.00    +0.041 A 
ATOM     13  C   UNL     1      -4.561  -6.567   4.271  0.00  0.00    +0.024 A 
ATOM     14  C   UNL     1      -5.796  -6.576   4.889  0.00  0.00    +0.003 A 
ATOM     15  C   UNL     1      -6.506  -7.758   5.001  0.00  0.00    +0.017 A 
ATOM     16  C   UNL     1      -5.983  -8.933   4.495  0.00  0.00    +0.040 A 
ATOM     17  C   UNL     1      -4.751  -8.930   3.870  0.00  0.00    +0.040 A 
BRANCH  16  18
ATOM     18  S   UNL     1      -6.892 -10.435   4.640  0.00  0.00    +0.051 S 
ATOM     19  O   UNL     1      -7.737 -10.219   5.762  0.00  0.00    -0.252 OA
ATOM     20  C   UNL     1      -7.896 -10.489   3.129  0.00  0.00    +0.127 C 
ENDBRANCH  16  18
ENDBRANCH   9  12
BRANCH   1  21
ATOM     21  C   UNL     1      -1.438  -6.477  -0.069  0.00  0.00    +0.153 C 
BRANCH  21  25
ATOM     22  C   UNL     1      -1.354  -2.203  -0.211  0.00  0.00    +0.059 A 
ATOM     23  C   UNL     1      -0.160  -2.928  -0.192  0.00  0.00    +0.015 A 
ATOM     24  C   UNL     1      -0.195  -4.306  -0.146  0.00  0.00    +0.006 A 
ATOM     25  C   UNL     1      -1.408  -4.971  -0.119  0.00  0.00    -0.030 A 
ATOM     26  C   UNL     1      -2.594  -4.259  -0.138  0.00  0.00    +0.006 A 
ATOM     27  C   UNL     1      -2.575  -2.880  -0.177  0.00  0.00    +0.015 A 
BRANCH  22  28
ATOM     28  C   UNL     1      -1.325  -0.727  -0.260  0.00  0.00    +0.339 C 
ATOM     29  O   UNL     1      -2.365  -0.099  -0.271  0.00  0.00    -0.245 OA
BRANCH  28  31
ATOM     30  C   UNL     1      -0.192   1.350  -0.339  0.00  0.00    +0.280 C 
ATOM     31  O   UNL     1      -0.145  -0.077  -0.292  0.00  0.00    -0.464 OA
ENDBRANCH  28  31
ENDBRANCH  22  28
ENDBRANCH  21  25
ENDBRANCH   1  21
TORSDOF 6
