REMARK  Name = ZINC54544160
REMARK  6 active torsions:
REMARK  status: ('A' for Active; 'I' for Inactive)
REMARK    1  A    between atoms: C_1  and  C_2
REMARK    2  A    between atoms: C_6  and  N_9
REMARK    3  A    between atoms: C_7  and  C_8
REMARK    4  A    between atoms: C_16  and  N_30
REMARK    5  A    between atoms: C_17  and  N_21
REMARK    6  A    between atoms: N_21  and  C_22
REMARK                            x       y       z     vdW  Elec       q    Type
REMARK                         _______ _______ _______ _____ _____    ______ ____
ROOT
ATOM      1  N   UNL     1      -0.040  -2.808   2.386  0.00  0.00    -0.327 N 
ATOM      2  C   UNL     1      -1.285  -3.214   3.053  0.00  0.00    +0.124 C 
ATOM      3  C   UNL     1      -1.248  -4.730   3.281  0.00  0.00    +0.125 C 
ATOM      4  N   UNL     1       0.037  -5.080   3.905  0.00  0.00    -0.311 N 
ATOM      5  C   UNL     1       1.282  -4.674   3.237  0.00  0.00    +0.125 C 
ATOM      6  C   UNL     1       1.244  -3.163   3.006  0.00  0.00    +0.124 C 
ATOM      7  C   UNL     1       0.073  -5.780   5.104  0.00  0.00    +0.147 A 
ATOM      8  C   UNL     1      -0.000  -7.175   5.113  0.00  0.00    +0.106 A 
ATOM      9  C   UNL     1       0.041  -7.829   6.345  0.00  0.00    +0.149 A 
ATOM     10  N   UNL     1       0.148  -7.105   7.457  0.00  0.00    -0.219 NA
ATOM     11  C   UNL     1       0.215  -5.790   7.404  0.00  0.00    +0.225 A 
ATOM     12  N   UNL     1       0.184  -5.134   6.261  0.00  0.00    -0.219 NA
ENDROOT
BRANCH   1  18
ATOM     13  C   UNL     1      -0.167   1.485  -0.002  0.00  0.00    +0.044 C 
ATOM     14  C   UNL     1      -0.139  -0.021  -0.007  0.00  0.00    -0.046 A 
ATOM     15  C   UNL     1      -0.150  -0.708  -1.208  0.00  0.00    +0.004 A 
ATOM     16  C   UNL     1      -0.125  -2.091  -1.217  0.00  0.00    +0.002 A 
ATOM     17  C   UNL     1      -0.088  -2.790  -0.027  0.00  0.00    +0.023 A 
ATOM     18  C   UNL     1      -0.077  -2.104   1.180  0.00  0.00    +0.033 A 
ATOM     19  C   UNL     1      -0.097  -0.715   1.186  0.00  0.00    -0.027 A 
ATOM     20  C   UNL     1      -0.079   0.035   2.493  0.00  0.00    +0.046 C 
ENDBRANCH   1  18
BRANCH   8  21
ATOM     21  N   UNL     1      -0.113  -7.899   3.915  0.00  0.00    -0.353 N 
ATOM     22  H   UNL     1      -0.068  -7.437   3.063  0.00  0.00    +0.143 HD
ATOM     23  H   UNL     1      -0.236  -8.861   3.939  0.00  0.00    +0.143 HD
ENDBRANCH   8  21
BRANCH   9  24
ATOM     24  N   UNL     1      -0.029  -9.216   6.410  0.00  0.00    -0.297 N 
ATOM     25  H   UNL     1      -0.019  -9.742   5.595  0.00  0.00    +0.154 HD
BRANCH  24  26
ATOM     26  C   UNL     1      -0.113  -9.855   7.652  0.00  0.00    +0.051 A 
ATOM     27  C   UNL     1      -0.628  -9.177   8.749  0.00  0.00    +0.026 A 
ATOM     28  C   UNL     1      -0.710  -9.809   9.974  0.00  0.00    +0.022 A 
ATOM     29  C   UNL     1      -0.279 -11.117  10.110  0.00  0.00    +0.042 A 
ATOM     30  C   UNL     1       0.236 -11.796   9.019  0.00  0.00    +0.041 A 
ATOM     31  C   UNL     1       0.315 -11.170   7.789  0.00  0.00    +0.063 A 
ATOM     32 CL   UNL     1       0.954 -12.024   6.419  0.00  0.00    -0.082 Cl
ATOM     33 CL   UNL     1      -0.382 -11.908  11.652  0.00  0.00    -0.083 Cl
ENDBRANCH  24  26
ENDBRANCH   9  24
TORSDOF 4
