REMARK  Name = ZINC43746581
REMARK  11 active torsions:
REMARK  status: ('A' for Active; 'I' for Inactive)
REMARK    1  A    between atoms: C_1  and  C_2
REMARK    2  A    between atoms: C_2  and  C_3
REMARK    3  A    between atoms: C_3  and  C_5
REMARK    4  A    between atoms: C_3  and  C_6
REMARK    5  A    between atoms: C_6  and  C_8
REMARK    6  A    between atoms: C_6  and  N_16
REMARK    7  A    between atoms: N_10  and  C_11
REMARK    8  A    between atoms: C_11  and  C_13
REMARK    9  A    between atoms: C_11  and  C_14
REMARK   10  A    between atoms: C_14  and  C_15
REMARK   11  A    between atoms: C_17  and  C_19
REMARK                            x       y       z     vdW  Elec       q    Type
REMARK                         _______ _______ _______ _____ _____    ______ ____
ROOT
ATOM      1  C   UNL     1       4.764  -2.881   2.453  0.00  0.00    +0.167 C 
ATOM      2  C   UNL     1       4.282  -3.008   3.905  0.00  0.00    +0.069 C 
ATOM      3  C   UNL     1       3.307  -4.150   4.033  0.00  0.00    -0.015 A 
ATOM      4  C   UNL     1       2.390  -4.405   5.130  0.00  0.00    +0.003 A 
ATOM      5  C   UNL     1       2.129  -3.718   6.319  0.00  0.00    +0.010 A 
ATOM      6  C   UNL     1       1.175  -4.255   7.149  0.00  0.00    +0.001 A 
ATOM      7  C   UNL     1       0.498  -5.422   6.833  0.00  0.00    +0.002 A 
ATOM      8  C   UNL     1       0.737  -6.121   5.662  0.00  0.00    +0.026 A 
ATOM      9  C   UNL     1       1.698  -5.598   4.800  0.00  0.00    +0.047 A 
ATOM     10  N   UNL     1       2.169  -6.018   3.590  0.00  0.00    -0.356 N 
ATOM     11  H   UNL     1       1.874  -6.815   3.122  0.00  0.00    +0.166 HD
ATOM     12  C   UNL     1       3.119  -5.144   3.135  0.00  0.00    +0.046 A 
ATOM     13  C   UNL     1       3.861  -5.216   1.823  0.00  0.00    +0.155 C 
ATOM     14  N   UNL     1       4.967  -4.234   1.925  0.00  0.00    -0.273 N 
ATOM     15  C   UNL     1       6.096  -4.819   1.504  0.00  0.00    +0.248 C 
ATOM     16  O   UNL     1       7.133  -4.238   1.249  0.00  0.00    -0.270 OA
ATOM     17  C   UNL     1       5.889  -6.267   1.399  0.00  0.00    +0.042 A 
ATOM     18  C   UNL     1       4.497  -6.544   1.595  0.00  0.00    -0.009 A 
ATOM     19  C   UNL     1       3.984  -7.821   1.561  0.00  0.00    +0.006 A 
ATOM     20  C   UNL     1       4.878  -8.856   1.301  0.00  0.00    +0.000 A 
ATOM     21  C   UNL     1       6.221  -8.621   1.084  0.00  0.00    +0.001 A 
ATOM     22  C   UNL     1       6.790  -7.301   1.135  0.00  0.00    +0.013 A 
ENDROOT
BRANCH   1  24
ATOM     23  N   UNL     1       3.366  -0.903   1.948  0.00  0.00    -0.302 N 
ATOM     24  C   UNL     1       3.724  -2.163   1.631  0.00  0.00    +0.235 C 
ATOM     25  O   UNL     1       3.210  -2.720   0.684  0.00  0.00    -0.274 OA
ATOM     26  H   UNL     1       3.778  -0.458   2.706  0.00  0.00    +0.150 HD
BRANCH  23  27
ATOM     27  C   UNL     1       2.356  -0.205   1.149  0.00  0.00    +0.162 C 
BRANCH  27  28
ATOM     28  C   UNL     1       2.559   1.283   1.271  0.00  0.00    +0.234 C 
ATOM     29  O   UNL     1       3.179   1.735   2.210  0.00  0.00    -0.274 OA
ATOM     30  N   UNL     1       2.050   2.111   0.338  0.00  0.00    -0.311 N 
ATOM     31  H   UNL     1       1.488   1.758  -0.369  0.00  0.00    +0.149 HD
BRANCH  30  32
ATOM     32  C   UNL     1       2.347   3.545   0.390  0.00  0.00    +0.070 C 
ATOM     33  C   UNL     1       1.358   4.236   1.331  0.00  0.00    +0.028 C 
BRANCH  32  34
ATOM     34  C   UNL     1       2.221   4.143  -1.012  0.00  0.00    +0.018 C 
ATOM     35  C   UNL     1       3.293   3.541  -1.922  0.00  0.00    +0.005 C 
ENDBRANCH  32  34
ENDBRANCH  30  32
ENDBRANCH  27  28
BRANCH  27  36
ATOM     36  C   UNL     1       0.961  -0.574   1.658  0.00  0.00    +0.015 C 
ATOM     37  C   UNL     1       0.880  -0.311   3.163  0.00  0.00    +0.010 C 
BRANCH  36  39
ATOM     38  C   UNL     1       0.629  -2.290  -0.127  0.00  0.00    +0.004 C 
ATOM     39  C   UNL     1       0.692  -2.055   1.383  0.00  0.00    +0.002 C 
ENDBRANCH  36  39
ENDBRANCH  27  36
ENDBRANCH  23  27
ENDBRANCH   1  24
TORSDOF 7
