REMARK  Name = ZINC35486443
REMARK  16 active torsions:
REMARK  status: ('A' for Active; 'I' for Inactive)
REMARK    1  A    between atoms: C_1  and  C_2
REMARK    2  A    between atoms: C_2  and  C_3
REMARK    3  A    between atoms: C_3  and  C_4
REMARK    4  A    between atoms: C_4  and  C_5
REMARK    5  A    between atoms: C_5  and  O_6
REMARK    6  A    between atoms: O_6  and  C_7
REMARK    7  A    between atoms: C_10  and  C_15
REMARK    8  A    between atoms: C_12  and  O_13
REMARK    9  A    between atoms: O_13  and  C_14
REMARK   10  A    between atoms: N_30  and  C_31
REMARK   11  A    between atoms: C_31  and  C_32
REMARK   12  A    between atoms: C_32  and  N_33
REMARK   13  A    between atoms: N_33  and  C_34
REMARK   14  A    between atoms: N_33  and  C_36
REMARK   15  A    between atoms: C_34  and  C_35
REMARK   16  A    between atoms: C_36  and  C_37
REMARK                            x       y       z     vdW  Elec       q    Type
REMARK                         _______ _______ _______ _____ _____    ______ ____
ROOT
ATOM      1  C   UNL     1       3.670  -5.839   6.251  0.00  0.00    +0.145 C 
ATOM      2  C   UNL     1       5.065  -5.455   5.884  0.00  0.00    +0.072 A 
ATOM      3  C   UNL     1       5.920  -5.873   4.768  0.00  0.00    +0.199 A 
ATOM      4  O   UNL     1       5.512  -6.522   3.821  0.00  0.00    -0.287 OA
ATOM      5  C   UNL     1       7.330  -5.428   4.900  0.00  0.00    +0.066 A 
ATOM      6  C   UNL     1       8.307  -5.909   4.029  0.00  0.00    +0.035 A 
ATOM      7  C   UNL     1       9.612  -5.490   4.170  0.00  0.00    +0.042 A 
ATOM      8  C   UNL     1       9.950  -4.593   5.176  0.00  0.00    +0.023 A 
ATOM      9  C   UNL     1       8.993  -4.110   6.040  0.00  0.00    +0.048 A 
ATOM     10  C   UNL     1       7.665  -4.518   5.916  0.00  0.00    +0.140 A 
ATOM     11  O   UNL     1       6.744  -4.020   6.773  0.00  0.00    -0.450 OA
ATOM     12  C   UNL     1       5.514  -4.568   6.820  0.00  0.00    +0.199 A 
ATOM     13  C   UNL     1       4.442  -4.359   7.809  0.00  0.00    +0.283 C 
ATOM     14  O   UNL     1       4.520  -3.628   8.777  0.00  0.00    -0.267 OA
ATOM     15  N   UNL     1       3.360  -5.098   7.485  0.00  0.00    -0.285 N 
ATOM     16 CL   UNL     1      10.835  -6.082   3.090  0.00  0.00    -0.084 Cl
ENDROOT
BRANCH   1  20
ATOM     17  C   UNL     1       0.963  -4.711   3.138  0.00  0.00    +0.162 A 
ATOM     18  C   UNL     1       1.449  -3.756   4.017  0.00  0.00    +0.050 A 
ATOM     19  C   UNL     1       2.324  -4.124   5.023  0.00  0.00    +0.009 A 
ATOM     20  C   UNL     1       2.716  -5.444   5.154  0.00  0.00    -0.019 A 
ATOM     21  C   UNL     1       2.235  -6.401   4.280  0.00  0.00    +0.055 A 
ATOM     22  C   UNL     1       1.353  -6.040   3.274  0.00  0.00    +0.162 A 
BRANCH  22  23
ATOM     23  O   UNL     1       0.875  -6.981   2.417  0.00  0.00    -0.491 OA
ATOM     24  C   UNL     1       1.318  -8.325   2.616  0.00  0.00    +0.277 C 
ENDBRANCH  22  23
BRANCH  17  25
ATOM     25  O   UNL     1       0.102  -4.351   2.149  0.00  0.00    -0.488 OA
BRANCH  25  26
ATOM     26  C   UNL     1      -0.254  -2.970   2.070  0.00  0.00    +0.229 C 
BRANCH  26  27
ATOM     27  C   UNL     1      -1.223  -2.758   0.905  0.00  0.00    +0.041 C 
BRANCH  27  28
ATOM     28  C   UNL     1      -1.605  -1.279   0.820  0.00  0.00    +0.003 C 
BRANCH  28  30
ATOM     29  C   UNL     1      -2.955   0.411  -0.430  0.00  0.00    +0.004 C 
ATOM     30  C   UNL     1      -2.573  -1.068  -0.345  0.00  0.00    -0.003 C 
ENDBRANCH  28  30
ENDBRANCH  27  28
ENDBRANCH  26  27
ENDBRANCH  25  26
ENDBRANCH  17  25
ENDBRANCH   1  20
BRANCH  15  31
ATOM     31  C   UNL     1       2.098  -5.153   8.228  0.00  0.00    +0.090 C 
BRANCH  31  32
ATOM     32  C   UNL     1       2.170  -6.268   9.273  0.00  0.00    -0.060 C 
BRANCH  32  33
ATOM     33  N   UNL     1       0.905  -6.323  10.018  0.00  0.00    +0.380 N 
ATOM     34  H   UNL     1       0.707  -5.415  10.411  0.00  0.00    -0.082 HD
BRANCH  33  35
ATOM     35  C   UNL     1      -0.182  -6.711   9.110  0.00  0.00    -0.082 C 
ATOM     36  C   UNL     1      -1.519  -6.630   9.850  0.00  0.00    -0.017 C 
ENDBRANCH  33  35
BRANCH  33  37
ATOM     37  C   UNL     1       1.016  -7.311  11.100  0.00  0.00    -0.082 C 
ATOM     38  C   UNL     1       2.050  -6.834  12.122  0.00  0.00    -0.017 C 
ENDBRANCH  33  37
ENDBRANCH  32  33
ENDBRANCH  31  32
ENDBRANCH  15  31
TORSDOF 12
