REMARK  Name = ZINC12007584
REMARK  7 active torsions:
REMARK  status: ('A' for Active; 'I' for Inactive)
REMARK    1  A    between atoms: C_1  and  C_2
REMARK    2  A    between atoms: C_2  and  C_3
REMARK    3  A    between atoms: C_3  and  C_4
REMARK    4  A    between atoms: C_13  and  N_22
REMARK    5  A    between atoms: C_15  and  C_17
REMARK    6  A    between atoms: C_23  and  C_25
REMARK    7  A    between atoms: C_25  and  C_26
REMARK                            x       y       z     vdW  Elec       q    Type
REMARK                         _______ _______ _______ _____ _____    ______ ____
ROOT
ATOM      1  C   UNL     1      -5.822   9.591  -2.505  0.00  0.00    +0.050 A 
ATOM      2  C   UNL     1      -6.517  10.608  -1.919  0.00  0.00    +0.093 A 
ATOM      3  C   UNL     1      -7.377  10.312  -0.844  0.00  0.00    +0.253 A 
ATOM      4  O   UNL     1      -8.014  11.196  -0.295  0.00  0.00    -0.268 OA
ATOM      5  N   UNL     1      -7.483   9.031  -0.433  0.00  0.00    -0.291 N 
ATOM      6  H   UNL     1      -8.069   8.803   0.305  0.00  0.00    +0.172 HD
ATOM      7  C   UNL     1      -6.765   8.060  -1.058  0.00  0.00    +0.234 A 
ATOM      8  N   UNL     1      -5.959   8.344  -2.058  0.00  0.00    -0.217 NA
ATOM      9  N   UNL     1      -6.879   6.751  -0.630  0.00  0.00    -0.184 N 
ATOM     10  C   UNL     1      -6.224   5.674  -1.157  0.00  0.00    +0.132 A 
ATOM     11  C   UNL     1      -6.613   4.575  -0.463  0.00  0.00    +0.077 A 
ATOM     12  C   UNL     1      -7.529   4.991   0.526  0.00  0.00    +0.130 A 
ATOM     13  N   UNL     1      -7.687   6.295   0.419  0.00  0.00    -0.159 NA
ENDROOT
BRANCH  12  14
ATOM     14  C   UNL     1      -8.200   4.115   1.509  0.00  0.00    +0.155 A 
ATOM     15  C   UNL     1      -9.083   4.515   2.463  0.00  0.00    +0.051 A 
ATOM     16  C   UNL     1      -9.470   3.358   3.168  0.00  0.00    +0.042 A 
ATOM     17  C   UNL     1      -8.806   2.322   2.622  0.00  0.00    +0.196 A 
ATOM     18  O   UNL     1      -8.039   2.782   1.620  0.00  0.00    -0.461 OA
ENDBRANCH  12  14
BRANCH  10  19
ATOM     19  N   UNL     1      -5.322   5.699  -2.219  0.00  0.00    -0.270 N 
ATOM     20  C   UNL     1      -4.745   4.556  -2.640  0.00  0.00    +0.220 C 
ATOM     21  O   UNL     1      -5.010   3.506  -2.094  0.00  0.00    -0.275 OA
ATOM     22  H   UNL     1      -5.111   6.539  -2.656  0.00  0.00    +0.156 HD
BRANCH  20  23
ATOM     23  C   UNL     1      -3.770   4.583  -3.789  0.00  0.00    +0.122 C 
BRANCH  23  24
ATOM     24  C   UNL     1      -3.380   3.151  -4.161  0.00  0.00    +0.112 C 
ATOM     25  C   UNL     1      -4.646   2.400  -4.599  0.00  0.00    +0.103 C 
ATOM     26  S   UNL     1      -4.186   1.903  -6.301  0.00  0.00    -0.086 S 
ATOM     27  C   UNL     1      -2.554   2.607  -6.375  0.00  0.00    +0.172 A 
ATOM     28  N   UNL     1      -2.328   3.205  -5.174  0.00  0.00    -0.283 N 
ATOM     29  C   UNL     1      -1.113   3.818  -5.011  0.00  0.00    +0.258 A 
ATOM     30  O   UNL     1      -0.849   4.371  -3.956  0.00  0.00    -0.267 OA
ATOM     31  C   UNL     1      -0.173   3.812  -6.049  0.00  0.00    +0.038 A 
ATOM     32  C   UNL     1      -0.481   3.190  -7.223  0.00  0.00    +0.052 A 
ATOM     33  N   UNL     1      -1.669   2.602  -7.349  0.00  0.00    -0.228 NA
ATOM     34  C   UNL     1       0.673   3.309  -8.194  0.00  0.00    +0.056 C 
ATOM     35  C   UNL     1       1.554   4.449  -7.636  0.00  0.00    +0.011 C 
ATOM     36  C   UNL     1       1.217   4.406  -6.127  0.00  0.00    +0.043 C 
ENDBRANCH  23  24
ENDBRANCH  20  23
ENDBRANCH  10  19
BRANCH   1  37
ATOM     37  C   UNL     1      -4.894   9.880  -3.656  0.00  0.00    +0.055 C 
BRANCH  37  39
ATOM     38  C   UNL     1      -2.527  10.355  -4.299  0.00  0.00    +0.004 C 
ATOM     39  C   UNL     1      -3.469  10.062  -3.130  0.00  0.00    +0.003 C 
ENDBRANCH  37  39
ENDBRANCH   1  37
TORSDOF 6
