REMARK  Name = ZINC05868759
REMARK  8 active torsions:
REMARK  status: ('A' for Active; 'I' for Inactive)
REMARK    1  A    between atoms: C_1  and  C_2
REMARK    2  A    between atoms: C_2  and  C_3
REMARK    3  A    between atoms: C_3  and  C_4
REMARK    4  A    between atoms: C_4  and  S_5
REMARK    5  A    between atoms: S_5  and  C_6
REMARK    6  A    between atoms: C_17  and  C_19
REMARK    7  A    between atoms: C_28  and  C_30
REMARK    8  A    between atoms: C_28  and  C_31
REMARK                            x       y       z     vdW  Elec       q    Type
REMARK                         _______ _______ _______ _____ _____    ______ ____
ROOT
ATOM      1  C   UNL     1       3.776  -1.471   1.144  0.00  0.00    +0.171 A 
ATOM      2  N   UNL     1       2.705  -2.311   1.180  0.00  0.00    -0.302 N 
ATOM      3  H   UNL     1       2.835  -3.354   1.503  0.00  0.00    +0.171 HD
ATOM      4  C   UNL     1       1.482  -1.867   0.819  0.00  0.00    +0.258 A 
ATOM      5  O   UNL     1       0.516  -2.612   0.847  0.00  0.00    -0.267 OA
ATOM      6  C   UNL     1       1.343  -0.534   0.413  0.00  0.00    +0.069 A 
ATOM      7  C   UNL     1       2.463   0.279   0.397  0.00  0.00    +0.135 A 
ATOM      8  N   UNL     1       3.650  -0.215   0.763  0.00  0.00    -0.208 NA
ATOM      9  N   UNL     1       2.345   1.598   0.004  0.00  0.00    -0.302 N 
ATOM     10  C   UNL     1       1.126   2.219   0.003  0.00  0.00    +0.017 C 
ATOM     11  C   UNL     1      -0.018   1.504   0.010  0.00  0.00    +0.024 C 
ATOM     12  C   UNL     1       0.002  -0.004   0.002  0.00  0.00    +0.092 C 
ATOM     13  C   UNL     1      -1.271   2.142   0.032  0.00  0.00    +0.162 C 
ATOM     14  O   UNL     1      -2.283   1.469   0.036  0.00  0.00    -0.292 OA
ATOM     15  C   UNL     1      -1.384   3.642   0.045  0.00  0.00    +0.086 C 
ATOM     16  C   UNL     1      -0.145   4.228   0.729  0.00  0.00    -0.023 C 
ATOM     17  C   UNL     1       1.097   3.729  -0.012  0.00  0.00    +0.058 C 
ATOM     18  C   UNL     1      -0.095   3.767   2.187  0.00  0.00    +0.011 C 
ATOM     19  C   UNL     1      -0.199   5.756   0.673  0.00  0.00    +0.011 C 
ATOM     20  H   UNL     1       3.236   2.159  -0.314  0.00  0.00    +0.153 HD
ENDROOT
BRANCH  12  21
ATOM     21  C   UNL     1      -0.316  -0.494  -1.387  0.00  0.00    -0.032 A 
ATOM     22  C   UNL     1       0.484  -0.142  -2.464  0.00  0.00    +0.024 A 
ATOM     23  C   UNL     1       0.164  -0.614  -3.723  0.00  0.00    +0.111 A 
ATOM     24  N   UNL     1      -0.892  -1.381  -3.907  0.00  0.00    -0.263 NA
ATOM     25  C   UNL     1      -1.677  -1.732  -2.908  0.00  0.00    +0.111 A 
ATOM     26  C   UNL     1      -1.417  -1.303  -1.620  0.00  0.00    +0.024 A 
ENDBRANCH  12  21
BRANCH   1  27
ATOM     27  S   UNL     1       5.363  -2.074   1.615  0.00  0.00    -0.088 S 
BRANCH  27  28
ATOM     28  C   UNL     1       6.352  -0.578   1.376  0.00  0.00    +0.077 C 
BRANCH  28  29
ATOM     29  C   UNL     1       7.811  -0.868   1.734  0.00  0.00    +0.011 C 
BRANCH  29  31
ATOM     30  C   UNL     1      10.106   0.107   1.891  0.00  0.00    +0.004 C 
ATOM     31  C   UNL     1       8.648   0.397   1.533  0.00  0.00    -0.003 C 
ENDBRANCH  29  31
ENDBRANCH  28  29
ENDBRANCH  27  28
ENDBRANCH   1  27
TORSDOF 5
