REMARK  Name = ZINC40926450
REMARK  7 active torsions:
REMARK  status: ('A' for Active; 'I' for Inactive)
REMARK    1  A    between atoms: C_1  and  C_2
REMARK    2  A    between atoms: C_2  and  C_3
REMARK    3  A    between atoms: C_2  and  C_4
REMARK    4  A    between atoms: C_2  and  C_5
REMARK    5  A    between atoms: C_7  and  C_10
REMARK    6  A    between atoms: C_10  and  N_11
REMARK    7  A    between atoms: C_14  and  C_17
REMARK                            x       y       z     vdW  Elec       q    Type
REMARK                         _______ _______ _______ _____ _____    ______ ____
ROOT
ATOM      1  N   UNL     1       0.886  -3.537  -4.322  0.00  0.00    +0.386 N 
ATOM      2  C   UNL     1       0.734  -2.538  -5.386  0.00  0.00    -0.077 C 
ATOM      3  C   UNL     1      -0.440  -2.923  -6.289  0.00  0.00    -0.006 C 
ATOM      4  C   UNL     1      -0.168  -4.296  -6.912  0.00  0.00    +0.072 C 
ATOM      5  C   UNL     1       0.063  -5.316  -5.793  0.00  0.00    -0.006 C 
ATOM      6  C   UNL     1       1.218  -4.842  -4.908  0.00  0.00    -0.077 C 
ATOM      7  H   UNL     1       0.022  -3.611  -3.807  0.00  0.00    -0.081 HD
ENDROOT
BRANCH   4   8
ATOM      8  C   UNL     1      -1.354  -4.717  -7.741  0.00  0.00    +0.219 C 
ATOM      9  O   UNL     1      -2.207  -5.433  -7.260  0.00  0.00    -0.275 OA
ATOM     10  N   UNL     1      -1.468  -4.297  -9.017  0.00  0.00    -0.301 N 
ATOM     11  C   UNL     1      -0.393  -3.520  -9.648  0.00  0.00    +0.113 C 
ATOM     12  C   UNL     1      -0.986  -2.225 -10.212  0.00  0.00    +0.084 C 
ATOM     13  C   UNL     1      -2.150  -2.566 -11.144  0.00  0.00    +0.173 C 
ATOM     14  C   UNL     1      -3.242  -3.304 -10.366  0.00  0.00    +0.084 C 
ATOM     15  C   UNL     1      -2.667  -4.614  -9.805  0.00  0.00    +0.113 C 
ATOM     16  O   UNL     1      -2.688  -1.360 -11.701  0.00  0.00    -0.346 OA
ATOM     17  C   UNL     1      -2.560  -1.456 -13.135  0.00  0.00    +0.191 C 
ATOM     18  C   UNL     1      -2.437  -2.982 -13.374  0.00  0.00    +0.191 C 
ATOM     19  O   UNL     1      -1.678  -3.401 -12.214  0.00  0.00    -0.346 OA
ENDBRANCH   4   8
BRANCH   1  20
ATOM     20  C   UNL     1       1.963  -3.123  -3.413  0.00  0.00    +0.022 C 
BRANCH  20  23
ATOM     21  C   UNL     1       0.744  -0.473  -1.261  0.00  0.00    +0.177 A 
ATOM     22  N   UNL     1       0.927  -1.757  -1.586  0.00  0.00    -0.197 NA
ATOM     23  C   UNL     1       1.569  -1.845  -2.718  0.00  0.00    +0.211 A 
ATOM     24  O   UNL     1       1.818  -0.605  -3.156  0.00  0.00    -0.340 OA
ATOM     25  N   UNL     1       1.264   0.276  -2.190  0.00  0.00    -0.061 NA
BRANCH  21  27
ATOM     26  C   UNL     1       0.035   1.556  -0.023  0.00  0.00    +0.019 C 
ATOM     27  C   UNL     1       0.042   0.026  -0.024  0.00  0.00    +0.025 C 
ATOM     28  C   UNL     1       0.778  -0.481   1.219  0.00  0.00    +0.019 C 
ATOM     29  C   UNL     1      -1.398  -0.491  -0.010  0.00  0.00    +0.019 C 
ENDBRANCH  21  27
ENDBRANCH  20  23
ENDBRANCH   1  20
TORSDOF 4
