REMARK  Name = ZINC08299057
REMARK  9 active torsions:
REMARK  status: ('A' for Active; 'I' for Inactive)
REMARK    1  A    between atoms: C_1  and  C_2
REMARK    2  A    between atoms: N_4  and  C_5
REMARK    3  A    between atoms: C_5  and  C_6
REMARK    4  A    between atoms: C_6  and  N_7
REMARK    5  A    between atoms: C_8  and  C_10
REMARK    6  A    between atoms: C_18  and  C_20
REMARK    7  A    between atoms: C_20  and  N_21
REMARK    8  A    between atoms: C_23  and  C_26
REMARK    9  A    between atoms: C_29  and  C_32
REMARK                            x       y       z     vdW  Elec       q    Type
REMARK                         _______ _______ _______ _____ _____    ______ ____
ROOT
ATOM      1  C   UNL     1      -1.259  -0.926  -2.565  0.00  0.00    +0.061 C 
ATOM      2  C   UNL     1      -2.007  -0.478  -1.306  0.00  0.00    -0.065 C 
ATOM      3  C   UNL     1      -2.850   1.488  -2.439  0.00  0.00    -0.078 C 
ATOM      4  C   UNL     1      -2.128   1.087  -3.748  0.00  0.00    -0.015 C 
ATOM      5  C   UNL     1      -0.857   0.316  -3.370  0.00  0.00    -0.004 C 
ATOM      6  C   UNL     1       0.031   1.204  -2.489  0.00  0.00    -0.010 C 
ATOM      7  C   UNL     1      -0.753   1.593  -1.232  0.00  0.00    -0.046 C 
ATOM      8  N   UNL     1      -2.106   0.996  -1.261  0.00  0.00    +0.383 N 
ATOM      9  H   UNL     1      -2.609   1.271  -0.409  0.00  0.00    -0.081 HD
ENDROOT
BRANCH   1  11
ATOM     10  N   UNL     1      -0.136  -2.823  -1.442  0.00  0.00    -0.314 N 
ATOM     11  C   UNL     1      -0.024  -1.695  -2.171  0.00  0.00    +0.215 C 
ATOM     12  O   UNL     1       1.071  -1.298  -2.511  0.00  0.00    -0.276 OA
ATOM     13  H   UNL     1      -1.011  -3.140  -1.171  0.00  0.00    +0.149 HD
BRANCH  10  14
ATOM     14  C   UNL     1       1.065  -3.570  -1.060  0.00  0.00    +0.123 C 
BRANCH  14  15
ATOM     15  C   UNL     1       0.662  -4.800  -0.244  0.00  0.00    +0.123 C 
BRANCH  15  19
ATOM     16  C   UNL     1       2.986  -7.444   1.260  0.00  0.00    +0.109 C 
ATOM     17  C   UNL     1       1.751  -6.675   0.867  0.00  0.00    +0.210 C 
ATOM     18  O   UNL     1       0.656  -7.072   1.207  0.00  0.00    -0.276 OA
ATOM     19  N   UNL     1       1.863  -5.547   0.139  0.00  0.00    -0.314 N 
ATOM     20  H   UNL     1       2.738  -5.230  -0.133  0.00  0.00    +0.149 HD
ENDBRANCH  15  19
ENDBRANCH  14  15
ENDBRANCH  10  14
ENDBRANCH   1  11
BRANCH   7  21
ATOM     21  C   UNL     1      -0.013   1.086   0.008  0.00  0.00    +0.130 C 
BRANCH  21  22
ATOM     22  N   UNL     1      -0.698   1.558   1.213  0.00  0.00    -0.253 N 
ATOM     23  C   UNL     1      -1.155   0.779   2.219  0.00  0.00    +0.138 A 
ATOM     24  C   UNL     1      -1.718   1.627   3.129  0.00  0.00    +0.113 A 
ATOM     25  N   UNL     1      -1.579   2.866   2.622  0.00  0.00    -0.130 NA
ATOM     26  N   UNL     1      -0.973   2.784   1.490  0.00  0.00    -0.065 NA
BRANCH  24  27
ATOM     27  C   UNL     1      -2.359   1.258   4.414  0.00  0.00    +0.004 A 
ATOM     28  C   UNL     1      -2.430  -0.081   4.799  0.00  0.00    +0.011 A 
ATOM     29  C   UNL     1      -3.021  -0.423   5.995  0.00  0.00    +0.009 A 
ATOM     30  C   UNL     1      -3.558   0.567   6.817  0.00  0.00    -0.018 A 
ATOM     31  C   UNL     1      -3.492   1.905   6.429  0.00  0.00    +0.009 A 
ATOM     32  C   UNL     1      -2.897   2.248   5.235  0.00  0.00    +0.011 A 
BRANCH  30  33
ATOM     33  C   UNL     1      -4.198   0.198   8.102  0.00  0.00    -0.018 A 
ATOM     34  C   UNL     1      -4.731   1.187   8.928  0.00  0.00    +0.008 A 
ATOM     35  C   UNL     1      -5.330   0.837  10.121  0.00  0.00    +0.001 A 
ATOM     36  C   UNL     1      -5.394  -0.492  10.502  0.00  0.00    +0.000 A 
ATOM     37  C   UNL     1      -4.863  -1.476   9.689  0.00  0.00    +0.001 A 
ATOM     38  C   UNL     1      -4.265  -1.139   8.492  0.00  0.00    +0.008 A 
ENDBRANCH  30  33
ENDBRANCH  24  27
ENDBRANCH  21  22
ENDBRANCH   7  21
TORSDOF 8
