REMARK  Name = ZINC08984626
REMARK  8 active torsions:
REMARK  status: ('A' for Active; 'I' for Inactive)
REMARK    1  A    between atoms: C_1  and  C_2
REMARK    2  A    between atoms: C_5  and  N_8
REMARK    3  A    between atoms: C_9  and  C_11
REMARK    4  A    between atoms: C_11  and  C_13
REMARK    5  A    between atoms: C_11  and  S_19
REMARK    6  A    between atoms: S_19  and  C_20
REMARK    7  A    between atoms: C_23  and  C_26
REMARK    8  A    between atoms: N_24  and  N_25
REMARK                            x       y       z     vdW  Elec       q    Type
REMARK                         _______ _______ _______ _____ _____    ______ ____
ROOT
ATOM      1  C   UNL     1       0.165  -2.947  -0.009  0.00  0.00    +0.170 C 
ENDROOT
BRANCH   1   2
ATOM      2  C   UNL     1      -0.576  -2.631  -1.283  0.00  0.00    -0.025 A 
ATOM      3  C   UNL     1      -0.028  -2.976  -2.504  0.00  0.00    +0.005 A 
ATOM      4  C   UNL     1      -0.709  -2.690  -3.672  0.00  0.00    +0.000 A 
ATOM      5  C   UNL     1      -1.933  -2.050  -3.620  0.00  0.00    +0.000 A 
ATOM      6  C   UNL     1      -2.479  -1.701  -2.399  0.00  0.00    +0.000 A 
ATOM      7  C   UNL     1      -1.800  -1.991  -1.230  0.00  0.00    +0.005 A 
ENDBRANCH   1   2
BRANCH   1   9
ATOM      8  N   UNL     1      -0.636  -5.225   0.526  0.00  0.00    -0.284 N 
ATOM      9  C   UNL     1       0.369  -4.436   0.098  0.00  0.00    +0.235 C 
ATOM     10  O   UNL     1       1.438  -4.925  -0.202  0.00  0.00    -0.274 OA
ATOM     11  H   UNL     1      -1.468  -4.829   0.829  0.00  0.00    +0.155 HD
BRANCH   8  16
ATOM     12  C   UNL     1      -0.002 -10.863   0.553  0.00  0.00    +0.044 C 
ATOM     13  C   UNL     1      -0.170  -9.365   0.546  0.00  0.00    -0.050 A 
ATOM     14  C   UNL     1       0.909  -8.548   0.827  0.00  0.00    +0.005 A 
ATOM     15  C   UNL     1       0.758  -7.175   0.821  0.00  0.00    +0.023 A 
ATOM     16  C   UNL     1      -0.480  -6.616   0.532  0.00  0.00    +0.033 A 
ATOM     17  C   UNL     1      -1.563  -7.439   0.256  0.00  0.00    +0.023 A 
ATOM     18  C   UNL     1      -1.404  -8.811   0.257  0.00  0.00    +0.005 A 
ENDBRANCH   8  16
ENDBRANCH   1   9
BRANCH   1  19
ATOM     19  S   UNL     1       1.773  -2.117  -0.024  0.00  0.00    -0.067 S 
BRANCH  19  20
ATOM     20  C   UNL     1       1.250  -0.435   0.000  0.00  0.00    +0.209 A 
ATOM     21  N   UNL     1       0.010  -0.003   0.023  0.00  0.00    -0.121 NA
ATOM     22  N   UNL     1      -0.004   1.282   0.036  0.00  0.00    -0.132 NA
ATOM     23  C   UNL     1       1.214   1.744   0.023  0.00  0.00    +0.154 A 
ATOM     24  N   UNL     1       2.057   0.667  -0.000  0.00  0.00    -0.228 N 
BRANCH  23  25
ATOM     25  C   UNL     1       1.619   3.195   0.031  0.00  0.00    +0.059 C 
ATOM     26  C   UNL     1       1.081   3.868   1.295  0.00  0.00    +0.011 C 
ATOM     27  C   UNL     1       1.492   5.341   1.304  0.00  0.00    +0.001 C 
ATOM     28  C   UNL     1       0.916   6.039   0.070  0.00  0.00    +0.000 C 
ATOM     29  C   UNL     1       1.455   5.366  -1.194  0.00  0.00    +0.001 C 
ATOM     30  C   UNL     1       1.043   3.893  -1.203  0.00  0.00    +0.011 C 
ENDBRANCH  23  25
BRANCH  24  31
ATOM     31  N   UNL     1       3.422   0.689  -0.021  0.00  0.00    -0.295 N 
ATOM     32  H   UNL     1       3.770   0.704  -0.968  0.00  0.00    +0.163 HD
ATOM     33  H   UNL     1       3.779   1.471   0.508  0.00  0.00    +0.163 HD
ENDBRANCH  24  31
ENDBRANCH  19  20
ENDBRANCH   1  19
TORSDOF 7
