REMARK  Name = ZINC39363051
REMARK  8 active torsions:
REMARK  status: ('A' for Active; 'I' for Inactive)
REMARK    1  A    between atoms: C_1  and  C_2
REMARK    2  A    between atoms: C_5  and  N_8
REMARK    3  A    between atoms: C_9  and  C_11
REMARK    4  A    between atoms: C_11  and  S_12
REMARK    5  A    between atoms: S_12  and  C_13
REMARK    6  A    between atoms: C_16  and  C_26
REMARK    7  A    between atoms: N_18  and  C_19
REMARK    8  A    between atoms: C_26  and  C_27
REMARK                            x       y       z     vdW  Elec       q    Type
REMARK                         _______ _______ _______ _____ _____    ______ ____
ROOT
ATOM      1  C   UNL     1       0.362  -8.754   2.653  0.00  0.00    +0.180 C 
ATOM      2  N   UNL     1       0.435  -9.347   1.510  0.00  0.00    -0.162 NA
ATOM      3  N   UNL     1       0.855 -10.675   1.646  0.00  0.00    -0.246 N 
ATOM      4  C   UNL     1       1.058 -10.895   3.089  0.00  0.00    +0.187 C 
ATOM      5  N   UNL     1       0.724  -9.596   3.695  0.00  0.00    -0.258 N 
ATOM      6  H   UNL     1       0.985 -11.322   0.934  0.00  0.00    +0.170 HD
ENDROOT
BRANCH   5   7
ATOM      7  C   UNL     1       0.761  -9.274   5.055  0.00  0.00    +0.038 A 
ATOM      8  C   UNL     1      -0.130  -9.873   5.937  0.00  0.00    +0.025 A 
ATOM      9  C   UNL     1      -0.090  -9.554   7.280  0.00  0.00    +0.022 A 
ATOM     10  C   UNL     1       0.834  -8.636   7.747  0.00  0.00    +0.041 A 
ATOM     11  C   UNL     1       1.722  -8.037   6.871  0.00  0.00    +0.022 A 
ATOM     12  C   UNL     1       1.692  -8.358   5.528  0.00  0.00    +0.025 A 
ATOM     13 CL   UNL     1       0.880  -8.236   9.436  0.00  0.00    -0.084 Cl
ENDBRANCH   5   7
BRANCH   1  14
ATOM     14  S   UNL     1      -0.132  -7.076   2.865  0.00  0.00    -0.079 S 
BRANCH  14  15
ATOM     15  C   UNL     1      -0.476  -6.503   1.179  0.00  0.00    +0.173 C 
BRANCH  15  17
ATOM     16  N   UNL     1      -1.224  -4.420   0.073  0.00  0.00    -0.285 N 
ATOM     17  C   UNL     1      -0.913  -5.061   1.218  0.00  0.00    +0.227 C 
ATOM     18  O   UNL     1      -0.986  -4.478   2.279  0.00  0.00    -0.275 OA
ATOM     19  H   UNL     1      -1.239  -4.906  -0.766  0.00  0.00    +0.155 HD
BRANCH  16  24
ATOM     20  C   UNL     1      -2.444   1.119   0.165  0.00  0.00    +0.044 C 
ATOM     21  C   UNL     1      -2.120  -0.352   0.141  0.00  0.00    -0.050 A 
ATOM     22  C   UNL     1      -1.199  -0.871   1.032  0.00  0.00    +0.005 A 
ATOM     23  C   UNL     1      -0.899  -2.219   1.013  0.00  0.00    +0.023 A 
ATOM     24  C   UNL     1      -1.525  -3.054   0.097  0.00  0.00    +0.033 A 
ATOM     25  C   UNL     1      -2.450  -2.531  -0.797  0.00  0.00    +0.023 A 
ATOM     26  C   UNL     1      -2.749  -1.182  -0.769  0.00  0.00    +0.005 A 
ENDBRANCH  16  24
ENDBRANCH  15  17
ENDBRANCH  14  15
ENDBRANCH   1  14
BRANCH   4  27
ATOM     27  C   UNL     1       2.516 -11.260   3.376  0.00  0.00    +0.097 C 
BRANCH  27  28
ATOM     28  C   UNL     1       2.863 -12.541   2.662  0.00  0.00    +0.029 A 
ATOM     29  N   UNL     1       2.580 -13.749   3.240  0.00  0.00    -0.311 N 
ATOM     30  C   UNL     1       2.885 -14.898   2.612  0.00  0.00    +0.327 A 
ATOM     31  O   UNL     1       2.625 -15.960   3.144  0.00  0.00    -0.247 OA
ATOM     32  N   UNL     1       3.474 -14.889   1.402  0.00  0.00    -0.275 N 
ATOM     33  C   UNL     1       3.770 -13.721   0.798  0.00  0.00    +0.254 A 
ATOM     34  O   UNL     1       4.303 -13.712  -0.297  0.00  0.00    -0.268 OA
ATOM     35  C   UNL     1       3.450 -12.504   1.446  0.00  0.00    +0.091 A 
ATOM     36  H   UNL     1       3.688 -15.728   0.962  0.00  0.00    +0.173 HD
ATOM     37  H   UNL     1       2.155 -13.776   4.112  0.00  0.00    +0.170 HD
ENDBRANCH  27  28
ENDBRANCH   4  27
TORSDOF 7
