REMARK  Name = ZINC04210672
REMARK  5 active torsions:
REMARK  status: ('A' for Active; 'I' for Inactive)
REMARK    1  A    between atoms: C_10  and  C_13
REMARK    2  A    between atoms: N_14  and  N_15
REMARK    3  A    between atoms: C_16  and  C_18
REMARK    4  A    between atoms: N_20  and  C_21
REMARK    5  A    between atoms: C_22  and  C_30
REMARK                            x       y       z     vdW  Elec       q    Type
REMARK                         _______ _______ _______ _____ _____    ______ ____
ROOT
ATOM      1  N   UNL     1      -2.987   8.955  -4.520  0.00  0.00    -0.199 N 
ATOM      2  C   UNL     1      -2.668   8.663  -3.243  0.00  0.00    +0.318 C 
ATOM      3  O   UNL     1      -2.684   9.537  -2.399  0.00  0.00    -0.263 OA
ATOM      4  H   UNL     1      -2.974   8.258  -5.194  0.00  0.00    +0.178 HD
ENDROOT
BRANCH   2   5
ATOM      5  C   UNL     1      -2.297   7.270  -2.868  0.00  0.00    +0.305 C 
ATOM      6  O   UNL     1      -2.281   6.397  -3.712  0.00  0.00    -0.265 OA
ATOM      7  N   UNL     1      -1.978   6.979  -1.591  0.00  0.00    -0.271 N 
ATOM      8  H   UNL     1      -1.990   7.676  -0.917  0.00  0.00    +0.156 HD
BRANCH   7   9
ATOM      9  C   UNL     1      -1.633   5.684  -1.242  0.00  0.00    +0.090 A 
ATOM     10  C   UNL     1      -1.276   5.182   0.004  0.00  0.00    +0.084 A 
ATOM     11  C   UNL     1      -0.956   3.769   0.100  0.00  0.00    -0.018 A 
ATOM     12  C   UNL     1      -1.036   3.058  -1.048  0.00  0.00    -0.004 A 
ATOM     13  S   UNL     1      -1.533   4.234  -2.277  0.00  0.00    -0.077 S 
ATOM     14  C   UNL     1      -0.762   1.598  -1.231  0.00  0.00    +0.043 C 
ATOM     15  C   UNL     1      -0.013   1.086   0.008  0.00  0.00    +0.005 C 
ATOM     16  C   UNL     1      -0.736   1.583   1.263  0.00  0.00    +0.005 C 
ATOM     17  C   UNL     1      -0.551   3.093   1.407  0.00  0.00    +0.037 C 
BRANCH  10  18
ATOM     18  C   UNL     1      -1.225   6.032   1.156  0.00  0.00    +0.102 C 
ATOM     19  N   UNL     1      -1.184   6.706   2.070  0.00  0.00    -0.191 NA
ENDBRANCH  10  18
ENDBRANCH   7   9
ENDBRANCH   2   5
BRANCH   1  21
ATOM     20  C   UNL     1      -3.643  10.546  -6.104  0.00  0.00    +0.145 C 
ATOM     21  N   UNL     1      -3.336  10.265  -4.873  0.00  0.00    -0.187 NA
BRANCH  20  31
ATOM     22  C   UNL     1      -5.135  16.840  -6.872  0.00  0.00    +0.023 A 
ATOM     23  C   UNL     1      -5.085  15.777  -7.748  0.00  0.00    +0.048 A 
ATOM     24  C   UNL     1      -4.725  14.514  -7.290  0.00  0.00    +0.138 A 
ATOM     25  C   UNL     1      -4.415  14.341  -5.931  0.00  0.00    +0.066 A 
ATOM     26  C   UNL     1      -4.469  15.423  -5.054  0.00  0.00    +0.035 A 
ATOM     27  C   UNL     1      -4.828  16.667  -5.529  0.00  0.00    +0.042 A 
ATOM     28 CL   UNL     1      -4.897  18.021  -4.445  0.00  0.00    -0.084 Cl
ATOM     29  C   UNL     1      -4.035  12.995  -5.463  0.00  0.00    +0.201 A 
ATOM     30  O   UNL     1      -3.755  12.779  -4.297  0.00  0.00    -0.286 OA
ATOM     31  C   UNL     1      -4.010  11.922  -6.476  0.00  0.00    +0.077 A 
ATOM     32  C   UNL     1      -4.330  12.235  -7.765  0.00  0.00    +0.209 A 
ATOM     33  O   UNL     1      -4.674  13.468  -8.139  0.00  0.00    -0.462 OA
ENDBRANCH  20  31
ENDBRANCH   1  21
TORSDOF 5
