REMARK  Name = ZINC39357321
REMARK  9 active torsions:
REMARK  status: ('A' for Active; 'I' for Inactive)
REMARK    1  A    between atoms: C_1  and  C_2
REMARK    2  A    between atoms: C_4  and  C_19
REMARK    3  A    between atoms: C_5  and  C_18
REMARK    4  A    between atoms: N_6  and  C_7
REMARK    5  A    between atoms: C_9  and  C_16
REMARK    6  A    between atoms: C_10  and  C_15
REMARK    7  A    between atoms: C_11  and  C_14
REMARK    8  A    between atoms: C_20  and  C_21
REMARK    9  A    between atoms: C_20  and  C_23
REMARK                            x       y       z     vdW  Elec       q    Type
REMARK                         _______ _______ _______ _____ _____    ______ ____
ROOT
ATOM      1  C   UNL     1       2.581   1.172  -1.010  0.00  0.00    +0.063 C 
ATOM      2  C   UNL     1       1.895  -0.140  -0.729  0.00  0.00    +0.019 A 
ATOM      3  C   UNL     1       1.357  -0.951  -1.656  0.00  0.00    +0.030 A 
ATOM      4  C   UNL     1       0.805  -2.103  -0.933  0.00  0.00    -0.003 A 
ATOM      5  C   UNL     1       1.068  -1.875   0.402  0.00  0.00    +0.026 A 
ATOM      6  N   UNL     1       1.728  -0.696   0.505  0.00  0.00    -0.318 N 
ATOM      7  C   UNL     1       0.693  -2.782   1.546  0.00  0.00    +0.064 C 
ENDROOT
BRANCH   6   8
ATOM      8  C   UNL     1       2.191  -0.102   1.762  0.00  0.00    +0.262 C 
ATOM      9  C   UNL     1       3.701  -0.021   1.775  0.00  0.00    +0.080 C 
ATOM     10  C   UNL     1       4.162  -1.024   2.524  0.00  0.00    -0.027 C 
ATOM     11  C   UNL     1       2.975  -1.809   3.036  0.00  0.00    +0.145 C 
ATOM     12  O   UNL     1       1.833  -0.946   2.872  0.00  0.00    -0.344 OA
ATOM     13  C   UNL     1       3.169  -2.154   4.514  0.00  0.00    +0.043 C 
ATOM     14  C   UNL     1       5.611  -1.323   2.810  0.00  0.00    +0.043 C 
BRANCH   9  15
ATOM     15  C   UNL     1       4.497   0.961   1.102  0.00  0.00    +0.099 C 
ATOM     16  N   UNL     1       5.128   1.740   0.568  0.00  0.00    -0.191 NA
ENDBRANCH   9  15
ENDBRANCH   6   8
BRANCH   4  17
ATOM     17  C   UNL     1       0.112  -3.261  -1.512  0.00  0.00    +0.028 C 
ATOM     18  C   UNL     1      -0.699  -3.099  -2.581  0.00  0.00    +0.072 C 
BRANCH  18  19
ATOM     19  C   UNL     1      -1.026  -1.713  -3.074  0.00  0.00    +0.216 C 
ATOM     20  N   UNL     1      -2.471  -1.586  -3.297  0.00  0.00    -0.359 N 
ATOM     21  C   UNL     1      -2.650  -1.311  -4.557  0.00  0.00    +0.060 A 
ATOM     22  C   UNL     1      -3.852  -1.074  -5.368  0.00  0.00    +0.027 A 
ATOM     23  C   UNL     1      -3.726  -0.806  -6.683  0.00  0.00    +0.002 A 
ATOM     24  C   UNL     1      -2.477  -0.741  -7.327  0.00  0.00    +0.002 A 
ATOM     25  C   UNL     1      -1.313  -0.942  -6.677  0.00  0.00    +0.027 A 
ATOM     26  C   UNL     1      -1.328  -1.242  -5.239  0.00  0.00    +0.060 A 
ATOM     27  N   UNL     1      -0.384  -1.476  -4.373  0.00  0.00    -0.359 N 
ATOM     28  H   UNL     1      -3.167  -1.688  -2.628  0.00  0.00    +0.162 HD
ATOM     29  H   UNL     1       0.569  -1.491  -4.554  0.00  0.00    +0.162 HD
ENDBRANCH  18  19
BRANCH  18  30
ATOM     30  C   UNL     1      -1.247  -4.243  -3.244  0.00  0.00    +0.099 C 
ATOM     31  N   UNL     1      -1.682  -5.151  -3.771  0.00  0.00    -0.191 NA
ENDBRANCH  18  30
ENDBRANCH   4  17
TORSDOF 5
