REMARK  Name = ZINC21976358
REMARK  4 active torsions:
REMARK  status: ('A' for Active; 'I' for Inactive)
REMARK    1  A    between atoms: C_5  and  C_7
REMARK    2  A    between atoms: C_10  and  S_13
REMARK    3  A    between atoms: S_13  and  C_14
REMARK    4  A    between atoms: C_14  and  C_15
REMARK                            x       y       z     vdW  Elec       q    Type
REMARK                         _______ _______ _______ _____ _____    ______ ____
ROOT
ATOM      1  C   UNL     1       3.795   3.006  -0.193  0.00  0.00    +0.143 A 
ATOM      2  N   UNL     1       4.377   1.819  -0.200  0.00  0.00    -0.216 NA
ATOM      3  C   UNL     1       3.694   0.699  -0.031  0.00  0.00    +0.128 A 
ATOM      4  C   UNL     1       2.287   0.769   0.165  0.00  0.00    +0.051 A 
ATOM      5  C   UNL     1       1.337  -0.330   0.373  0.00  0.00    -0.025 A 
ATOM      6  C   UNL     1       0.042   0.011   0.531  0.00  0.00    -0.004 A 
ATOM      7  S   UNL     1       0.009   1.782   0.422  0.00  0.00    -0.073 S 
ATOM      8  C   UNL     1       1.739   2.066   0.159  0.00  0.00    +0.114 A 
ATOM      9  N   UNL     1       2.494   3.134  -0.017  0.00  0.00    -0.224 NA
ATOM     10  C   UNL     1      -1.127  -0.901   0.738  0.00  0.00    +0.043 C 
ATOM     11  C   UNL     1      -0.797  -1.906   1.850  0.00  0.00    +0.005 C 
ATOM     12  C   UNL     1      -0.148  -3.130   1.212  0.00  0.00    +0.001 C 
ATOM     13  C   UNL     1       0.675  -2.711  -0.004  0.00  0.00    +0.005 C 
ATOM     14  C   UNL     1       1.808  -1.781   0.413  0.00  0.00    +0.037 C 
ATOM     15  N   UNL     1       4.340  -0.525  -0.045  0.00  0.00    -0.343 N 
ATOM     16  H   UNL     1       3.764  -1.452   0.096  0.00  0.00    +0.144 HD
ATOM     17  H   UNL     1       5.428  -0.571  -0.198  0.00  0.00    +0.144 HD
ENDROOT
BRANCH   1  18
ATOM     18  C   UNL     1       4.636   4.240  -0.392  0.00  0.00    +0.153 C 
BRANCH  18  19
ATOM     19  S   UNL     1       4.734   4.627  -2.157  0.00  0.00    -0.079 S 
BRANCH  19  23
ATOM     20  C   UNL     1       6.920   7.829  -2.641  0.00  0.00    +0.185 A 
ATOM     21  N   UNL     1       6.163   6.808  -3.169  0.00  0.00    -0.201 NA
ATOM     22  H   UNL     1       6.136   6.343   0.037  0.00  0.00    +0.191 HD
ATOM     23  C   UNL     1       5.745   6.069  -2.099  0.00  0.00    +0.185 A 
ATOM     24  N   UNL     1       6.237   6.633  -1.020  0.00  0.00    -0.253 N 
ATOM     25  N   UNL     1       6.925   7.670  -1.338  0.00  0.00    -0.151 NA
BRANCH  20  30
ATOM     26  C   UNL     1       8.977  10.868  -3.438  0.00  0.00    +0.001 A 
ATOM     27  C   UNL     1       8.872  10.912  -4.818  0.00  0.00    +0.003 A 
ATOM     28  C   UNL     1       8.134   9.957  -5.492  0.00  0.00    +0.039 A 
ATOM     29  C   UNL     1       7.500   8.947  -4.792  0.00  0.00    +0.134 A 
ATOM     30  C   UNL     1       7.599   8.901  -3.398  0.00  0.00    +0.056 A 
ATOM     31  C   UNL     1       8.346   9.870  -2.726  0.00  0.00    +0.014 A 
ATOM     32  F   UNL     1       6.784   8.011  -5.452  0.00  0.00    -0.205 F 
ENDBRANCH  20  30
ENDBRANCH  19  23
ENDBRANCH  18  19
ENDBRANCH   1  18
TORSDOF 4
