REMARK  Name = ZINC12893813
REMARK  7 active torsions:
REMARK  status: ('A' for Active; 'I' for Inactive)
REMARK    1  A    between atoms: C_4  and  C_7
REMARK    2  A    between atoms: C_8  and  N_20
REMARK    3  A    between atoms: C_10  and  S_12
REMARK    4  A    between atoms: S_12  and  C_13
REMARK    5  A    between atoms: C_13  and  C_14
REMARK    6  A    between atoms: N_16  and  C_17
REMARK    7  A    between atoms: C_21  and  C_23
REMARK                            x       y       z     vdW  Elec       q    Type
REMARK                         _______ _______ _______ _____ _____    ______ ____
ROOT
ATOM      1  C   UNL     1      -1.307   2.117   0.020  0.00  0.00    +0.101 A 
ATOM      2  C   UNL     1      -1.436   3.300   0.706  0.00  0.00    +0.101 A 
ATOM      3  S   UNL     1      -3.147   3.696   0.369  0.00  0.00    -0.045 S 
ATOM      4  C   UNL     1      -3.518   2.268  -0.638  0.00  0.00    +0.137 A 
ATOM      5  N   UNL     1      -2.360   1.635  -0.642  0.00  0.00    -0.231 NA
ENDROOT
BRANCH   1   9
ATOM      6  C   UNL     1       2.396   0.034  -0.021  0.00  0.00    +0.000 A 
ATOM      7  C   UNL     1       1.208  -0.675  -0.013  0.00  0.00    +0.001 A 
ATOM      8  C   UNL     1       0.002  -0.004   0.002  0.00  0.00    +0.010 A 
ATOM      9  C   UNL     1      -0.017   1.391   0.010  0.00  0.00    +0.003 A 
ATOM     10  C   UNL     1       1.185   2.099   0.002  0.00  0.00    +0.010 A 
ATOM     11  C   UNL     1       2.384   1.417  -0.013  0.00  0.00    +0.001 A 
ENDBRANCH   1   9
BRANCH   2  12
ATOM     12  N   UNL     1      -0.493   3.999   1.457  0.00  0.00    -0.274 N 
ATOM     13  C   UNL     1      -0.833   5.158   2.056  0.00  0.00    +0.249 C 
ATOM     14  O   UNL     1      -1.962   5.593   1.942  0.00  0.00    -0.270 OA
ATOM     15  H   UNL     1       0.408   3.652   1.549  0.00  0.00    +0.156 HD
BRANCH  13  16
ATOM     16  C   UNL     1       0.167   5.899   2.853  0.00  0.00    +0.037 A 
ATOM     17  C   UNL     1       1.464   5.399   2.991  0.00  0.00    +0.014 A 
ATOM     18  C   UNL     1       2.394   6.098   3.731  0.00  0.00    +0.016 A 
ATOM     19  C   UNL     1       2.041   7.288   4.346  0.00  0.00    +0.018 A 
ATOM     20  C   UNL     1       0.756   7.786   4.217  0.00  0.00    +0.016 A 
ATOM     21  C   UNL     1      -0.182   7.099   3.474  0.00  0.00    +0.014 A 
ATOM     22 BR   UNL     1       3.321   8.236   5.365  0.00  0.00    -0.050 Br
ENDBRANCH  13  16
ENDBRANCH   2  12
BRANCH   4  23
ATOM     23  S   UNL     1      -5.030   1.825  -1.426  0.00  0.00    -0.089 S 
BRANCH  23  24
ATOM     24  C   UNL     1      -6.069   3.218  -0.919  0.00  0.00    +0.172 C 
BRANCH  24  25
ATOM     25  C   UNL     1      -7.451   3.049  -1.493  0.00  0.00    +0.223 C 
ATOM     26  O   UNL     1      -7.710   2.082  -2.178  0.00  0.00    -0.275 OA
ATOM     27  N   UNL     1      -8.401   3.973  -1.246  0.00  0.00    -0.312 N 
ATOM     28  H   UNL     1      -8.195   4.746  -0.698  0.00  0.00    +0.149 HD
BRANCH  27  29
ATOM     29  C   UNL     1      -9.746   3.808  -1.804  0.00  0.00    +0.073 C 
ATOM     30  C   UNL     1     -10.412   5.042  -2.417  0.00  0.00    +0.024 C 
ATOM     31  C   UNL     1     -10.902   4.494  -1.075  0.00  0.00    +0.024 C 
ENDBRANCH  27  29
ENDBRANCH  24  25
ENDBRANCH  23  24
ENDBRANCH   4  23
TORSDOF 7
