REMARK  Name = ZINC12198309
REMARK  5 active torsions:
REMARK  status: ('A' for Active; 'I' for Inactive)
REMARK    1  A    between atoms: C_4  and  C_7
REMARK    2  A    between atoms: C_12  and  C_13
REMARK    3  A    between atoms: C_12  and  N_68
REMARK    4  A    between atoms: C_16  and  C_21
REMARK    5  A    between atoms: N_23  and  C_24
REMARK                            x       y       z     vdW  Elec       q    Type
REMARK                         _______ _______ _______ _____ _____    ______ ____
ROOT
ATOM      1  C   UNL     1      -2.429   9.957  -0.752  0.00  0.00    +0.003 A 
ATOM      2  C   UNL     1      -3.027   9.302  -1.780  0.00  0.00    +0.020 A 
ATOM      3  C   UNL     1      -2.934   7.914  -1.875  0.00  0.00    +0.020 A 
ATOM      4  C   UNL     1      -2.229   7.217  -0.896  0.00  0.00    +0.101 A 
ATOM      5  C   UNL     1      -1.621   7.946   0.159  0.00  0.00    +0.261 A 
ATOM      6  O   UNL     1      -0.994   7.360   1.024  0.00  0.00    -0.267 OA
ATOM      7  N   UNL     1      -1.737   9.287   0.199  0.00  0.00    -0.327 N 
ATOM      8  H   UNL     1      -1.320   9.780   0.922  0.00  0.00    +0.169 HD
ENDROOT
BRANCH   4   9
ATOM      9  C   UNL     1      -2.112   5.752  -0.958  0.00  0.00    +0.250 C 
ATOM     10  O   UNL     1      -2.539   5.148  -1.923  0.00  0.00    -0.270 OA
ATOM     11  N   UNL     1      -1.531   5.079   0.055  0.00  0.00    -0.306 N 
ATOM     12  H   UNL     1      -1.126   5.564   0.791  0.00  0.00    +0.150 HD
BRANCH  11  13
ATOM     13  C   UNL     1      -1.510   3.614   0.044  0.00  0.00    +0.036 C 
ATOM     14  C   UNL     1      -0.767   3.124  -1.200  0.00  0.00    +0.029 C 
ATOM     15  C   UNL     1      -0.745   1.594  -1.211  0.00  0.00    -0.008 C 
ATOM     16  C   UNL     1      -0.032   1.085   0.043  0.00  0.00    +0.007 C 
ATOM     17  C   UNL     1      -0.775   1.575   1.288  0.00  0.00    -0.008 C 
ATOM     18  C   UNL     1      -0.796   3.105   1.299  0.00  0.00    +0.029 C 
ATOM     19  C   UNL     1      -2.210   1.045   1.266  0.00  0.00    +0.007 C 
ATOM     20  C   UNL     1      -2.923   1.554   0.012  0.00  0.00    -0.008 C 
ATOM     21  C   UNL     1      -2.180   1.064  -1.232  0.00  0.00    +0.007 C 
ATOM     22  C   UNL     1      -2.945   3.084   0.024  0.00  0.00    +0.029 C 
ENDBRANCH  11  13
ENDBRANCH   4   9
BRANCH   1  23
ATOM     23  C   UNL     1      -2.536  11.458  -0.670  0.00  0.00    -0.025 C 
BRANCH  23  29
ATOM     24  C   UNL     1      -5.367  13.152   2.051  0.00  0.00    +0.016 C 
ATOM     25  C   UNL     1      -3.905  13.604   2.105  0.00  0.00    -0.011 C 
ATOM     26  C   UNL     1      -3.225  13.275   0.774  0.00  0.00    -0.078 C 
ATOM     27  C   UNL     1      -4.693  11.379   0.427  0.00  0.00    -0.078 C 
ATOM     28  C   UNL     1      -5.417  11.652   1.747  0.00  0.00    -0.011 C 
ATOM     29  N   UNL     1      -3.286  11.814   0.552  0.00  0.00    +0.383 N 
ATOM     30  H   UNL     1      -2.860  11.337   1.356  0.00  0.00    -0.081 HD
BRANCH  24  34
ATOM     31  C   UNL     1      -7.237  13.912   5.815  0.00  0.00    +0.000 A 
ATOM     32  C   UNL     1      -7.727  14.506   4.668  0.00  0.00    +0.000 A 
ATOM     33  C   UNL     1      -7.122  14.260   3.449  0.00  0.00    +0.004 A 
ATOM     34  C   UNL     1      -6.026  13.420   3.379  0.00  0.00    -0.044 A 
ATOM     35  C   UNL     1      -5.539  12.822   4.526  0.00  0.00    +0.004 A 
ATOM     36  C   UNL     1      -6.142  13.072   5.745  0.00  0.00    +0.000 A 
ENDBRANCH  24  34
ENDBRANCH  23  29
ENDBRANCH   1  23
TORSDOF 5
