REMARK  Name = ZINC14476493
REMARK  10 active torsions:
REMARK  status: ('A' for Active; 'I' for Inactive)
REMARK    1  A    between atoms: C_1  and  C_2
REMARK    2  A    between atoms: C_2  and  C_3
REMARK    3  A    between atoms: C_2  and  C_4
REMARK    4  A    between atoms: C_2  and  N_5
REMARK    5  A    between atoms: N_5  and  S_6
REMARK    6  A    between atoms: S_6  and  C_9
REMARK    7  A    between atoms: C_22  and  C_25
REMARK    8  A    between atoms: C_30  and  O_31
REMARK    9  A    between atoms: O_31  and  C_32
REMARK   10  A    between atoms: C_32  and  C_33
REMARK                            x       y       z     vdW  Elec       q    Type
REMARK                         _______ _______ _______ _____ _____    ______ ____
ROOT
ATOM      1  C   UNL     1       3.045   2.280  -2.971  0.00  0.00    +0.106 A 
ATOM      2  C   UNL     1       3.474   1.129  -3.606  0.00  0.00    +0.030 A 
ATOM      3  C   UNL     1       2.845  -0.072  -3.345  0.00  0.00    +0.025 A 
ATOM      4  C   UNL     1       1.786  -0.120  -2.446  0.00  0.00    +0.031 A 
ATOM      5  C   UNL     1       1.352   1.030  -1.810  0.00  0.00    -0.018 A 
ATOM      6  C   UNL     1       1.992   2.232  -2.080  0.00  0.00    +0.034 A 
ATOM      7  C   UNL     1       0.209   1.041  -0.831  0.00  0.00    +0.049 C 
ATOM      8  C   UNL     1      -0.857   1.992  -1.361  0.00  0.00    -0.023 C 
ATOM      9  C   UNL     1      -1.782   1.327  -2.006  0.00  0.00    -0.030 C 
ATOM     10  C   UNL     1      -1.472  -0.159  -1.997  0.00  0.00    +0.033 C 
ATOM     11  C   UNL     1      -0.531  -0.308  -0.778  0.00  0.00    +0.029 C 
ATOM     12  C   UNL     1       0.402  -1.492  -0.950  0.00  0.00    +0.108 C 
ATOM     13  N   UNL     1       1.163  -1.347  -2.192  0.00  0.00    -0.336 N 
ATOM     14  H   UNL     1       1.225  -2.081  -2.822  0.00  0.00    +0.147 HD
ENDROOT
BRANCH  12  15
ATOM     15  C   UNL     1       1.377  -1.534   0.198  0.00  0.00    +0.015 A 
ATOM     16  C   UNL     1       2.683  -1.124   0.011  0.00  0.00    +0.009 A 
ATOM     17  C   UNL     1       3.577  -1.157   1.065  0.00  0.00    +0.001 A 
ATOM     18  C   UNL     1       3.169  -1.611   2.306  0.00  0.00    +0.004 A 
ATOM     19  C   UNL     1       1.866  -2.028   2.497  0.00  0.00    +0.046 A 
ATOM     20  C   UNL     1       0.966  -1.990   1.442  0.00  0.00    +0.126 A 
BRANCH  20  21
ATOM     21  O   UNL     1      -0.317  -2.399   1.627  0.00  0.00    -0.487 OA
BRANCH  21  22
ATOM     22  C   UNL     1      -0.670  -2.856   2.934  0.00  0.00    +0.264 C 
BRANCH  22  23
ATOM     23  C   UNL     1      -2.120  -3.266   2.948  0.00  0.00    -0.010 A 
ATOM     24  C   UNL     1      -3.097  -2.340   3.266  0.00  0.00    +0.007 A 
ATOM     25  C   UNL     1      -4.427  -2.715   3.275  0.00  0.00    +0.000 A 
ATOM     26  C   UNL     1      -4.781  -4.017   2.975  0.00  0.00    +0.000 A 
ATOM     27  C   UNL     1      -3.804  -4.944   2.663  0.00  0.00    +0.000 A 
ATOM     28  C   UNL     1      -2.474  -4.568   2.650  0.00  0.00    +0.007 A 
ENDBRANCH  22  23
ENDBRANCH  21  22
ENDBRANCH  20  21
ENDBRANCH  12  15
BRANCH   1  29
ATOM     29  S   UNL     1       3.847   3.814  -3.300  0.00  0.00    +0.059 S 
ATOM     30  O   UNL     1       3.866   4.533  -2.074  0.00  0.00    -0.153 OA
ATOM     31  O   UNL     1       5.032   3.507  -4.021  0.00  0.00    -0.153 OA
BRANCH  29  32
ATOM     32  N   UNL     1       2.871   4.665  -4.332  0.00  0.00    -0.185 NA
ATOM     33  H   UNL     1       2.451   5.487  -4.035  0.00  0.00    +0.149 HD
BRANCH  32  35
ATOM     34  C   UNL     1       2.177   2.719  -5.642  0.00  0.00    +0.029 C 
ATOM     35  C   UNL     1       2.643   4.176  -5.694  0.00  0.00    +0.032 C 
ATOM     36  C   UNL     1       1.569   5.030  -6.370  0.00  0.00    +0.029 C 
ATOM     37  C   UNL     1       3.944   4.267  -6.494  0.00  0.00    +0.029 C 
ENDBRANCH  32  35
ENDBRANCH  29  32
ENDBRANCH   1  29
TORSDOF 7
