REMARK  Name = ZINC63375864
REMARK  8 active torsions:
REMARK  status: ('A' for Active; 'I' for Inactive)
REMARK    1  A    between atoms: C_1  and  C_2
REMARK    2  A    between atoms: C_2  and  O_3
REMARK    3  A    between atoms: O_3  and  C_4
REMARK    4  A    between atoms: C_4  and  C_6
REMARK    5  A    between atoms: C_9  and  N_12
REMARK    6  A    between atoms: C_28  and  C_33
REMARK    7  A    between atoms: C_36  and  O_39
REMARK    8  A    between atoms: O_39  and  C_40
REMARK                            x       y       z     vdW  Elec       q    Type
REMARK                         _______ _______ _______ _____ _____    ______ ____
ROOT
ATOM      1  N   UNL     1      -6.691  -4.149   0.004  0.00  0.00    -0.193 N 
ATOM      2  C   UNL     1      -6.981  -5.463  -0.104  0.00  0.00    +0.248 C 
ATOM      3  O   UNL     1      -6.197  -6.375  -0.260  0.00  0.00    -0.273 OA
ATOM      4  C   UNL     1      -8.486  -5.560   0.011  0.00  0.00    +0.169 C 
ATOM      5  C   UNL     1      -9.068  -6.216  -1.254  0.00  0.00    +0.065 C 
ATOM      6  C   UNL     1     -10.504  -5.756  -1.349  0.00  0.00    -0.034 C 
ATOM      7  C   UNL     1     -11.631  -6.453  -1.455  0.00  0.00    -0.001 A 
ATOM      8  C   UNL     1     -11.878  -7.894  -1.616  0.00  0.00    +0.010 A 
ATOM      9  C   UNL     1     -13.181  -8.277  -1.674  0.00  0.00    +0.001 A 
ATOM     10  C   UNL     1     -14.251  -7.378  -1.589  0.00  0.00    +0.002 A 
ATOM     11  C   UNL     1     -14.115  -6.036  -1.450  0.00  0.00    +0.026 A 
ATOM     12  C   UNL     1     -12.791  -5.513  -1.384  0.00  0.00    +0.043 A 
ATOM     13  N   UNL     1     -12.375  -4.286  -1.272  0.00  0.00    -0.375 N 
ATOM     14  C   UNL     1     -10.912  -4.289  -1.314  0.00  0.00    +0.131 C 
ATOM     15  C   UNL     1     -10.310  -3.687  -0.036  0.00  0.00    +0.135 C 
ATOM     16  N   UNL     1      -8.914  -4.148   0.059  0.00  0.00    -0.264 N 
ATOM     17  C   UNL     1      -7.801  -3.408   0.132  0.00  0.00    +0.317 C 
ATOM     18  O   UNL     1      -7.796  -2.203   0.292  0.00  0.00    -0.252 OA
ATOM     19  H   UNL     1     -12.939  -3.503  -1.178  0.00  0.00    +0.160 HD
ENDROOT
BRANCH   1  23
ATOM     20  C   UNL     1      -2.825  -2.592  -0.035  0.00  0.00    +0.059 A 
ATOM     21  C   UNL     1      -3.926  -1.732  -0.026  0.00  0.00    +0.017 A 
ATOM     22  C   UNL     1      -5.202  -2.250  -0.013  0.00  0.00    +0.025 A 
ATOM     23  C   UNL     1      -5.395  -3.627  -0.009  0.00  0.00    +0.045 A 
ATOM     24  C   UNL     1      -4.301  -4.487  -0.018  0.00  0.00    +0.025 A 
ATOM     25  C   UNL     1      -3.023  -3.976  -0.037  0.00  0.00    +0.017 A 
BRANCH  20  26
ATOM     26  C   UNL     1      -1.456  -2.042  -0.049  0.00  0.00    +0.339 C 
ATOM     27  O   UNL     1      -0.500  -2.791  -0.062  0.00  0.00    -0.245 OA
BRANCH  26  28
ATOM     28  O   UNL     1      -1.267  -0.708  -0.048  0.00  0.00    -0.461 OA
BRANCH  28  30
ATOM     29  C   UNL     1       0.099   1.286  -0.058  0.00  0.00    +0.048 C 
ATOM     30  C   UNL     1       0.084  -0.244  -0.062  0.00  0.00    +0.229 C 
ENDBRANCH  28  30
ENDBRANCH  26  28
ENDBRANCH  20  26
ENDBRANCH   1  23
BRANCH  15  31
ATOM     31  C   UNL     1     -11.076  -4.168   1.169  0.00  0.00    -0.024 A 
ATOM     32  C   UNL     1     -11.031  -5.502   1.529  0.00  0.00    +0.009 A 
ATOM     33  C   UNL     1     -11.732  -5.946   2.633  0.00  0.00    +0.046 A 
ATOM     34  C   UNL     1     -12.483  -5.051   3.382  0.00  0.00    +0.120 A 
ATOM     35  C   UNL     1     -12.526  -3.712   3.019  0.00  0.00    +0.046 A 
ATOM     36  C   UNL     1     -11.819  -3.273   1.917  0.00  0.00    +0.009 A 
BRANCH  34  37
ATOM     37  O   UNL     1     -13.175  -5.484   4.468  0.00  0.00    -0.495 OA
ATOM     38  C   UNL     1     -13.926  -4.507   5.191  0.00  0.00    +0.277 C 
ENDBRANCH  34  37
ENDBRANCH  15  31
TORSDOF 6
