REMARK  Name = ZINC33058851
REMARK  8 active torsions:
REMARK  status: ('A' for Active; 'I' for Inactive)
REMARK    1  A    between atoms: C_1  and  C_2
REMARK    2  A    between atoms: C_7  and  N_8
REMARK    3  A    between atoms: C_9  and  C_11
REMARK    4  A    between atoms: N_14  and  S_17
REMARK    5  A    between atoms: S_17  and  C_20
REMARK    6  A    between atoms: C_21  and  C_34
REMARK    7  A    between atoms: C_24  and  C_25
REMARK    8  A    between atoms: C_26  and  C_27
REMARK                            x       y       z     vdW  Elec       q    Type
REMARK                         _______ _______ _______ _____ _____    ______ ____
ROOT
ATOM      1  C   UNL     1       2.423  -4.237  -0.260  0.00  0.00    +0.078 C 
ATOM      2  C   UNL     1       1.774  -4.856   0.980  0.00  0.00    +0.030 C 
ATOM      3  C   UNL     1       1.759  -6.381   0.836  0.00  0.00    +0.110 C 
ATOM      4  N   UNL     1       3.130  -6.845   0.578  0.00  0.00    -0.176 NA
ATOM      5  C   UNL     1       3.878  -6.248  -0.537  0.00  0.00    +0.110 C 
ATOM      6  C   UNL     1       3.869  -4.725  -0.378  0.00  0.00    +0.030 C 
ENDROOT
BRANCH   1   8
ATOM      7  N   UNL     1       1.236  -2.080  -0.021  0.00  0.00    -0.285 N 
ATOM      8  C   UNL     1       2.408  -2.735  -0.138  0.00  0.00    +0.220 C 
ATOM      9  O   UNL     1       3.451  -2.116  -0.144  0.00  0.00    -0.275 OA
ATOM     10  H   UNL     1       0.297  -2.645   0.076  0.00  0.00    +0.155 HD
BRANCH   7  17
ATOM     11  C   UNL     1      -0.944  -0.769   1.253  0.00  0.00    +0.046 C 
ATOM     12  C   UNL     1       0.168  -0.001   0.586  0.00  0.00    -0.028 A 
ATOM     13  C   UNL     1       0.147   1.380   0.582  0.00  0.00    +0.025 A 
ATOM     14  C   UNL     1       1.168   2.086  -0.030  0.00  0.00    +0.041 A 
ATOM     15  C   UNL     1       2.211   1.411  -0.640  0.00  0.00    +0.022 A 
ATOM     16  C   UNL     1       2.236   0.031  -0.638  0.00  0.00    +0.025 A 
ATOM     17  C   UNL     1       1.213  -0.681  -0.024  0.00  0.00    +0.036 A 
ATOM     18 CL   UNL     1       1.139   3.822  -0.035  0.00  0.00    -0.084 Cl
ENDBRANCH   7  17
ENDBRANCH   1   8
BRANCH   4  19
ATOM     19  S   UNL     1       3.817  -8.017   1.525  0.00  0.00    +0.066 S 
ATOM     20  O   UNL     1       2.746  -8.758   2.094  0.00  0.00    -0.153 OA
ATOM     21  O   UNL     1       4.834  -8.627   0.742  0.00  0.00    -0.153 OA
BRANCH  19  22
ATOM     22  C   UNL     1       4.629  -7.199   2.858  0.00  0.00    +0.174 A 
ATOM     23  C   UNL     1       5.960  -6.744   2.915  0.00  0.00    +0.107 A 
ATOM     24  N   UNL     1       6.119  -6.201   4.090  0.00  0.00    -0.081 NA
ATOM     25  O   UNL     1       5.112  -6.258   4.756  0.00  0.00    -0.353 OA
ATOM     26  C   UNL     1       4.113  -6.863   4.086  0.00  0.00    +0.187 A 
ATOM     27  C   UNL     1       6.998  -6.859   1.829  0.00  0.00    +0.071 C 
BRANCH  26  28
ATOM     28  C   UNL     1       2.752  -7.112   4.569  0.00  0.00    +0.052 C 
ATOM     29  C   UNL     1       2.394  -6.720   5.807  0.00  0.00    +0.014 C 
BRANCH  29  30
ATOM     30  C   UNL     1       1.026  -6.970   6.292  0.00  0.00    +0.010 A 
ATOM     31  C   UNL     1       0.096  -7.614   5.470  0.00  0.00    +0.011 A 
ATOM     32  C   UNL     1      -1.183  -7.844   5.931  0.00  0.00    +0.001 A 
ATOM     33  C   UNL     1      -1.548  -7.440   7.204  0.00  0.00    +0.003 A 
ATOM     34  C   UNL     1      -0.636  -6.802   8.024  0.00  0.00    +0.039 A 
ATOM     35  C   UNL     1       0.652  -6.569   7.580  0.00  0.00    +0.131 A 
ATOM     36  F   UNL     1       1.545  -5.951   8.383  0.00  0.00    -0.205 F 
ENDBRANCH  29  30
ENDBRANCH  26  28
ENDBRANCH  19  22
ENDBRANCH   4  19
TORSDOF 6
