REMARK  Name = ZINC20511392
REMARK  9 active torsions:
REMARK  status: ('A' for Active; 'I' for Inactive)
REMARK    1  A    between atoms: C_1  and  C_2
REMARK    2  A    between atoms: C_7  and  C_36
REMARK    3  A    between atoms: N_9  and  C_10
REMARK    4  A    between atoms: C_10  and  C_11
REMARK    5  A    between atoms: C_11  and  C_12
REMARK    6  A    between atoms: C_12  and  N_13
REMARK    7  A    between atoms: C_14  and  C_16
REMARK    8  A    between atoms: N_21  and  S_23
REMARK    9  A    between atoms: S_23  and  N_26
REMARK                            x       y       z     vdW  Elec       q    Type
REMARK                         _______ _______ _______ _____ _____    ______ ____
ROOT
ATOM      1  C   UNL     1       4.600   5.714  -0.140  0.00  0.00    +0.091 C 
ATOM      2  C   UNL     1       5.383   5.175   1.059  0.00  0.00    +0.015 C 
ATOM      3  C   UNL     1       6.839   5.635   0.969  0.00  0.00    +0.018 C 
ATOM      4  C   UNL     1       6.890   7.166   1.007  0.00  0.00    +0.110 C 
ATOM      5  N   UNL     1       6.024   7.694  -0.056  0.00  0.00    -0.166 NA
ATOM      6  C   UNL     1       4.626   7.246  -0.115  0.00  0.00    +0.123 C 
ENDROOT
BRANCH   1   8
ATOM      7  N   UNL     1       2.906   3.913  -0.074  0.00  0.00    -0.315 N 
ATOM      8  C   UNL     1       3.174   5.234  -0.067  0.00  0.00    +0.217 C 
ATOM      9  O   UNL     1       2.266   6.036  -0.003  0.00  0.00    -0.275 OA
ATOM     10  H   UNL     1       3.729   3.185  -0.133  0.00  0.00    +0.149 HD
BRANCH   7  11
ATOM     11  C   UNL     1       1.519   3.446  -0.003  0.00  0.00    +0.102 C 
BRANCH  11  12
ATOM     12  C   UNL     1       1.495   1.916  -0.027  0.00  0.00    +0.000 C 
BRANCH  12  13
ATOM     13  C   UNL     1       0.046   1.429   0.048  0.00  0.00    -0.077 C 
BRANCH  13  20
ATOM     14  C   UNL     1      -0.536  -0.152  -2.356  0.00  0.00    -0.013 C 
ATOM     15  C   UNL     1       0.470  -0.554  -1.276  0.00  0.00    -0.071 C 
ATOM     16  C   UNL     1       0.572  -2.079  -1.216  0.00  0.00    -0.016 C 
ATOM     17  C   UNL     1      -0.798  -2.664  -0.860  0.00  0.00    -0.003 C 
ATOM     18  C   UNL     1      -1.263  -2.076   0.475  0.00  0.00    -0.016 C 
ATOM     19  C   UNL     1      -1.311  -0.550   0.366  0.00  0.00    -0.071 C 
ATOM     20  N   UNL     1       0.023  -0.040   0.025  0.00  0.00    +0.383 N 
ATOM     21  C   UNL     1      -1.756   0.043   1.705  0.00  0.00    -0.013 C 
ATOM     22  H   UNL     1       0.726  -0.403   0.788  0.00  0.00    -0.081 HD
ENDBRANCH  13  20
ENDBRANCH  12  13
ENDBRANCH  11  12
ENDBRANCH   7  11
ENDBRANCH   1   8
BRANCH   5  23
ATOM     23  S   UNL     1       6.611   8.775  -1.165  0.00  0.00    +0.100 S 
ATOM     24  O   UNL     1       8.018   8.584  -1.212  0.00  0.00    -0.141 OA
ATOM     25  O   UNL     1       5.787   8.662  -2.317  0.00  0.00    -0.141 OA
BRANCH  23  26
ATOM     26  N   UNL     1       6.360  10.292  -0.551  0.00  0.00    -0.166 NA
ATOM     27  C   UNL     1       5.117  11.020  -0.839  0.00  0.00    +0.116 C 
ATOM     28  C   UNL     1       5.465  12.390  -1.418  0.00  0.00    +0.082 C 
ATOM     29  C   UNL     1       6.417  13.116  -0.465  0.00  0.00    +0.173 C 
ATOM     30  C   UNL     1       7.708  12.311  -0.306  0.00  0.00    +0.082 C 
ATOM     31  C   UNL     1       7.379  10.938   0.288  0.00  0.00    +0.116 C 
ATOM     32  O   UNL     1       6.721  14.416  -0.985  0.00  0.00    -0.346 OA
ATOM     33  C   UNL     1       6.288  15.381  -0.004  0.00  0.00    +0.191 C 
ATOM     34  C   UNL     1       6.236  14.553   1.304  0.00  0.00    +0.191 C 
ATOM     35  O   UNL     1       5.787  13.264   0.818  0.00  0.00    -0.346 OA
ENDBRANCH  23  26
ENDBRANCH   5  23
TORSDOF 7
