REMARK  Name = ZINC13495861
REMARK  14 active torsions:
REMARK  status: ('A' for Active; 'I' for Inactive)
REMARK    1  A    between atoms: C_1  and  C_2
REMARK    2  A    between atoms: C_2  and  C_3
REMARK    3  A    between atoms: C_3  and  C_5
REMARK    4  A    between atoms: C_3  and  N_74
REMARK    5  A    between atoms: N_9  and  C_10
REMARK    6  A    between atoms: C_10  and  C_11
REMARK    7  A    between atoms: C_17  and  C_18
REMARK    8  A    between atoms: C_17  and  N_74
REMARK    9  A    between atoms: C_18  and  C_19
REMARK   10  A    between atoms: C_25  and  C_26
REMARK   11  A    between atoms: C_25  and  N_74
REMARK   12  A    between atoms: C_30  and  O_38
REMARK   13  A    between atoms: O_38  and  C_39
REMARK   14  A    between atoms: C_39  and  C_40
REMARK                            x       y       z     vdW  Elec       q    Type
REMARK                         _______ _______ _______ _____ _____    ______ ____
ROOT
ATOM      1  N   UNL     1       1.122  -2.358   1.166  0.00  0.00    +0.389 N 
ATOM      2  H   UNL     1       1.772  -1.908   1.821  0.00  0.00    -0.080 HD
ENDROOT
BRANCH   1   3
ATOM      3  C   UNL     1       1.328  -3.821   1.215  0.00  0.00    +0.003 C 
BRANCH   3   4
ATOM      4  C   UNL     1       0.561  -4.500   0.109  0.00  0.00    +0.138 A 
ATOM      5  N   UNL     1       0.545  -4.158  -1.156  0.00  0.00    -0.115 NA
ATOM      6  N   UNL     1      -0.224  -4.981  -1.781  0.00  0.00    -0.023 NA
ATOM      7  N   UNL     1      -0.705  -5.835  -0.945  0.00  0.00    -0.044 NA
ATOM      8  N   UNL     1      -0.244  -5.571   0.231  0.00  0.00    -0.228 N 
BRANCH   8   9
ATOM      9  C   UNL     1      -0.542  -6.301   1.466  0.00  0.00    +0.178 C 
BRANCH   9  10
ATOM     10  C   UNL     1      -1.864  -5.798   2.049  0.00  0.00    +0.140 C 
ATOM     11  C   UNL     1      -2.136  -6.489   3.402  0.00  0.00    +0.035 C 
ATOM     12  C   UNL     1      -3.667  -6.739   3.344  0.00  0.00    +0.031 C 
ATOM     13  C   UNL     1      -3.863  -7.015   1.831  0.00  0.00    +0.160 C 
ATOM     14  O   UNL     1      -2.943  -6.134   1.168  0.00  0.00    -0.375 OA
ENDBRANCH   9  10
ENDBRANCH   8   9
ENDBRANCH   3   4
BRANCH   3  16
ATOM     15  C   UNL     1       3.589  -3.511   2.232  0.00  0.00    +0.002 C 
ATOM     16  C   UNL     1       2.821  -4.114   1.054  0.00  0.00    -0.011 C 
ENDBRANCH   3  16
ENDBRANCH   1   3
BRANCH   1  17
ATOM     17  C   UNL     1      -0.263  -2.030   1.563  0.00  0.00    -0.073 C 
BRANCH  17  18
ATOM     18  C   UNL     1      -0.427  -2.312   3.058  0.00  0.00    +0.016 C 
BRANCH  18  19
ATOM     19  C   UNL     1      -1.775  -1.818   3.518  0.00  0.00    -0.049 A 
ATOM     20  C   UNL     1      -1.945  -0.489   3.859  0.00  0.00    +0.003 A 
ATOM     21  C   UNL     1      -3.183  -0.036   4.276  0.00  0.00    +0.000 A 
ATOM     22  C   UNL     1      -4.247  -0.913   4.361  0.00  0.00    +0.000 A 
ATOM     23  C   UNL     1      -4.076  -2.243   4.025  0.00  0.00    +0.000 A 
ATOM     24  C   UNL     1      -2.840  -2.696   3.603  0.00  0.00    +0.003 A 
ENDBRANCH  18  19
ENDBRANCH  17  18
ENDBRANCH   1  17
BRANCH   1  25
ATOM     25  C   UNL     1       1.389  -1.856  -0.198  0.00  0.00    -0.037 C 
BRANCH  25  26
ATOM     26  C   UNL     1       1.647  -0.373  -0.124  0.00  0.00    +0.001 A 
ATOM     27  C   UNL     1       2.919   0.087  -0.029  0.00  0.00    +0.017 A 
ATOM     28  C   UNL     1       3.137   1.534   0.041  0.00  0.00    +0.002 A 
ATOM     29  C   UNL     1       4.427   2.066   0.139  0.00  0.00    +0.055 A 
ATOM     30  C   UNL     1       4.596   3.434   0.202  0.00  0.00    +0.121 A 
ATOM     31  C   UNL     1       3.491   4.282   0.169  0.00  0.00    +0.047 A 
ATOM     32  C   UNL     1       2.216   3.770   0.072  0.00  0.00    +0.030 A 
ATOM     33  C   UNL     1       2.023   2.394   0.007  0.00  0.00    +0.049 A 
ATOM     34  N   UNL     1       0.753   1.861  -0.090  0.00  0.00    -0.322 N 
ATOM     35  H   UNL     1      -0.013   2.455  -0.116  0.00  0.00    +0.169 HD
ATOM     36  C   UNL     1       0.564   0.532  -0.153  0.00  0.00    +0.251 A 
ATOM     37  O   UNL     1      -0.571   0.097  -0.238  0.00  0.00    -0.268 OA
BRANCH  30  38
ATOM     38  O   UNL     1       5.847   3.957   0.298  0.00  0.00    -0.492 OA
BRANCH  38  39
ATOM     39  C   UNL     1       5.952   5.381   0.360  0.00  0.00    +0.225 C 
ATOM     40  C   UNL     1       7.426   5.779   0.465  0.00  0.00    +0.048 C 
ENDBRANCH  38  39
ENDBRANCH  30  38
ENDBRANCH  25  26
ENDBRANCH   1  25
TORSDOF 12
