REMARK  Name = ZINC35991517
REMARK  11 active torsions:
REMARK  status: ('A' for Active; 'I' for Inactive)
REMARK    1  A    between atoms: C_1  and  C_2
REMARK    2  A    between atoms: C_2  and  N_3
REMARK    3  A    between atoms: N_6  and  C_9
REMARK    4  A    between atoms: C_9  and  C_10
REMARK    5  A    between atoms: C_11  and  C_27
REMARK    6  A    between atoms: C_12  and  C_20
REMARK    7  A    between atoms: N_17  and  C_18
REMARK    8  A    between atoms: C_18  and  C_19
REMARK    9  A    between atoms: C_27  and  O_29
REMARK   10  A    between atoms: O_29  and  C_30
REMARK   11  A    between atoms: C_30  and  C_31
REMARK                            x       y       z     vdW  Elec       q    Type
REMARK                         _______ _______ _______ _____ _____    ______ ____
ROOT
ATOM      1  C   UNL     1       1.480  -4.097   4.919  0.00  0.00    +0.041 C 
ATOM      2  C   UNL     1       2.576  -4.814   4.588  0.00  0.00    +0.080 C 
ATOM      3  C   UNL     1       2.422  -6.315   4.453  0.00  0.00    +0.144 C 
ATOM      4  N   UNL     1       1.081  -6.873   4.694  0.00  0.00    -0.288 N 
ATOM      5  C   UNL     1       0.083  -6.027   5.017  0.00  0.00    +0.307 C 
ATOM      6  O   UNL     1      -1.028  -6.477   5.218  0.00  0.00    -0.252 OA
ATOM      7  N   UNL     1       0.276  -4.707   5.129  0.00  0.00    -0.258 N 
ATOM      8  H   UNL     1       0.919  -7.827   4.622  0.00  0.00    +0.151 HD
ENDROOT
BRANCH   3   9
ATOM      9  C   UNL     1       3.377  -6.969   5.418  0.00  0.00    -0.022 A 
ATOM     10  C   UNL     1       3.042  -7.076   6.755  0.00  0.00    +0.007 A 
ATOM     11  C   UNL     1       3.918  -7.676   7.641  0.00  0.00    +0.020 A 
ATOM     12  C   UNL     1       5.129  -8.169   7.189  0.00  0.00    +0.041 A 
ATOM     13  C   UNL     1       5.463  -8.061   5.851  0.00  0.00    +0.020 A 
ATOM     14  C   UNL     1       4.585  -7.466   4.965  0.00  0.00    +0.007 A 
ATOM     15 CL   UNL     1       6.229  -8.921   8.302  0.00  0.00    -0.084 Cl
ENDBRANCH   3   9
BRANCH   7  16
ATOM     16  C   UNL     1      -0.870  -3.868   5.490  0.00  0.00    +0.111 C 
ATOM     17  C   UNL     1      -1.593  -3.417   4.220  0.00  0.00    +0.025 C 
ENDBRANCH   7  16
BRANCH   2  18
ATOM     18  C   UNL     1       3.825  -4.184   4.376  0.00  0.00    +0.339 C 
ATOM     19  O   UNL     1       4.225  -3.994   3.242  0.00  0.00    -0.245 OA
BRANCH  18  20
ATOM     20  O   UNL     1       4.572  -3.795   5.429  0.00  0.00    -0.462 OA
BRANCH  20  21
ATOM     21  C   UNL     1       5.822  -3.166   5.141  0.00  0.00    +0.229 C 
ATOM     22  C   UNL     1       6.522  -2.798   6.451  0.00  0.00    +0.048 C 
ENDBRANCH  20  21
ENDBRANCH  18  20
ENDBRANCH   2  18
BRANCH   1  23
ATOM     23  C   UNL     1       1.589  -2.601   5.064  0.00  0.00    +0.136 C 
BRANCH  23  27
ATOM     24  N   UNL     1       0.529  -0.121   1.809  0.00  0.00    +0.381 N 
ATOM     25  C   UNL     1      -0.115   0.129   3.106  0.00  0.00    -0.063 C 
ATOM     26  C   UNL     1       0.722  -0.503   4.221  0.00  0.00    +0.066 C 
ATOM     27  N   UNL     1       0.839  -1.948   3.982  0.00  0.00    -0.300 NA
ATOM     28  C   UNL     1       1.459  -2.214   2.677  0.00  0.00    +0.066 C 
ATOM     29  C   UNL     1       0.617  -1.568   1.574  0.00  0.00    -0.063 C 
ATOM     30  H   UNL     1       1.457   0.276   1.813  0.00  0.00    -0.082 HD
BRANCH  24  32
ATOM     31  C   UNL     1      -0.252   2.021   0.915  0.00  0.00    -0.017 C 
ATOM     32  C   UNL     1      -0.265   0.501   0.741  0.00  0.00    -0.082 C 
ENDBRANCH  24  32
ENDBRANCH  23  27
ENDBRANCH   1  23
TORSDOF 8
