REMARK  Name = ZINC21873735
REMARK  5 active torsions:
REMARK  status: ('A' for Active; 'I' for Inactive)
REMARK    1  A    between atoms: C_4  and  O_7
REMARK    2  A    between atoms: O_7  and  C_8
REMARK    3  A    between atoms: C_11  and  N_14
REMARK    4  A    between atoms: N_14  and  S_15
REMARK    5  A    between atoms: S_15  and  C_18
REMARK                            x       y       z     vdW  Elec       q    Type
REMARK                         _______ _______ _______ _____ _____    ______ ____
ROOT
ATOM      1  S   UNL     1      -6.175   7.072  -1.259  0.00  0.00    +0.072 S 
ATOM      2  O   UNL     1      -6.180   5.679  -0.976  0.00  0.00    -0.150 OA
ATOM      3  O   UNL     1      -7.324   7.889  -1.081  0.00  0.00    -0.150 OA
ENDROOT
BRANCH   1   4
ATOM      4  C   UNL     1      -5.693   7.242  -2.945  0.00  0.00    +0.110 A 
ATOM      5  C   UNL     1      -5.964   8.414  -3.627  0.00  0.00    +0.031 A 
ATOM      6  C   UNL     1      -5.591   8.562  -4.947  0.00  0.00    +0.027 A 
ATOM      7  C   UNL     1      -4.944   7.516  -5.609  0.00  0.00    +0.059 A 
ATOM      8  C   UNL     1      -4.678   6.338  -4.903  0.00  0.00    +0.135 A 
ATOM      9  C   UNL     1      -5.046   6.198  -3.590  0.00  0.00    +0.059 A 
ATOM     10  S   UNL     1      -3.841   5.042  -5.770  0.00  0.00    +0.102 S 
ATOM     11  O   UNL     1      -2.447   5.235  -5.571  0.00  0.00    -0.146 OA
ATOM     12  O   UNL     1      -4.506   3.827  -5.453  0.00  0.00    -0.146 OA
ATOM     13  N   UNL     1      -4.163   5.381  -7.374  0.00  0.00    -0.121 NA
ATOM     14  C   UNL     1      -4.215   6.710  -7.721  0.00  0.00    +0.209 C 
ATOM     15  N   UNL     1      -4.589   7.641  -6.918  0.00  0.00    -0.303 N 
ATOM     16  H   UNL     1      -4.604   8.630  -7.399  0.00  0.00    +0.153 HD
ENDBRANCH   1   4
BRANCH   1  17
ATOM     17  N   UNL     1      -4.973   7.738  -0.336  0.00  0.00    -0.216 N 
ATOM     18  H   UNL     1      -5.190   8.601   0.311  0.00  0.00    +0.174 HD
BRANCH  17  22
ATOM     19  C   UNL     1      -1.122   6.147  -0.465  0.00  0.00    +0.129 A 
ATOM     20  C   UNL     1      -2.219   5.301  -0.381  0.00  0.00    +0.048 A 
ATOM     21  C   UNL     1      -3.495   5.828  -0.333  0.00  0.00    +0.028 A 
ATOM     22  C   UNL     1      -3.680   7.204  -0.379  0.00  0.00    +0.048 A 
ATOM     23  C   UNL     1      -2.582   8.049  -0.468  0.00  0.00    +0.028 A 
ATOM     24  C   UNL     1      -1.306   7.521  -0.511  0.00  0.00    +0.048 A 
BRANCH  19  25
ATOM     25  O   UNL     1       0.134   5.628  -0.508  0.00  0.00    -0.456 OA
BRANCH  25  29
ATOM     26  C   UNL     1       0.529   1.526  -0.697  0.00  0.00    +0.000 A 
ATOM     27  C   UNL     1       0.873   2.199   0.460  0.00  0.00    +0.004 A 
ATOM     28  C   UNL     1       0.748   3.574   0.524  0.00  0.00    +0.046 A 
ATOM     29  C   UNL     1       0.264   4.276  -0.570  0.00  0.00    +0.128 A 
ATOM     30  C   UNL     1      -0.086   3.597  -1.728  0.00  0.00    +0.046 A 
ATOM     31  C   UNL     1       0.048   2.224  -1.789  0.00  0.00    +0.004 A 
ENDBRANCH  25  29
ENDBRANCH  19  25
ENDBRANCH  17  22
ENDBRANCH   1  17
TORSDOF 5
