REMARK  Name = ZINC10010800
REMARK  5 active torsions:
REMARK  status: ('A' for Active; 'I' for Inactive)
REMARK    1  A    between atoms: C_2  and  C_3
REMARK    2  A    between atoms: C_3  and  N_4
REMARK    3  A    between atoms: C_10  and  C_12
REMARK    4  A    between atoms: C_13  and  C_14
REMARK    5  A    between atoms: C_17  and  C_19
REMARK                            x       y       z     vdW  Elec       q    Type
REMARK                         _______ _______ _______ _____ _____    ______ ____
ROOT
ATOM      1  C   UNL     1      -0.013   1.076   0.008  0.00  0.00    +0.071 C 
ATOM      2  C   UNL     1      -1.198   1.739   0.017  0.00  0.00    +0.051 C 
ENDROOT
BRANCH   1   9
ATOM      3  N   UNL     1       5.674   2.436  -0.039  0.00  0.00    -0.158 N 
ATOM      4  N   UNL     1       4.792   1.343  -0.036  0.00  0.00    -0.114 NA
ATOM      5  C   UNL     1       3.579   1.857  -0.022  0.00  0.00    +0.262 A 
ATOM      6  N   UNL     1       3.707   3.184  -0.022  0.00  0.00    -0.092 NA
ATOM      7  N   UNL     1       4.952   3.505  -0.026  0.00  0.00    -0.044 NA
ATOM      8  N   UNL     1       2.378   1.141  -0.015  0.00  0.00    -0.248 N 
ATOM      9  C   UNL     1       1.202   1.799   0.000  0.00  0.00    +0.243 C 
ATOM     10  O   UNL     1       1.186   3.017   0.007  0.00  0.00    -0.270 OA
ATOM     11  H   UNL     1       2.392   0.172  -0.020  0.00  0.00    +0.158 HD
BRANCH   3  12
ATOM     12  C   UNL     1       7.137   2.374  -0.054  0.00  0.00    +0.195 C 
BRANCH  12  14
ATOM     13  C   UNL     1       8.492   3.256  -1.884  0.00  0.00    +0.006 C 
ATOM     14  C   UNL     1       7.625   2.361  -1.480  0.00  0.00    -0.010 C 
ENDBRANCH  12  14
ENDBRANCH   3  12
ENDBRANCH   1   9
BRANCH   2  15
ATOM     15  C   UNL     1      -2.412   1.016   0.019  0.00  0.00    +0.129 A 
ATOM     16  C   UNL     1      -3.681   1.563   0.034  0.00  0.00    +0.050 A 
ATOM     17  C   UNL     1      -4.582   0.495   0.027  0.00  0.00    +0.050 A 
ATOM     18  C   UNL     1      -3.835  -0.661   0.017  0.00  0.00    +0.136 A 
ATOM     19  O   UNL     1      -2.532  -0.329   0.013  0.00  0.00    -0.455 OA
BRANCH  18  20
ATOM     20  C   UNL     1      -4.374  -2.035   0.013  0.00  0.00    +0.017 A 
ATOM     21  C   UNL     1      -5.755  -2.247   0.025  0.00  0.00    +0.012 A 
ATOM     22  C   UNL     1      -6.252  -3.534   0.017  0.00  0.00    +0.016 A 
ATOM     23  C   UNL     1      -5.385  -4.614   0.008  0.00  0.00    +0.018 A 
ATOM     24  C   UNL     1      -4.016  -4.410   0.001  0.00  0.00    +0.016 A 
ATOM     25  C   UNL     1      -3.506  -3.129   0.004  0.00  0.00    +0.012 A 
ATOM     26 BR   UNL     1      -6.076  -6.374   0.004  0.00  0.00    -0.050 Br
ENDBRANCH  18  20
ENDBRANCH   2  15
TORSDOF 5
