REMARK  Name = ZINC01300336
REMARK  8 active torsions:
REMARK  status: ('A' for Active; 'I' for Inactive)
REMARK    1  A    between atoms: C_1  and  C_2
REMARK    2  A    between atoms: C_5  and  N_9
REMARK    3  A    between atoms: C_6  and  C_8
REMARK    4  A    between atoms: C_10  and  C_12
REMARK    5  A    between atoms: C_12  and  S_13
REMARK    6  A    between atoms: S_13  and  C_14
REMARK    7  A    between atoms: C_15  and  C_35
REMARK    8  A    between atoms: C_16  and  C_26
REMARK                            x       y       z     vdW  Elec       q    Type
REMARK                         _______ _______ _______ _____ _____    ______ ____
ROOT
ATOM      1  C   UNL     1      -0.356  -8.692  -2.728  0.00  0.00    +0.080 C 
ATOM      2  C   UNL     1      -0.454  -9.475  -3.835  0.00  0.00    +0.069 C 
ATOM      3  C   UNL     1      -0.532 -10.969  -3.722  0.00  0.00    +0.097 C 
ATOM      4  C   UNL     1      -0.921 -11.390  -2.327  0.00  0.00    +0.024 C 
ATOM      5  C   UNL     1      -0.801 -10.537  -1.287  0.00  0.00    +0.016 C 
ATOM      6  N   UNL     1      -0.330  -9.265  -1.478  0.00  0.00    -0.311 N 
ATOM      7  C   UNL     1      -1.171 -10.963   0.113  0.00  0.00    +0.051 C 
ATOM      8  C   UNL     1      -2.302 -11.992   0.055  0.00  0.00    +0.014 C 
ATOM      9  C   UNL     1      -1.831 -13.185  -0.784  0.00  0.00    +0.080 C 
ATOM     10  C   UNL     1      -1.412 -12.694  -2.142  0.00  0.00    +0.162 C 
ATOM     11  O   UNL     1      -1.501 -13.438  -3.099  0.00  0.00    -0.292 OA
ATOM     12  H   UNL     1       0.021  -8.762  -0.726  0.00  0.00    +0.152 HD
ENDROOT
BRANCH   3  13
ATOM     13  C   UNL     1       0.812 -11.562  -4.059  0.00  0.00    -0.031 A 
ATOM     14  C   UNL     1       1.922 -11.226  -3.306  0.00  0.00    +0.008 A 
ATOM     15  C   UNL     1       3.157 -11.767  -3.611  0.00  0.00    +0.050 A 
ATOM     16  C   UNL     1       3.285 -12.648  -4.673  0.00  0.00    +0.166 A 
ATOM     17  C   UNL     1       2.167 -12.985  -5.431  0.00  0.00    +0.167 A 
ATOM     18  C   UNL     1       0.932 -12.444  -5.117  0.00  0.00    +0.054 A 
ATOM     19  O   UNL     1       2.550 -13.858  -6.408  0.00  0.00    -0.453 OA
ATOM     20  C   UNL     1       3.982 -13.735  -6.495  0.00  0.00    +0.466 C 
ATOM     21  O   UNL     1       4.369 -13.309  -5.174  0.00  0.00    -0.453 OA
ENDBRANCH   3  13
BRANCH   2  22
ATOM     22  C   UNL     1      -0.481  -8.865  -5.130  0.00  0.00    +0.098 C 
ATOM     23  N   UNL     1      -0.504  -8.380  -6.157  0.00  0.00    -0.191 NA
ENDBRANCH   2  22
BRANCH   1  24
ATOM     24  S   UNL     1      -0.255  -6.941  -2.895  0.00  0.00    -0.100 S 
BRANCH  24  25
ATOM     25  C   UNL     1      -0.134  -6.343  -1.187  0.00  0.00    +0.171 C 
BRANCH  25  27
ATOM     26  N   UNL     1       0.059  -4.170  -0.021  0.00  0.00    -0.285 N 
ATOM     27  C   UNL     1      -0.040  -4.839  -1.187  0.00  0.00    +0.227 C 
ATOM     28  O   UNL     1      -0.054  -4.230  -2.236  0.00  0.00    -0.275 OA
ATOM     29  H   UNL     1       0.135  -4.658   0.814  0.00  0.00    +0.155 HD
BRANCH  26  34
ATOM     30  C   UNL     1       0.025   1.503   0.005  0.00  0.00    +0.044 C 
ATOM     31  C   UNL     1       0.034  -0.004  -0.002  0.00  0.00    -0.050 A 
ATOM     32  C   UNL     1       0.632  -0.685  -1.046  0.00  0.00    +0.005 A 
ATOM     33  C   UNL     1       0.641  -2.066  -1.055  0.00  0.00    +0.024 A 
ATOM     34  C   UNL     1       0.051  -2.771  -0.014  0.00  0.00    +0.036 A 
ATOM     35  C   UNL     1      -0.548  -2.083   1.033  0.00  0.00    -0.029 A 
ATOM     36  C   UNL     1      -0.550  -0.702   1.039  0.00  0.00    +0.008 A 
ATOM     37  C   UNL     1      -1.190  -2.843   2.165  0.00  0.00    +0.045 C 
ENDBRANCH  26  34
ENDBRANCH  25  27
ENDBRANCH  24  25
ENDBRANCH   1  24
TORSDOF 6
