REMARK  Name = ZINC39556120
REMARK  10 active torsions:
REMARK  status: ('A' for Active; 'I' for Inactive)
REMARK    1  A    between atoms: C_1  and  C_2
REMARK    2  A    between atoms: C_4  and  C_35
REMARK    3  A    between atoms: N_5  and  C_7
REMARK    4  A    between atoms: C_7  and  C_8
REMARK    5  A    between atoms: C_8  and  C_9
REMARK    6  A    between atoms: C_19  and  S_23
REMARK    7  A    between atoms: S_23  and  C_24
REMARK    8  A    between atoms: C_24  and  C_25
REMARK    9  A    between atoms: N_27  and  C_28
REMARK   10  A    between atoms: C_31  and  C_34
REMARK                            x       y       z     vdW  Elec       q    Type
REMARK                         _______ _______ _______ _____ _____    ______ ____
ROOT
ATOM      1  C   UNL     1       1.525  -4.907   2.662  0.00  0.00    +0.092 C 
ATOM      2  N   UNL     1       1.526  -4.894   3.972  0.00  0.00    -0.332 N 
ATOM      3  C   UNL     1       1.547  -6.145   4.447  0.00  0.00    +0.128 C 
ATOM      4  C   UNL     1       1.556  -6.670   5.755  0.00  0.00    +0.038 A 
ATOM      5  C   UNL     1       1.542  -5.814   6.870  0.00  0.00    +0.013 A 
ATOM      6  C   UNL     1       1.551  -6.341   8.126  0.00  0.00    +0.001 A 
ATOM      7  C   UNL     1       1.573  -7.716   8.341  0.00  0.00    +0.002 A 
ATOM      8  C   UNL     1       1.589  -8.599   7.307  0.00  0.00    +0.026 A 
ATOM      9  C   UNL     1       1.580  -8.119   5.979  0.00  0.00    +0.048 A 
ATOM     10  N   UNL     1       1.594  -8.964   4.957  0.00  0.00    -0.356 N 
ATOM     11  C   UNL     1       1.585  -8.442   3.585  0.00  0.00    +0.248 C 
ATOM     12  N   UNL     1       1.561  -6.995   3.373  0.00  0.00    -0.204 N 
ATOM     13  N   UNL     1       1.541  -6.187   2.229  0.00  0.00    -0.249 N 
ATOM     14  H   UNL     1       1.541  -6.488   1.307  0.00  0.00    +0.171 HD
ATOM     15  H   UNL     1       1.610  -9.921   5.115  0.00  0.00    +0.162 HD
ATOM     16  H   UNL     1       1.513  -4.092   4.519  0.00  0.00    +0.168 HD
ENDROOT
BRANCH   1  17
ATOM     17  C   UNL     1       1.504  -3.688   1.777  0.00  0.00    +0.094 C 
BRANCH  17  18
ATOM     18  C   UNL     1       0.055  -3.295   1.485  0.00  0.00    +0.151 C 
BRANCH  18  23
ATOM     19  C   UNL     1      -0.018   1.503   0.010  0.00  0.00    +0.067 C 
ATOM     20  C   UNL     1       0.002  -0.004   0.002  0.00  0.00    +0.060 A 
ATOM     21  C   UNL     1       0.008  -0.818  -1.135  0.00  0.00    +0.047 A 
ATOM     22  C   UNL     1       0.028  -2.107  -0.725  0.00  0.00    +0.036 A 
ATOM     23  N   UNL     1       0.034  -2.109   0.625  0.00  0.00    -0.268 N 
ATOM     24  N   UNL     1       0.023  -0.777   1.058  0.00  0.00    -0.176 NA
ATOM     25  C   UNL     1       0.040  -3.323  -1.615  0.00  0.00    +0.065 C 
ENDBRANCH  18  23
ENDBRANCH  17  18
ENDBRANCH   1  17
BRANCH  11  26
ATOM     26  S   UNL     1       0.136  -9.138   2.746  0.00  0.00    -0.106 S 
BRANCH  26  27
ATOM     27  C   UNL     1      -1.268  -8.552   3.734  0.00  0.00    +0.168 C 
BRANCH  27  28
ATOM     28  C   UNL     1      -2.552  -9.066   3.138  0.00  0.00    +0.225 C 
ATOM     29  O   UNL     1      -2.524  -9.760   2.143  0.00  0.00    -0.275 OA
ATOM     30  N   UNL     1      -3.733  -8.755   3.709  0.00  0.00    -0.288 N 
ATOM     31  H   UNL     1      -3.755  -8.201   4.504  0.00  0.00    +0.151 HD
BRANCH  30  32
ATOM     32  C   UNL     1      -4.981  -9.255   3.129  0.00  0.00    +0.239 C 
ATOM     33  C   UNL     1      -6.042  -8.168   3.117  0.00  0.00    +0.045 C 
ATOM     34  C   UNL     1      -7.013  -8.659   3.890  0.00  0.00    +0.060 C 
ATOM     35  N   UNL     1      -6.682  -9.882   4.359  0.00  0.00    -0.157 NA
ATOM     36  N   UNL     1      -5.576 -10.294   3.988  0.00  0.00    -0.160 NA
ATOM     37  C   UNL     1      -8.304  -7.945   4.197  0.00  0.00    +0.067 C 
ENDBRANCH  30  32
ENDBRANCH  27  28
ENDBRANCH  26  27
ENDBRANCH  11  26
TORSDOF 7
