REMARK  Name = ZINC09012961
REMARK  7 active torsions:
REMARK  status: ('A' for Active; 'I' for Inactive)
REMARK    1  A    between atoms: C_1  and  C_2
REMARK    2  A    between atoms: C_2  and  C_3
REMARK    3  A    between atoms: C_2  and  C_4
REMARK    4  A    between atoms: C_2  and  C_5
REMARK    5  A    between atoms: C_5  and  C_7
REMARK    6  A    between atoms: C_9  and  C_31
REMARK    7  A    between atoms: C_31  and  C_33
REMARK                            x       y       z     vdW  Elec       q    Type
REMARK                         _______ _______ _______ _____ _____    ______ ____
ROOT
ATOM      1  C   UNL     1       0.003  -0.001   0.028  0.00  0.00    +0.136 C 
ATOM      2  C   UNL     1       0.328  -0.534   1.456  0.00  0.00    +0.108 C 
ATOM      3  C   UNL     1      -0.254  -1.961   1.396  0.00  0.00    +0.107 C 
ATOM      4  C   UNL     1      -0.711  -2.454   2.723  0.00  0.00    -0.008 A 
ATOM      5  C   UNL     1      -1.756  -2.103   3.551  0.00  0.00    +0.006 A 
ATOM      6  C   UNL     1      -1.871  -2.766   4.767  0.00  0.00    +0.000 A 
ATOM      7  C   UNL     1      -0.987  -3.759   5.132  0.00  0.00    +0.002 A 
ATOM      8  C   UNL     1       0.046  -4.149   4.296  0.00  0.00    +0.023 A 
ATOM      9  C   UNL     1       0.171  -3.490   3.075  0.00  0.00    +0.038 A 
ATOM     10  N   UNL     1       1.099  -3.700   2.069  0.00  0.00    -0.284 N 
ATOM     11  C   UNL     1       0.855  -2.919   0.997  0.00  0.00    +0.231 C 
ATOM     12  O   UNL     1       1.400  -2.966  -0.086  0.00  0.00    -0.274 OA
ATOM     13  C   UNL     1      -1.319  -1.930   0.308  0.00  0.00    +0.107 C 
ATOM     14  C   UNL     1      -2.420   0.058  -0.822  0.00  0.00    +0.054 C 
ATOM     15  C   UNL     1      -3.645  -0.443  -0.577  0.00  0.00    +0.022 C 
ATOM     16  C   UNL     1      -3.801  -1.589   0.339  0.00  0.00    -0.019 A 
ATOM     17  C   UNL     1      -2.689  -2.329   0.758  0.00  0.00    -0.020 A 
ATOM     18  C   UNL     1      -2.880  -3.447   1.544  0.00  0.00    +0.006 A 
ATOM     19  C   UNL     1      -4.145  -3.796   1.984  0.00  0.00    +0.000 A 
ATOM     20  C   UNL     1      -5.241  -3.039   1.606  0.00  0.00    +0.001 A 
ATOM     21  C   UNL     1      -5.077  -1.947   0.782  0.00  0.00    +0.008 A 
ATOM     22  H   UNL     1       1.825  -4.340   2.123  0.00  0.00    +0.155 HD
ATOM     23  N   UNL     1      -1.388  -0.507   0.153  0.00  0.00    -0.384 NA
ATOM     24  H   UNL     1      -1.713  -0.166   1.065  0.00  0.00    +0.127 HD
ENDROOT
BRANCH   1  25
ATOM     25  C   UNL     1      -0.015   1.502   0.019  0.00  0.00    +0.158 C 
ATOM     26  O   UNL     1      -1.059   2.095   0.145  0.00  0.00    -0.295 OA
BRANCH  25  28
ATOM     27  C   UNL     1       0.994   3.768  -0.012  0.00  0.00    +0.018 C 
ATOM     28  C   UNL     1       1.271   2.269  -0.154  0.00  0.00    +0.022 C 
ATOM     29  C   UNL     1       2.273   1.833   0.916  0.00  0.00    +0.018 C 
ATOM     30  C   UNL     1       1.851   1.987  -1.541  0.00  0.00    +0.018 C 
ENDBRANCH  25  28
ENDBRANCH   1  25
BRANCH   2  31
ATOM     31  C   UNL     1      -0.336   0.320   2.499  0.00  0.00    +0.176 C 
ATOM     32  O   UNL     1      -1.426   0.809   2.280  0.00  0.00    -0.291 OA
BRANCH  31  33
ATOM     33  C   UNL     1       0.306   0.553   3.735  0.00  0.00    +0.055 A 
ATOM     34  C   UNL     1      -0.086   1.377   4.786  0.00  0.00    +0.019 A 
ATOM     35  C   UNL     1       0.731   1.416   5.885  0.00  0.00    +0.008 A 
ATOM     36  C   UNL     1       1.870   0.671   5.893  0.00  0.00    +0.046 A 
ATOM     37  S   UNL     1       1.836  -0.125   4.354  0.00  0.00    -0.094 S 
ENDBRANCH  31  33
ENDBRANCH   2  31
TORSDOF 4
