REMARK  Name = ZINC06861403
REMARK  5 active torsions:
REMARK  status: ('A' for Active; 'I' for Inactive)
REMARK    1  A    between atoms: C_1  and  C_2
REMARK    2  A    between atoms: C_4  and  C_17
REMARK    3  A    between atoms: C_5  and  N_7
REMARK    4  A    between atoms: N_7  and  N_8
REMARK    5  A    between atoms: C_9  and  C_10
REMARK                            x       y       z     vdW  Elec       q    Type
REMARK                         _______ _______ _______ _____ _____    ______ ____
ROOT
ATOM      1  N   UNL     1       2.409   1.893  -0.010  0.00  0.00    -0.205 N 
ATOM      2  H   UNL     1       2.646   0.952  -0.017  0.00  0.00    +0.177 HD
ENDROOT
BRANCH   1   7
ATOM      3  C   UNL     1      -1.661   4.658   0.042  0.00  0.00    +0.109 C 
ATOM      4  C   UNL     1      -0.739   3.466   0.027  0.00  0.00    +0.196 A 
ATOM      5  N   UNL     1      -1.122   2.226   0.019  0.00  0.00    -0.201 NA
ATOM      6  C   UNL     1      -0.017   1.428   0.010  0.00  0.00    +0.202 A 
ATOM      7  C   UNL     1       1.083   2.269   0.004  0.00  0.00    +0.244 A 
ATOM      8  O   UNL     1       0.603   3.527   0.015  0.00  0.00    -0.424 OA
BRANCH   6   9
ATOM      9  C   UNL     1       0.002  -0.004   0.002  0.00  0.00    +0.124 C 
ATOM     10  N   UNL     1       0.018  -1.140  -0.004  0.00  0.00    -0.189 NA
ENDBRANCH   6   9
ENDBRANCH   1   7
BRANCH   1  11
ATOM     11  N   UNL     1       3.414   2.869  -0.015  0.00  0.00    -0.188 NA
ATOM     12  C   UNL     1       4.663   2.514  -0.028  0.00  0.00    +0.138 C 
BRANCH  12  13
ATOM     13  C   UNL     1       5.721   3.541  -0.033  0.00  0.00    -0.005 A 
ATOM     14  C   UNL     1       5.383   4.897  -0.029  0.00  0.00    +0.010 A 
ATOM     15  C   UNL     1       6.377   5.852  -0.028  0.00  0.00    +0.016 A 
ATOM     16  C   UNL     1       7.708   5.471  -0.043  0.00  0.00    +0.018 A 
ATOM     17  C   UNL     1       8.050   4.129  -0.052  0.00  0.00    +0.016 A 
ATOM     18  C   UNL     1       7.066   3.163  -0.047  0.00  0.00    +0.010 A 
ATOM     19 BR   UNL     1       9.065   6.788  -0.049  0.00  0.00    -0.050 Br
ENDBRANCH  12  13
ENDBRANCH   1  11
TORSDOF 4
