REMARK  Name = ZINC13642713
REMARK  8 active torsions:
REMARK  status: ('A' for Active; 'I' for Inactive)
REMARK    1  A    between atoms: C_1  and  C_2
REMARK    2  A    between atoms: C_2  and  C_3
REMARK    3  A    between atoms: C_3  and  N_4
REMARK    4  A    between atoms: N_4  and  S_5
REMARK    5  A    between atoms: S_5  and  C_8
REMARK    6  A    between atoms: C_21  and  C_24
REMARK    7  A    between atoms: N_36  and  C_37
REMARK    8  A    between atoms: C_37  and  C_38
REMARK                            x       y       z     vdW  Elec       q    Type
REMARK                         _______ _______ _______ _____ _____    ______ ____
ROOT
ATOM      1  C   UNL     1      -8.522  -0.924   0.793  0.00  0.00    +0.106 A 
ATOM      2  C   UNL     1      -8.467  -1.204  -0.560  0.00  0.00    +0.030 A 
ATOM      3  C   UNL     1      -7.398  -1.914  -1.069  0.00  0.00    +0.025 A 
ATOM      4  C   UNL     1      -6.384  -2.345  -0.223  0.00  0.00    +0.031 A 
ATOM      5  C   UNL     1      -6.436  -2.068   1.135  0.00  0.00    -0.018 A 
ATOM      6  C   UNL     1      -7.515  -1.353   1.634  0.00  0.00    +0.034 A 
ATOM      7  C   UNL     1      -5.369  -2.514   2.084  0.00  0.00    +0.049 C 
ATOM      8  C   UNL     1      -4.482  -1.364   2.498  0.00  0.00    -0.023 C 
ATOM      9  C   UNL     1      -3.243  -1.772   2.631  0.00  0.00    -0.030 C 
ATOM     10  C   UNL     1      -3.136  -3.254   2.328  0.00  0.00    +0.033 C 
ATOM     11  C   UNL     1      -4.396  -3.538   1.461  0.00  0.00    +0.029 C 
ATOM     12  C   UNL     1      -4.064  -3.129   0.023  0.00  0.00    +0.105 C 
ATOM     13  N   UNL     1      -5.306  -3.062  -0.754  0.00  0.00    -0.336 N 
ATOM     14  H   UNL     1      -5.379  -3.505  -1.614  0.00  0.00    +0.147 HD
ENDROOT
BRANCH  12  15
ATOM     15  C   UNL     1      -3.396  -1.778   0.024  0.00  0.00    -0.026 A 
ATOM     16  C   UNL     1      -4.165  -0.627  -0.061  0.00  0.00    +0.007 A 
ATOM     17  C   UNL     1      -3.570   0.616  -0.060  0.00  0.00    +0.027 A 
ATOM     18  C   UNL     1      -2.185   0.725   0.025  0.00  0.00    +0.050 A 
ATOM     19  C   UNL     1      -1.409  -0.440   0.110  0.00  0.00    +0.008 A 
ATOM     20  C   UNL     1      -2.023  -1.690   0.109  0.00  0.00    +0.016 A 
ATOM     21  C   UNL     1      -0.003  -0.002   0.186  0.00  0.00    +0.008 A 
ATOM     22  C   UNL     1       1.209  -0.682   0.285  0.00  0.00    +0.010 A 
ATOM     23  C   UNL     1       2.389   0.028   0.338  0.00  0.00    +0.001 A 
ATOM     24  C   UNL     1       2.374   1.413   0.295  0.00  0.00    +0.002 A 
ATOM     25  C   UNL     1       1.182   2.098   0.197  0.00  0.00    +0.026 A 
ATOM     26  C   UNL     1      -0.021   1.400   0.142  0.00  0.00    +0.050 A 
ATOM     27  N   UNL     1      -1.337   1.817   0.051  0.00  0.00    -0.340 N 
BRANCH  27  28
ATOM     28  C   UNL     1      -1.769   3.215  -0.018  0.00  0.00    +0.119 C 
ATOM     29  C   UNL     1      -1.835   3.657  -1.481  0.00  0.00    +0.027 C 
ENDBRANCH  27  28
ENDBRANCH  12  15
BRANCH   1  30
ATOM     30  S   UNL     1      -9.884  -0.018   1.447  0.00  0.00    +0.058 S 
ATOM     31  O   UNL     1      -9.431   0.584   2.652  0.00  0.00    -0.153 OA
ATOM     32  O   UNL     1     -10.421   0.740   0.372  0.00  0.00    -0.153 OA
BRANCH  30  33
ATOM     33  N   UNL     1     -11.044  -1.119   1.876  0.00  0.00    -0.190 NA
ATOM     34  H   UNL     1     -11.897  -1.129   1.414  0.00  0.00    +0.148 HD
BRANCH  33  35
ATOM     35  C   UNL     1     -10.783  -2.077   2.953  0.00  0.00    +0.105 C 
BRANCH  35  37
ATOM     36  C   UNL     1     -11.827  -3.712   4.527  0.00  0.00    +0.005 C 
ATOM     37  C   UNL     1     -12.100  -2.712   3.402  0.00  0.00    +0.013 C 
ENDBRANCH  35  37
ENDBRANCH  33  35
ENDBRANCH  30  33
ENDBRANCH   1  30
TORSDOF 6
