REMARK  Name = ZINC32736451
REMARK  7 active torsions:
REMARK  status: ('A' for Active; 'I' for Inactive)
REMARK    1  A    between atoms: C_5  and  C_7
REMARK    2  A    between atoms: C_10  and  S_12
REMARK    3  A    between atoms: S_12  and  C_13
REMARK    4  A    between atoms: C_13  and  C_14
REMARK    5  A    between atoms: N_16  and  C_17
REMARK    6  A    between atoms: N_16  and  C_23
REMARK    7  A    between atoms: C_17  and  C_18
REMARK                            x       y       z     vdW  Elec       q    Type
REMARK                         _______ _______ _______ _____ _____    ______ ____
ROOT
ATOM      1  C   UNL     1      -1.616   0.770  -1.745  0.00  0.00    +0.230 C 
ATOM      2  O   UNL     1      -1.901  -0.293  -1.235  0.00  0.00    -0.274 OA
ATOM      3  N   UNL     1      -0.705   1.574  -1.162  0.00  0.00    -0.267 N 
ENDROOT
BRANCH   3   4
ATOM      4  C   UNL     1      -0.456   2.839  -1.687  0.00  0.00    +0.010 C 
ATOM      5  C   UNL     1      -1.420   3.717  -1.654  0.00  0.00    -0.008 C 
ATOM      6  C   UNL     1      -1.300   5.114  -2.189  0.00  0.00    +0.029 C 
ATOM      7  C   UNL     1       0.173   5.485  -2.370  0.00  0.00    +0.004 C 
ATOM      8  C   UNL     1       0.867   4.357  -3.144  0.00  0.00    +0.006 C 
ATOM      9  C   UNL     1       0.908   3.113  -2.250  0.00  0.00    +0.051 C 
ENDBRANCH   3   4
BRANCH   1  10
ATOM     10  C   UNL     1      -2.280   1.192  -3.030  0.00  0.00    +0.175 C 
BRANCH  10  11
ATOM     11  S   UNL     1      -3.330  -0.152  -3.636  0.00  0.00    -0.056 S 
BRANCH  11  15
ATOM     12  C   UNL     1      -5.034   0.947  -6.944  0.00  0.00    +0.250 A 
ATOM     13  N   UNL     1      -4.324   2.006  -6.642  0.00  0.00    -0.106 NA
ATOM     14  N   UNL     1      -3.690   1.798  -5.542  0.00  0.00    -0.101 NA
ATOM     15  C   UNL     1      -3.963   0.591  -5.103  0.00  0.00    +0.278 A 
ATOM     16  O   UNL     1      -4.820   0.028  -5.976  0.00  0.00    -0.411 OA
BRANCH  12  21
ATOM     17  C   UNL     1      -7.419  -0.550  -9.427  0.00  0.00    +0.001 A 
ATOM     18  C   UNL     1      -7.541   0.483 -10.340  0.00  0.00    +0.001 A 
ATOM     19  C   UNL     1      -6.850   1.666 -10.152  0.00  0.00    +0.016 A 
ATOM     20  C   UNL     1      -6.033   1.824  -9.051  0.00  0.00    +0.030 A 
ATOM     21  C   UNL     1      -5.906   0.785  -8.125  0.00  0.00    +0.052 A 
ATOM     22  C   UNL     1      -6.603  -0.408  -8.325  0.00  0.00    +0.014 A 
ATOM     23 BR   UNL     1      -5.088   3.442  -8.796  0.00  0.00    -0.050 Br
ENDBRANCH  12  21
ENDBRANCH  11  15
ENDBRANCH  10  11
ENDBRANCH   1  10
BRANCH   3  24
ATOM     24  C   UNL     1       0.024   1.117   0.024  0.00  0.00    +0.187 C 
BRANCH  24  25
ATOM     25  C   UNL     1      -0.675   1.610   1.264  0.00  0.00    +0.122 A 
ATOM     26  C   UNL     1      -1.645   0.959   1.933  0.00  0.00    +0.046 A 
ATOM     27  C   UNL     1      -2.011   1.779   3.025  0.00  0.00    +0.041 A 
ATOM     28  C   UNL     1      -1.243   2.882   2.958  0.00  0.00    +0.195 A 
ATOM     29  O   UNL     1      -0.432   2.771   1.893  0.00  0.00    -0.466 OA
ENDBRANCH  24  25
ENDBRANCH   3  24
TORSDOF 7
