REMARK  Name = ZINC08725473
REMARK  8 active torsions:
REMARK  status: ('A' for Active; 'I' for Inactive)
REMARK    1  A    between atoms: C_1  and  C_2
REMARK    2  A    between atoms: C_2  and  C_3
REMARK    3  A    between atoms: C_3  and  C_4
REMARK    4  A    between atoms: C_4  and  N_5
REMARK    5  A    between atoms: N_12  and  C_23
REMARK    6  A    between atoms: N_15  and  C_16
REMARK    7  A    between atoms: C_16  and  C_17
REMARK    8  A    between atoms: C_23  and  C_24
REMARK                            x       y       z     vdW  Elec       q    Type
REMARK                         _______ _______ _______ _____ _____    ______ ____
ROOT
ATOM      1  N   UNL     1      -0.020   1.094   2.454  0.00  0.00    -0.325 N 
ATOM      2  C   UNL     1      -0.306  -0.018   3.159  0.00  0.00    +0.202 A 
ATOM      3  N   UNL     1       0.535  -0.137   4.155  0.00  0.00    -0.218 NA
ATOM      4  C   UNL     1       1.398   0.881   4.142  0.00  0.00    +0.168 A 
ATOM      5  C   UNL     1       1.071   1.686   3.058  0.00  0.00    +0.151 A 
ATOM      6  C   UNL     1       1.829   2.851   2.812  0.00  0.00    +0.283 A 
ATOM      7  O   UNL     1       1.558   3.574   1.870  0.00  0.00    -0.265 OA
ATOM      8  N   UNL     1       2.861   3.150   3.628  0.00  0.00    -0.255 N 
ATOM      9  C   UNL     1       3.171   2.359   4.670  0.00  0.00    +0.334 A 
ATOM     10  O   UNL     1       4.108   2.660   5.385  0.00  0.00    -0.246 OA
ATOM     11  N   UNL     1       2.469   1.243   4.944  0.00  0.00    -0.272 N 
ENDROOT
BRANCH   1  12
ATOM     12  C   UNL     1      -0.729   1.579   1.267  0.00  0.00    +0.123 C 
BRANCH  12  13
ATOM     13  C   UNL     1      -0.013   1.086   0.008  0.00  0.00    +0.021 C 
BRANCH  13  15
ATOM     14  C   UNL     1      -0.037   1.099  -2.490  0.00  0.00    +0.004 C 
ATOM     15  C   UNL     1      -0.753   1.593  -1.232  0.00  0.00    -0.002 C 
ENDBRANCH  13  15
ENDBRANCH  12  13
ENDBRANCH   1  12
BRANCH  11  16
ATOM     16  C   UNL     1       2.839   0.409   6.090  0.00  0.00    +0.163 C 
BRANCH  16  17
ATOM     17  C   UNL     1       3.841  -0.629   5.653  0.00  0.00    -0.028 A 
ATOM     18  C   UNL     1       3.407  -1.860   5.198  0.00  0.00    +0.005 A 
ATOM     19  C   UNL     1       4.325  -2.811   4.794  0.00  0.00    +0.000 A 
ATOM     20  C   UNL     1       5.678  -2.533   4.852  0.00  0.00    +0.000 A 
ATOM     21  C   UNL     1       6.113  -1.304   5.311  0.00  0.00    +0.000 A 
ATOM     22  C   UNL     1       5.194  -0.352   5.712  0.00  0.00    +0.005 A 
ENDBRANCH  16  17
ENDBRANCH  11  16
BRANCH   8  23
ATOM     23  C   UNL     1       3.656   4.353   3.374  0.00  0.00    +0.178 C 
BRANCH  23  24
ATOM     24  C   UNL     1       4.821   4.008   2.443  0.00  0.00    +0.231 C 
ATOM     25  C   UNL     1       5.728   5.234   2.273  0.00  0.00    +0.275 C 
ATOM     26  O   UNL     1       6.797   4.881   1.388  0.00  0.00    -0.485 OA
ATOM     27  C   UNL     1       6.454   4.217   0.251  0.00  0.00    +0.162 A 
ATOM     28  C   UNL     1       7.354   4.162  -0.803  0.00  0.00    +0.049 A 
ATOM     29  C   UNL     1       7.022   3.488  -1.963  0.00  0.00    +0.004 A 
ATOM     30  C   UNL     1       5.793   2.867  -2.077  0.00  0.00    +0.004 A 
ATOM     31  C   UNL     1       4.891   2.918  -1.031  0.00  0.00    +0.049 A 
ATOM     32  C   UNL     1       5.217   3.595   0.136  0.00  0.00    +0.163 A 
ATOM     33  O   UNL     1       4.316   3.642   1.155  0.00  0.00    -0.480 OA
ENDBRANCH  23  24
ENDBRANCH   8  23
TORSDOF 7
