REMARK  Name = ZINC36357233
REMARK  6 active torsions:
REMARK  status: ('A' for Active; 'I' for Inactive)
REMARK    1  A    between atoms: C_1  and  C_2
REMARK    2  A    between atoms: C_15  and  O_33
REMARK    3  A    between atoms: C_17  and  C_19
REMARK    4  A    between atoms: C_22  and  C_24
REMARK    5  A    between atoms: C_27  and  C_30
REMARK    6  A    between atoms: C_30  and  C_32
REMARK                            x       y       z     vdW  Elec       q    Type
REMARK                         _______ _______ _______ _____ _____    ______ ____
ROOT
ATOM      1  C   UNL     1      -0.018   1.503   0.010  0.00  0.00    +0.068 C 
ATOM      2  C   UNL     1       0.002  -0.004   0.002  0.00  0.00    +0.066 A 
ATOM      3  C   UNL     1       0.008  -0.806  -1.124  0.00  0.00    +0.030 A 
ATOM      4  C   UNL     1       0.032  -2.129  -0.706  0.00  0.00    +0.165 A 
ATOM      5  N   UNL     1       0.034  -2.119   0.648  0.00  0.00    -0.194 N 
ATOM      6  N   UNL     1       0.023  -0.778   1.064  0.00  0.00    -0.168 NA
ATOM      7  C   UNL     1       0.049  -3.241   1.481  0.00  0.00    +0.178 A 
ATOM      8  C   UNL     1       0.553  -3.144   2.777  0.00  0.00    +0.053 A 
ATOM      9  C   UNL     1       0.546  -4.285   3.564  0.00  0.00    +0.045 A 
ATOM     10  C   UNL     1       0.035  -5.453   3.014  0.00  0.00    +0.152 A 
ATOM     11  N   UNL     1      -0.423  -5.454   1.776  0.00  0.00    -0.136 NA
ATOM     12  N   UNL     1      -0.422  -4.399   1.045  0.00  0.00    -0.128 NA
ATOM     13 CL   UNL     1       0.001  -6.913   3.953  0.00  0.00    -0.060 Cl
ATOM     14  N   UNL     1       0.057  -3.160  -1.598  0.00  0.00    -0.197 NA
ATOM     15  C   UNL     1       0.344  -2.913  -2.841  0.00  0.00    +0.190 C 
ATOM     16  C   UNL     1       0.716  -1.552  -3.354  0.00  0.00    +0.111 C 
ATOM     17  C   UNL     1      -0.011  -0.441  -2.587  0.00  0.00    +0.099 C 
ENDROOT
BRANCH  17  18
ATOM     18  C   UNL     1      -1.436  -0.337  -3.069  0.00  0.00    +0.114 A 
ATOM     19  C   UNL     1      -2.008   0.765  -3.597  0.00  0.00    +0.046 A 
ATOM     20  C   UNL     1      -3.338   0.429  -3.911  0.00  0.00    +0.050 A 
ATOM     21  C   UNL     1      -3.508  -0.874  -3.553  0.00  0.00    +0.135 A 
ATOM     22  O   UNL     1      -2.343  -1.325  -3.048  0.00  0.00    -0.459 OA
BRANCH  21  23
ATOM     23  C   UNL     1      -4.750  -1.656  -3.696  0.00  0.00    +0.017 A 
ATOM     24  C   UNL     1      -5.890  -1.063  -4.249  0.00  0.00    +0.012 A 
ATOM     25  C   UNL     1      -7.040  -1.786  -4.382  0.00  0.00    +0.012 A 
ATOM     26  C   UNL     1      -7.078  -3.123  -3.965  0.00  0.00    +0.017 A 
ATOM     27  C   UNL     1      -5.936  -3.716  -3.412  0.00  0.00    +0.012 A 
ATOM     28  C   UNL     1      -4.785  -2.993  -3.285  0.00  0.00    +0.012 A 
BRANCH  26  29
ATOM     29  C   UNL     1      -8.315  -3.901  -4.107  0.00  0.00    +0.160 C 
ATOM     30  O   UNL     1      -9.304  -3.387  -4.586  0.00  0.00    -0.292 OA
ATOM     31  C   UNL     1      -8.355  -5.340  -3.659  0.00  0.00    +0.091 C 
ENDBRANCH  26  29
ENDBRANCH  21  23
ENDBRANCH  17  18
BRANCH  15  32
ATOM     32  O   UNL     1       0.306  -3.936  -3.720  0.00  0.00    -0.495 OA
ATOM     33  H   UNL     1       0.060  -4.784  -3.325  0.00  0.00    +0.293 HD
ENDBRANCH  15  32
TORSDOF 4
