REMARK  Name = ZINC08762144
REMARK  12 active torsions:
REMARK  status: ('A' for Active; 'I' for Inactive)
REMARK    1  A    between atoms: C_1  and  C_2
REMARK    2  A    between atoms: C_13  and  O_15
REMARK    3  A    between atoms: N_21  and  O_22
REMARK    4  A    between atoms: O_22  and  C_23
REMARK    5  A    between atoms: C_23  and  C_24
REMARK    6  A    between atoms: N_26  and  C_27
REMARK    7  A    between atoms: C_27  and  C_29
REMARK    8  A    between atoms: C_27  and  C_36
REMARK    9  A    between atoms: C_29  and  C_30
REMARK   10  A    between atoms: C_36  and  O_38
REMARK   11  A    between atoms: O_38  and  C_39
REMARK   12  A    between atoms: C_42  and  C_43
REMARK                            x       y       z     vdW  Elec       q    Type
REMARK                         _______ _______ _______ _____ _____    ______ ____
ROOT
ATOM      1  C   UNL     1       0.116   3.929   0.804  0.00  0.00    +0.014 C 
ATOM      2  C   UNL     1      -1.140   3.056   0.764  0.00  0.00    -0.003 C 
ATOM      3  C   UNL     1      -2.173   3.595   1.735  0.00  0.00    +0.010 C 
ATOM      4  C   UNL     1      -1.493   3.691   3.110  0.00  0.00    +0.005 C 
ATOM      5  C   UNL     1      -0.944   2.342   3.565  0.00  0.00    +0.002 C 
ATOM      6  C   UNL     1      -0.003   1.727   2.518  0.00  0.00    -0.003 C 
ATOM      7  C   UNL     1      -0.792   1.611   1.219  0.00  0.00    +0.001 C 
ATOM      8  C   UNL     1      -0.013   1.086   0.008  0.00  0.00    +0.007 C 
ATOM      9  C   UNL     1      -0.826   1.631  -1.198  0.00  0.00    +0.032 C 
ATOM     10  C   UNL     1      -1.595   2.872  -0.680  0.00  0.00    +0.121 C 
ATOM     11  C   UNL     1       0.407   0.325   2.982  0.00  0.00    +0.008 C 
ATOM     12  C   UNL     1       1.253   0.455   4.250  0.00  0.00    +0.031 C 
ATOM     13  C   UNL     1       0.466   1.238   5.285  0.00  0.00    -0.062 C 
ATOM     14  C   UNL     1       0.399   0.744   6.516  0.00  0.00    +0.026 C 
ATOM     15  C   UNL     1      -0.319   1.482   7.569  0.00  0.00    +0.080 C 
ATOM     16  N   UNL     1      -0.746   0.895   8.642  0.00  0.00    -0.089 NA
ATOM     17  C   UNL     1      -0.530   2.964   7.333  0.00  0.00    +0.059 C 
ATOM     18  C   UNL     1      -1.097   3.125   5.923  0.00  0.00    +0.017 C 
ATOM     19  C   UNL     1      -0.171   2.531   4.876  0.00  0.00    -0.007 C 
ATOM     20  C   UNL     1       0.956   3.534   4.618  0.00  0.00    +0.016 C 
ENDROOT
BRANCH  10  21
ATOM     21  O   UNL     1      -1.258   4.023  -1.458  0.00  0.00    -0.391 OA
ATOM     22  H   UNL     1      -1.489   3.946  -2.394  0.00  0.00    +0.210 HD
ENDBRANCH  10  21
BRANCH  16  23
ATOM     23  O   UNL     1      -0.528  -0.492   8.825  0.00  0.00    -0.384 OA
BRANCH  23  24
ATOM     24  C   UNL     1      -1.052  -1.006  10.051  0.00  0.00    +0.358 C 
BRANCH  24  25
ATOM     25  C   UNL     1      -0.765  -2.483  10.140  0.00  0.00    +0.254 C 
ATOM     26  O   UNL     1      -0.170  -3.041   9.242  0.00  0.00    -0.272 OA
ATOM     27  N   UNL     1      -1.169  -3.184  11.218  0.00  0.00    -0.299 N 
ATOM     28  H   UNL     1      -1.645  -2.739  11.936  0.00  0.00    +0.150 HD
BRANCH  27  29
ATOM     29  C   UNL     1      -0.890  -4.620  11.305  0.00  0.00    +0.186 C 
BRANCH  29  30
ATOM     30  C   UNL     1      -1.968  -5.386  10.582  0.00  0.00    +0.328 C 
ATOM     31  O   UNL     1      -2.876  -4.793  10.049  0.00  0.00    -0.249 OA
BRANCH  30  32
ATOM     32  O   UNL     1      -1.919  -6.726  10.530  0.00  0.00    -0.467 OA
ATOM     33  C   UNL     1      -2.991  -7.398   9.817  0.00  0.00    +0.280 C 
ENDBRANCH  30  32
ENDBRANCH  29  30
BRANCH  29  34
ATOM     34  C   UNL     1      -0.859  -5.046  12.774  0.00  0.00    +0.069 C 
BRANCH  34  35
ATOM     35  C   UNL     1       0.296  -4.372  13.468  0.00  0.00    -0.045 A 
ATOM     36  C   UNL     1       1.533  -4.989  13.509  0.00  0.00    +0.004 A 
ATOM     37  C   UNL     1       2.594  -4.369  14.141  0.00  0.00    +0.000 A 
ATOM     38  C   UNL     1       2.416  -3.137  14.742  0.00  0.00    +0.000 A 
ATOM     39  C   UNL     1       1.178  -2.523  14.706  0.00  0.00    +0.000 A 
ATOM     40  C   UNL     1       0.118  -3.140  14.069  0.00  0.00    +0.004 A 
ENDBRANCH  34  35
ENDBRANCH  29  34
ENDBRANCH  27  29
ENDBRANCH  24  25
ENDBRANCH  23  24
ENDBRANCH  16  23
TORSDOF 9
