REMARK  Name = ZINC09724400
REMARK  9 active torsions:
REMARK  status: ('A' for Active; 'I' for Inactive)
REMARK    1  A    between atoms: C_1  and  C_2
REMARK    2  A    between atoms: C_2  and  O_3
REMARK    3  A    between atoms: O_3  and  C_4
REMARK    4  A    between atoms: C_4  and  C_5
REMARK    5  A    between atoms: C_5  and  N_6
REMARK    6  A    between atoms: C_10  and  S_26
REMARK    7  A    between atoms: N_15  and  C_16
REMARK    8  A    between atoms: C_16  and  C_18
REMARK    9  A    between atoms: S_26  and  N_29
REMARK                            x       y       z     vdW  Elec       q    Type
REMARK                         _______ _______ _______ _____ _____    ______ ____
ROOT
ATOM      1  N   UNL     1      -1.109   2.232   0.034  0.00  0.00    -0.319 N 
ATOM      2  C   UNL     1      -0.019   1.382   0.066  0.00  0.00    +0.058 A 
ATOM      3  C   UNL     1      -0.011  -0.022   0.090  0.00  0.00    +0.029 A 
ATOM      4  C   UNL     1       1.174  -0.718   0.114  0.00  0.00    +0.030 A 
ATOM      5  C   UNL     1       2.393  -0.060   0.116  0.00  0.00    +0.106 A 
ATOM      6  C   UNL     1       2.414   1.324   0.093  0.00  0.00    +0.045 A 
ATOM      7  C   UNL     1       1.229   2.020   0.069  0.00  0.00    +0.041 A 
ATOM      8  S   UNL     1       0.805   3.744   0.035  0.00  0.00    -0.052 S 
ATOM      9  C   UNL     1      -0.921   3.580   0.018  0.00  0.00    +0.167 A 
ATOM     10  N   UNL     1      -1.840   4.539  -0.008  0.00  0.00    -0.152 NA
ENDROOT
BRANCH   5  11
ATOM     11  S   UNL     1       3.899  -0.973   0.148  0.00  0.00    +0.056 S 
ATOM     12  O   UNL     1       4.886  -0.110   0.695  0.00  0.00    -0.153 OA
ATOM     13  O   UNL     1       3.594  -2.239   0.718  0.00  0.00    -0.153 OA
BRANCH  11  14
ATOM     14  N   UNL     1       4.335  -1.255  -1.424  0.00  0.00    -0.204 NA
ATOM     15  H   UNL     1       3.779  -0.925  -2.148  0.00  0.00    +0.144 HD
ATOM     16  H   UNL     1       5.146  -1.749  -1.622  0.00  0.00    +0.144 HD
ENDBRANCH  11  14
ENDBRANCH   5  11
BRANCH  10  17
ATOM     17  C   UNL     1      -1.466   5.823  -0.026  0.00  0.00    +0.271 C 
ATOM     18  O   UNL     1      -0.282   6.112  -0.017  0.00  0.00    -0.268 OA
BRANCH  17  19
ATOM     19  C   UNL     1      -2.489   6.892  -0.055  0.00  0.00    +0.057 A 
ATOM     20  C   UNL     1      -3.845   6.563  -0.071  0.00  0.00    +0.016 A 
ATOM     21  C   UNL     1      -4.794   7.563  -0.093  0.00  0.00    +0.021 A 
ATOM     22  C   UNL     1      -4.405   8.892  -0.111  0.00  0.00    +0.042 A 
ATOM     23  C   UNL     1      -3.061   9.225  -0.101  0.00  0.00    +0.040 A 
ATOM     24  C   UNL     1      -2.101   8.233  -0.074  0.00  0.00    +0.055 A 
ATOM     25 CL   UNL     1      -0.417   8.652  -0.061  0.00  0.00    -0.083 Cl
ATOM     26 CL   UNL     1      -5.606  10.145  -0.147  0.00  0.00    -0.083 Cl
ENDBRANCH  17  19
ENDBRANCH  10  17
BRANCH   1  27
ATOM     27  C   UNL     1      -2.467   1.682   0.022  0.00  0.00    +0.152 C 
BRANCH  27  28
ATOM     28  C   UNL     1      -3.386   2.575   0.859  0.00  0.00    +0.181 C 
BRANCH  28  29
ATOM     29  O   UNL     1      -4.676   1.969   0.958  0.00  0.00    -0.378 OA
BRANCH  29  31
ATOM     30  C   UNL     1      -6.955   1.986   1.763  0.00  0.00    +0.034 C 
ATOM     31  C   UNL     1      -5.616   2.726   1.723  0.00  0.00    +0.156 C 
ENDBRANCH  29  31
ENDBRANCH  28  29
ENDBRANCH  27  28
ENDBRANCH   1  27
TORSDOF 8
