REMARK  Name = ZINC03646460
REMARK  5 active torsions:
REMARK  status: ('A' for Active; 'I' for Inactive)
REMARK    1  A    between atoms: C_1  and  C_2
REMARK    2  A    between atoms: C_2  and  N_3
REMARK    3  A    between atoms: C_12  and  C_25
REMARK    4  A    between atoms: C_30  and  O_31
REMARK    5  A    between atoms: O_31  and  C_32
REMARK                            x       y       z     vdW  Elec       q    Type
REMARK                         _______ _______ _______ _____ _____    ______ ____
ROOT
ATOM      1  N   UNL     1       3.653   4.597   0.612  0.00  0.00    -0.282 N 
ATOM      2  C   UNL     1       3.215   3.328   0.303  0.00  0.00    +0.116 A 
ATOM      3  C   UNL     1       4.105   2.298   0.298  0.00  0.00    +0.067 A 
ATOM      4  C   UNL     1       5.453   2.561   0.618  0.00  0.00    +0.260 A 
ATOM      5  O   UNL     1       6.267   1.654   0.623  0.00  0.00    -0.267 OA
ATOM      6  N   UNL     1       5.837   3.816   0.917  0.00  0.00    -0.275 N 
ATOM      7  H   UNL     1       6.793   4.001   1.145  0.00  0.00    +0.173 HD
ATOM      8  C   UNL     1       4.943   4.822   0.913  0.00  0.00    +0.331 A 
ATOM      9  O   UNL     1       5.308   5.949   1.185  0.00  0.00    -0.246 OA
ATOM     10  C   UNL     1       3.705   0.884  -0.037  0.00  0.00    +0.097 C 
ATOM     11  C   UNL     1       2.203   0.769  -0.018  0.00  0.00    +0.034 C 
ATOM     12  C   UNL     1       1.378   1.865  -0.001  0.00  0.00    +0.048 C 
ATOM     13  N   UNL     1       1.881   3.147   0.009  0.00  0.00    -0.299 N 
ATOM     14  C   UNL     1      -0.017   1.414   0.010  0.00  0.00    +0.007 A 
ATOM     15  C   UNL     1      -1.215   2.110   0.030  0.00  0.00    +0.010 A 
ATOM     16  C   UNL     1      -2.389   1.351   0.034  0.00  0.00    +0.001 A 
ATOM     17  C   UNL     1      -2.367  -0.024   0.027  0.00  0.00    +0.001 A 
ATOM     18  C   UNL     1      -1.166  -0.741   0.011  0.00  0.00    +0.012 A 
ATOM     19  C   UNL     1       0.002  -0.004   0.002  0.00  0.00    +0.031 A 
ATOM     20  C   UNL     1       1.425  -0.410  -0.016  0.00  0.00    +0.193 C 
ATOM     21  O   UNL     1       1.847  -1.550  -0.028  0.00  0.00    -0.287 OA
ATOM     22  H   UNL     1       1.309   3.906  -0.187  0.00  0.00    +0.154 HD
ENDROOT
BRANCH  10  23
ATOM     23  C   UNL     1       4.218   0.528  -1.409  0.00  0.00    +0.006 A 
ATOM     24  C   UNL     1       3.810   1.254  -2.510  0.00  0.00    +0.008 A 
ATOM     25  C   UNL     1       4.285   0.932  -3.768  0.00  0.00    +0.001 A 
ATOM     26  C   UNL     1       5.161  -0.127  -3.928  0.00  0.00    +0.004 A 
ATOM     27  C   UNL     1       5.568  -0.860  -2.830  0.00  0.00    +0.046 A 
ATOM     28  C   UNL     1       5.097  -0.534  -1.567  0.00  0.00    +0.124 A 
BRANCH  28  29
ATOM     29  O   UNL     1       5.497  -1.254  -0.485  0.00  0.00    -0.495 OA
ATOM     30  C   UNL     1       6.403  -2.333  -0.723  0.00  0.00    +0.277 C 
ENDBRANCH  28  29
ENDBRANCH  10  23
BRANCH   1  32
ATOM     31  C   UNL     1       2.089   5.857   2.008  0.00  0.00    +0.027 C 
ATOM     32  C   UNL     1       2.702   5.712   0.614  0.00  0.00    +0.125 C 
ENDBRANCH   1  32
TORSDOF 3
