REMARK  Name = ZINC35991327
REMARK  12 active torsions:
REMARK  status: ('A' for Active; 'I' for Inactive)
REMARK    1  A    between atoms: C_1  and  C_2
REMARK    2  A    between atoms: C_2  and  N_3
REMARK    3  A    between atoms: C_4  and  C_23
REMARK    4  A    between atoms: C_5  and  C_18
REMARK    5  A    between atoms: C_6  and  C_11
REMARK    6  A    between atoms: C_16  and  C_17
REMARK    7  A    between atoms: C_18  and  O_20
REMARK    8  A    between atoms: O_20  and  C_21
REMARK    9  A    between atoms: C_21  and  C_22
REMARK   10  A    between atoms: C_23  and  N_24
REMARK   11  A    between atoms: N_27  and  C_30
REMARK   12  A    between atoms: C_30  and  C_31
REMARK                            x       y       z     vdW  Elec       q    Type
REMARK                         _______ _______ _______ _____ _____    ______ ____
ROOT
ATOM      1  N   UNL     1      -1.506  -0.649  -0.839  0.00  0.00    -0.258 N 
ATOM      2  C   UNL     1      -1.758  -0.509   0.495  0.00  0.00    +0.041 C 
ATOM      3  C   UNL     1      -2.962  -0.830   1.015  0.00  0.00    +0.080 C 
ATOM      4  C   UNL     1      -4.023  -1.351   0.067  0.00  0.00    +0.144 C 
ATOM      5  N   UNL     1      -3.650  -1.465  -1.353  0.00  0.00    -0.288 N 
ATOM      6  C   UNL     1      -2.406  -1.100  -1.722  0.00  0.00    +0.307 C 
ATOM      7  O   UNL     1      -2.091  -1.186  -2.892  0.00  0.00    -0.252 OA
ATOM      8  H   UNL     1      -4.286  -1.792  -2.009  0.00  0.00    +0.151 HD
ENDROOT
BRANCH   4   9
ATOM      9  C   UNL     1      -5.219  -0.439   0.161  0.00  0.00    -0.020 A 
ATOM     10  C   UNL     1      -5.336   0.638  -0.698  0.00  0.00    +0.006 A 
ATOM     11  C   UNL     1      -6.433   1.474  -0.611  0.00  0.00    +0.000 A 
ATOM     12  C   UNL     1      -7.413   1.234   0.334  0.00  0.00    +0.000 A 
ATOM     13  C   UNL     1      -7.296   0.156   1.191  0.00  0.00    +0.004 A 
ATOM     14  C   UNL     1      -6.201  -0.683   1.102  0.00  0.00    -0.045 A 
ATOM     15  C   UNL     1      -6.077  -1.861   2.034  0.00  0.00    +0.044 C 
ENDBRANCH   4   9
BRANCH   1  17
ATOM     16  C   UNL     1      -0.171   1.197  -1.729  0.00  0.00    +0.025 C 
ATOM     17  C   UNL     1      -0.177  -0.281  -1.335  0.00  0.00    +0.111 C 
ENDBRANCH   1  17
BRANCH   3  18
ATOM     18  C   UNL     1      -3.224  -0.686   2.397  0.00  0.00    +0.339 C 
ATOM     19  O   UNL     1      -3.118  -1.644   3.140  0.00  0.00    -0.245 OA
BRANCH  18  20
ATOM     20  O   UNL     1      -3.592   0.514   2.893  0.00  0.00    -0.462 OA
BRANCH  20  21
ATOM     21  C   UNL     1      -3.737   0.614   4.311  0.00  0.00    +0.229 C 
ATOM     22  C   UNL     1      -4.274   2.001   4.672  0.00  0.00    +0.048 C 
ENDBRANCH  20  21
ENDBRANCH  18  20
ENDBRANCH   3  18
BRANCH   2  23
ATOM     23  C   UNL     1      -0.674   0.013   1.403  0.00  0.00    +0.136 C 
BRANCH  23  24
ATOM     24  N   UNL     1       0.425  -0.959   1.464  0.00  0.00    -0.300 NA
ATOM     25  C   UNL     1      -0.006  -2.201   2.121  0.00  0.00    +0.066 C 
ATOM     26  C   UNL     1       1.146  -3.208   2.111  0.00  0.00    -0.063 C 
ATOM     27  N   UNL     1       2.302  -2.636   2.815  0.00  0.00    +0.384 N 
ATOM     28  C   UNL     1       2.736  -1.410   2.133  0.00  0.00    -0.063 C 
ATOM     29  C   UNL     1       1.596  -0.389   2.144  0.00  0.00    +0.066 C 
ATOM     30  H   UNL     1       2.042  -2.418   3.765  0.00  0.00    -0.081 HD
BRANCH  27  31
ATOM     31  C   UNL     1       3.402  -3.609   2.821  0.00  0.00    -0.043 C 
BRANCH  31  32
ATOM     32  C   UNL     1       4.542  -3.074   3.647  0.00  0.00    -0.064 A 
ATOM     33  C   UNL     1       5.526  -2.305   3.053  0.00  0.00    +0.002 A 
ATOM     34  C   UNL     1       6.572  -1.814   3.812  0.00  0.00    +0.000 A 
ATOM     35  C   UNL     1       6.634  -2.091   5.164  0.00  0.00    +0.000 A 
ATOM     36  C   UNL     1       5.650  -2.859   5.759  0.00  0.00    +0.000 A 
ATOM     37  C   UNL     1       4.602  -3.346   5.001  0.00  0.00    +0.002 A 
ENDBRANCH  31  32
ENDBRANCH  27  31
ENDBRANCH  23  24
ENDBRANCH   2  23
TORSDOF 9
