REMARK  Name = ZINC17028434
REMARK  2 active torsions:
REMARK  status: ('A' for Active; 'I' for Inactive)
REMARK    1  A    between atoms: C_19  and  C_24
REMARK    2  A    between atoms: C_21  and  O_23
REMARK                            x       y       z     vdW  Elec       q    Type
REMARK                         _______ _______ _______ _____ _____    ______ ____
ROOT
ATOM      1  C   UNL     1      -0.017   1.375   0.010  0.00  0.00    +0.000 A 
ATOM      2  C   UNL     1       1.173   2.079   0.002  0.00  0.00    +0.000 A 
ATOM      3  C   UNL     1       2.372   1.396  -0.019  0.00  0.00    +0.005 A 
ATOM      4  C   UNL     1       2.392   0.008  -0.029  0.00  0.00    -0.027 A 
ATOM      5  C   UNL     1       1.208  -0.695  -0.011  0.00  0.00    -0.041 A 
ATOM      6  C   UNL     1       0.002  -0.004   0.002  0.00  0.00    +0.004 A 
ATOM      7  C   UNL     1       1.151  -2.200   0.010  0.00  0.00    +0.054 C 
ATOM      8  C   UNL     1       2.465  -2.801  -0.485  0.00  0.00    +0.113 C 
ATOM      9  N   UNL     1       3.568  -2.109   0.202  0.00  0.00    -0.297 N 
ATOM     10  C   UNL     1       3.735  -0.676  -0.066  0.00  0.00    +0.143 C 
ATOM     11  C   UNL     1       4.410  -2.780   1.064  0.00  0.00    +0.194 C 
ATOM     12  N   UNL     1       5.369  -2.125   1.654  0.00  0.00    -0.245 NA
ATOM     13  C   UNL     1       6.282  -2.800   2.577  0.00  0.00    +0.089 C 
ATOM     14  C   UNL     1       7.622  -2.063   2.603  0.00  0.00    +0.032 C 
ATOM     15  C   UNL     1       7.404  -0.623   3.073  0.00  0.00    +0.002 C 
ATOM     16  C   UNL     1       6.800  -0.631   4.478  0.00  0.00    +0.000 C 
ATOM     17  C   UNL     1       5.459  -1.368   4.452  0.00  0.00    +0.002 C 
ATOM     18  C   UNL     1       5.677  -2.807   3.982  0.00  0.00    +0.032 C 
ATOM     19  C   UNL     1       6.502  -4.241   2.109  0.00  0.00    +0.202 C 
ATOM     20  C   UNL     1       5.167  -4.853   1.766  0.00  0.00    +0.187 C 
ATOM     21  N   UNL     1       4.215  -4.105   1.280  0.00  0.00    -0.302 N 
ATOM     22  H   UNL     1       3.356  -4.502   1.066  0.00  0.00    +0.171 HD
ENDROOT
BRANCH  20  23
ATOM     23  O   UNL     1       4.956  -6.166   1.965  0.00  0.00    -0.496 OA
ATOM     24  H   UNL     1       4.071  -6.465   1.715  0.00  0.00    +0.293 HD
ENDBRANCH  20  23
BRANCH  19  25
ATOM     25  C   UNL     1       7.369  -4.246   0.920  0.00  0.00    +0.078 C 
ATOM     26  N   UNL     1       8.039  -4.250   0.002  0.00  0.00    -0.196 NA
ENDBRANCH  19  25
TORSDOF 2
