REMARK  Name = ZINC26664862
REMARK  8 active torsions:
REMARK  status: ('A' for Active; 'I' for Inactive)
REMARK    1  A    between atoms: C_1  and  C_2
REMARK    2  A    between atoms: C_9  and  C_13
REMARK    3  A    between atoms: C_13  and  S_14
REMARK    4  A    between atoms: S_14  and  C_15
REMARK    5  A    between atoms: N_19  and  C_20
REMARK    6  A    between atoms: C_20  and  C_21
REMARK    7  A    between atoms: C_21  and  C_22
REMARK    8  A    between atoms: C_21  and  C_23
REMARK                            x       y       z     vdW  Elec       q    Type
REMARK                         _______ _______ _______ _____ _____    ______ ____
ROOT
ATOM      1  C   UNL     1      -0.975  -1.604  -0.695  0.00  0.00    +0.193 A 
ATOM      2  N   UNL     1       0.228  -2.123  -0.665  0.00  0.00    -0.121 NA
ATOM      3  N   UNL     1       0.835  -1.742   0.538  0.00  0.00    -0.112 NA
ATOM      4  C   UNL     1      -0.015  -0.997   1.202  0.00  0.00    +0.220 A 
ATOM      5  N   UNL     1      -1.155  -0.889   0.456  0.00  0.00    -0.290 N 
ATOM      6  N   UNL     1       0.204  -0.419   2.446  0.00  0.00    -0.295 N 
ATOM      7  C   UNL     1       1.381   0.461   2.418  0.00  0.00    +0.136 C 
ATOM      8  C   UNL     1       1.550   1.122   3.789  0.00  0.00    +0.179 C 
ATOM      9  O   UNL     1       1.657   0.107   4.791  0.00  0.00    -0.377 OA
ATOM     10  C   UNL     1       0.527  -0.768   4.847  0.00  0.00    +0.179 C 
ATOM     11  C   UNL     1       0.348  -1.448   3.487  0.00  0.00    +0.136 C 
ENDROOT
BRANCH   1  12
ATOM     12  S   UNL     1      -2.153  -1.790  -1.992  0.00  0.00    -0.080 S 
BRANCH  12  13
ATOM     13  C   UNL     1      -1.305  -2.839  -3.206  0.00  0.00    +0.133 C 
BRANCH  13  22
ATOM     14  C   UNL     1      -5.329  -5.760  -3.821  0.00  0.00    +0.047 C 
ATOM     15  C   UNL     1      -5.116  -5.061  -5.138  0.00  0.00    -0.008 A 
ATOM     16  C   UNL     1      -5.955  -5.298  -6.186  0.00  0.00    +0.008 A 
ATOM     17  C   UNL     1      -5.742  -4.639  -7.405  0.00  0.00    +0.019 A 
ATOM     18  C   UNL     1      -4.713  -3.773  -7.539  0.00  0.00    +0.096 A 
ATOM     19  N   UNL     1      -3.869  -3.529  -6.498  0.00  0.00    -0.268 N 
ATOM     20  C   UNL     1      -4.049  -4.157  -5.297  0.00  0.00    +0.143 A 
ATOM     21  N   UNL     1      -3.226  -3.927  -4.276  0.00  0.00    -0.233 NA
ATOM     22  C   UNL     1      -2.215  -3.080  -4.384  0.00  0.00    +0.059 A 
ATOM     23  C   UNL     1      -1.989  -2.420  -5.576  0.00  0.00    +0.094 A 
ATOM     24  C   UNL     1      -2.847  -2.660  -6.655  0.00  0.00    +0.259 A 
ATOM     25  O   UNL     1      -2.675  -2.093  -7.723  0.00  0.00    -0.267 OA
ENDBRANCH  13  22
ENDBRANCH  12  13
ENDBRANCH   1  12
BRANCH   5  26
ATOM     26  C   UNL     1      -2.360  -0.144   0.828  0.00  0.00    +0.130 C 
BRANCH  26  27
ATOM     27  C   UNL     1      -3.244  -1.016   1.722  0.00  0.00    +0.003 C 
ATOM     28  C   UNL     1      -4.427  -0.190   2.231  0.00  0.00    +0.009 C 
ATOM     29  C   UNL     1      -3.764  -2.209   0.916  0.00  0.00    +0.009 C 
ENDBRANCH  26  27
ENDBRANCH   5  26
TORSDOF 5
