REMARK  Name = ZINC12776355
REMARK  6 active torsions:
REMARK  status: ('A' for Active; 'I' for Inactive)
REMARK    1  A    between atoms: C_1  and  C_2
REMARK    2  A    between atoms: N_4  and  C_5
REMARK    3  A    between atoms: C_7  and  O_38
REMARK    4  A    between atoms: C_15  and  C_18
REMARK    5  A    between atoms: C_25  and  O_27
REMARK    6  A    between atoms: O_27  and  C_28
REMARK                            x       y       z     vdW  Elec       q    Type
REMARK                         _______ _______ _______ _____ _____    ______ ____
ROOT
ATOM      1  C   UNL     1      -0.013   1.086   0.008  0.00  0.00    +0.173 C 
ATOM      2  C   UNL     1       1.423   1.618  -0.003  0.00  0.00    +0.172 C 
ATOM      3  C   UNL     1       1.395   3.147   0.077  0.00  0.00    +0.183 C 
ATOM      4  C   UNL     1       0.617   3.574   1.326  0.00  0.00    +0.179 C 
ATOM      5  C   UNL     1       1.366   3.087   2.569  0.00  0.00    +0.197 C 
ATOM      6  O   UNL     1       2.713   3.570   2.518  0.00  0.00    -0.345 OA
ATOM      7  C   UNL     1       3.426   3.167   1.346  0.00  0.00    +0.282 C 
ATOM      8  O   UNL     1       2.738   3.633   0.183  0.00  0.00    -0.339 OA
ATOM      9  O   UNL     1      -0.693   3.010   1.299  0.00  0.00    -0.332 OA
ATOM     10  C   UNL     1      -0.720   1.581   1.273  0.00  0.00    +0.331 C 
ENDROOT
BRANCH   7  11
ATOM     11  C   UNL     1       4.814   3.753   1.377  0.00  0.00    +0.008 A 
ATOM     12  C   UNL     1       5.231   4.596   0.364  0.00  0.00    +0.008 A 
ATOM     13  C   UNL     1       6.502   5.138   0.394  0.00  0.00    +0.000 A 
ATOM     14  C   UNL     1       7.360   4.829   1.433  0.00  0.00    +0.000 A 
ATOM     15  C   UNL     1       6.945   3.982   2.444  0.00  0.00    +0.000 A 
ATOM     16  C   UNL     1       5.672   3.444   2.416  0.00  0.00    +0.008 A 
ENDBRANCH   7  11
BRANCH   1  20
ATOM     17  C   UNL     1      -2.511   1.386  -2.877  0.00  0.00    +0.109 C 
ATOM     18  C   UNL     1      -1.779   0.885  -1.659  0.00  0.00    +0.210 C 
ATOM     19  O   UNL     1      -2.138  -0.136  -1.113  0.00  0.00    -0.276 OA
ATOM     20  N   UNL     1      -0.725   1.573  -1.176  0.00  0.00    -0.304 N 
ATOM     21  H   UNL     1      -0.437   2.390  -1.613  0.00  0.00    +0.149 HD
ENDBRANCH   1  20
BRANCH   2  22
ATOM     22  O   UNL     1       2.135   1.094   1.121  0.00  0.00    -0.387 OA
ATOM     23  H   UNL     1       2.188   0.129   1.137  0.00  0.00    +0.210 HD
ENDBRANCH   2  22
BRANCH  10  24
ATOM     24  O   UNL     1      -0.049   1.070   2.426  0.00  0.00    -0.461 OA
BRANCH  24  25
ATOM     25  C   UNL     1      -0.665   1.240   3.624  0.00  0.00    +0.132 A 
ATOM     26  C   UNL     1      -1.873   1.876   3.692  0.00  0.00    +0.046 A 
ATOM     27  C   UNL     1      -2.518   2.058   4.912  0.00  0.00    +0.004 A 
ATOM     28  C   UNL     1      -1.965   1.609   6.073  0.00  0.00    +0.009 A 
ATOM     29  C   UNL     1      -0.724   0.951   6.045  0.00  0.00    -0.014 A 
ATOM     30  C   UNL     1      -0.066   0.757   4.805  0.00  0.00    +0.024 A 
ATOM     31  C   UNL     1       1.177   0.105   4.779  0.00  0.00    +0.012 A 
ATOM     32  C   UNL     1       1.727  -0.343   5.940  0.00  0.00    +0.001 A 
ATOM     33  C   UNL     1       1.078  -0.159   7.160  0.00  0.00    +0.001 A 
ATOM     34  C   UNL     1      -0.124   0.475   7.224  0.00  0.00    +0.008 A 
ENDBRANCH  24  25
ENDBRANCH  10  24
TORSDOF 5
