REMARK  Name = ZINC08629100
REMARK  11 active torsions:
REMARK  status: ('A' for Active; 'I' for Inactive)
REMARK    1  A    between atoms: C_1  and  C_2
REMARK    2  A    between atoms: C_3  and  C_36
REMARK    3  A    between atoms: C_4  and  C_35
REMARK    4  A    between atoms: C_7  and  C_8
REMARK    5  A    between atoms: C_8  and  C_10
REMARK    6  A    between atoms: C_10  and  O_11
REMARK    7  A    between atoms: O_11  and  C_12
REMARK    8  A    between atoms: C_12  and  C_14
REMARK    9  A    between atoms: C_27  and  C_28
REMARK   10  A    between atoms: C_31  and  O_34
REMARK   11  A    between atoms: C_36  and  C_38
REMARK                            x       y       z     vdW  Elec       q    Type
REMARK                         _______ _______ _______ _____ _____    ______ ____
ROOT
ATOM      1  C   UNL     1      -4.709   0.383   0.014  0.00  0.00    +0.073 A 
ATOM      2  C   UNL     1      -5.328  -0.068  -1.233  0.00  0.00    +0.015 A 
ATOM      3  C   UNL     1      -4.814   0.298  -2.480  0.00  0.00    +0.011 A 
ATOM      4  C   UNL     1      -5.424  -0.146  -3.617  0.00  0.00    +0.001 A 
ATOM      5  C   UNL     1      -6.553  -0.958  -3.549  0.00  0.00    +0.002 A 
ATOM      6  C   UNL     1      -7.080  -1.332  -2.351  0.00  0.00    +0.028 A 
ATOM      7  C   UNL     1      -6.477  -0.894  -1.156  0.00  0.00    +0.072 A 
ATOM      8  N   UNL     1      -6.970  -1.243   0.030  0.00  0.00    -0.247 NA
ATOM      9  C   UNL     1      -6.431  -0.850   1.180  0.00  0.00    +0.072 A 
ATOM     10  C   UNL     1      -5.287  -0.035   1.205  0.00  0.00    -0.007 A 
ATOM     11  C   UNL     1      -4.893   0.248   2.633  0.00  0.00    +0.043 C 
ATOM     12  C   UNL     1      -5.912  -0.487   3.514  0.00  0.00    +0.042 C 
ATOM     13  C   UNL     1      -6.866  -1.156   2.557  0.00  0.00    -0.021 C 
ATOM     14  C   UNL     1      -7.923  -1.914   2.899  0.00  0.00    +0.013 C 
ENDROOT
BRANCH  14  15
ATOM     15  C   UNL     1      -8.160  -2.252   4.312  0.00  0.00    -0.024 A 
ATOM     16  C   UNL     1      -9.156  -3.171   4.656  0.00  0.00    +0.011 A 
ATOM     17  C   UNL     1      -9.370  -3.487   5.980  0.00  0.00    +0.046 A 
ATOM     18  C   UNL     1      -8.606  -2.887   6.973  0.00  0.00    +0.117 A 
ATOM     19  C   UNL     1      -7.619  -1.968   6.636  0.00  0.00    +0.046 A 
ATOM     20  C   UNL     1      -7.394  -1.649   5.315  0.00  0.00    +0.011 A 
BRANCH  18  21
ATOM     21  O   UNL     1      -8.825  -3.198   8.277  0.00  0.00    -0.507 OA
ATOM     22  H   UNL     1      -9.478  -2.633   8.711  0.00  0.00    +0.292 HD
ENDBRANCH  18  21
ENDBRANCH  14  15
BRANCH   1  23
ATOM     23  C   UNL     1      -3.509   1.245   0.006  0.00  0.00    +0.341 C 
ATOM     24  O   UNL     1      -3.630   2.454  -0.001  0.00  0.00    -0.245 OA
BRANCH  23  25
ATOM     25  O   UNL     1      -2.281   0.691   0.007  0.00  0.00    -0.453 OA
BRANCH  25  26
ATOM     26  C   UNL     1      -1.148   1.599  -0.001  0.00  0.00    +0.313 C 
BRANCH  26  27
ATOM     27  C   UNL     1       0.132   0.805   0.001  0.00  0.00    +0.217 C 
ATOM     28  O   UNL     1       0.094  -0.409   0.009  0.00  0.00    -0.287 OA
BRANCH  27  35
ATOM     29  C   UNL     1       2.900  -0.609  -0.010  0.00  0.00    +0.047 C 
ATOM     30  C   UNL     1       2.619   0.872  -0.017  0.00  0.00    -0.012 A 
ATOM     31  C   UNL     1       3.578   1.911  -0.029  0.00  0.00    +0.041 A 
ATOM     32  C   UNL     1       2.879   3.110  -0.032  0.00  0.00    +0.024 A 
ATOM     33  N   UNL     1       1.567   2.841  -0.027  0.00  0.00    -0.355 N 
ATOM     34  H   UNL     1       0.858   3.504  -0.031  0.00  0.00    +0.166 HD
ATOM     35  C   UNL     1       1.380   1.473  -0.011  0.00  0.00    +0.090 A 
ATOM     36  C   UNL     1       3.495   4.486  -0.044  0.00  0.00    +0.064 C 
BRANCH  31  37
ATOM     37  C   UNL     1       5.035   1.752  -0.038  0.00  0.00    +0.162 C 
ATOM     38  O   UNL     1       5.655   1.783   1.004  0.00  0.00    -0.292 OA
ATOM     39  C   UNL     1       5.764   1.550  -1.342  0.00  0.00    +0.091 C 
ENDBRANCH  31  37
ENDBRANCH  27  35
ENDBRANCH  26  27
ENDBRANCH  25  26
ENDBRANCH  23  25
ENDBRANCH   1  23
TORSDOF 8
