REMARK  Name = ZINC02723588
REMARK  4 active torsions:
REMARK  status: ('A' for Active; 'I' for Inactive)
REMARK    1  A    between atoms: N_9  and  S_11
REMARK    2  A    between atoms: S_11  and  C_14
REMARK    3  A    between atoms: C_17  and  C_20
REMARK    4  A    between atoms: C_26  and  C_28
REMARK                            x       y       z     vdW  Elec       q    Type
REMARK                         _______ _______ _______ _____ _____    ______ ____
ROOT
ATOM      1  C   UNL     1     -11.145   1.351   0.059  0.00  0.00    +0.106 A 
ATOM      2  C   UNL     1     -10.740   0.028   0.049  0.00  0.00    +0.029 A 
ATOM      3  C   UNL     1      -9.396  -0.285   0.041  0.00  0.00    +0.015 A 
ATOM      4  C   UNL     1      -8.445   0.737   0.043  0.00  0.00    +0.037 A 
ATOM      5  C   UNL     1      -8.861   2.070   0.058  0.00  0.00    +0.015 A 
ATOM      6  C   UNL     1     -10.208   2.368   0.061  0.00  0.00    +0.029 A 
ENDROOT
BRANCH   4   7
ATOM      7  C   UNL     1      -7.004   0.409   0.035  0.00  0.00    +0.252 C 
ATOM      8  O   UNL     1      -6.645  -0.752   0.026  0.00  0.00    -0.270 OA
ATOM      9  N   UNL     1      -6.088   1.398   0.036  0.00  0.00    -0.234 N 
ATOM     10  C   UNL     1      -4.737   1.091   0.029  0.00  0.00    +0.315 A 
ATOM     11  N   UNL     1      -4.216  -0.112   0.019  0.00  0.00    -0.092 NA
ATOM     12  N   UNL     1      -2.933  -0.024   0.009  0.00  0.00    -0.105 NA
ATOM     13  C   UNL     1      -2.583   1.243   0.020  0.00  0.00    +0.257 A 
ATOM     14  O   UNL     1      -3.719   1.974   0.029  0.00  0.00    -0.404 OA
ATOM     15  H   UNL     1      -6.375   2.325   0.043  0.00  0.00    +0.160 HD
BRANCH  13  16
ATOM     16  C   UNL     1      -1.210   1.767   0.017  0.00  0.00    +0.077 A 
ATOM     17  C   UNL     1      -0.013   1.076   0.008  0.00  0.00    +0.022 A 
ATOM     18  C   UNL     1       1.160   1.796   0.001  0.00  0.00    +0.028 A 
ATOM     19  C   UNL     1       1.105   3.155   0.009  0.00  0.00    +0.079 A 
ATOM     20  S   UNL     1      -0.653   3.464   0.027  0.00  0.00    -0.072 S 
ATOM     21 CL   UNL     1       2.412   4.298   0.001  0.00  0.00    -0.076 Cl
ENDBRANCH  13  16
ENDBRANCH   4   7
BRANCH   1  22
ATOM     22  S   UNL     1     -12.864   1.742   0.070  0.00  0.00    +0.061 S 
ATOM     23  O   UNL     1     -12.986   3.049  -0.473  0.00  0.00    -0.153 OA
ATOM     24  O   UNL     1     -13.538   0.621  -0.485  0.00  0.00    -0.153 OA
BRANCH  22  33
ATOM     25  C   UNL     1     -11.629   2.562   6.302  0.00  0.00    +0.000 A 
ATOM     26  C   UNL     1     -11.809   3.830   5.782  0.00  0.00    +0.000 A 
ATOM     27  C   UNL     1     -12.338   3.982   4.517  0.00  0.00    +0.005 A 
ATOM     28  C   UNL     1     -12.690   2.871   3.762  0.00  0.00    -0.028 A 
ATOM     29  C   UNL     1     -12.504   1.607   4.275  0.00  0.00    -0.042 A 
ATOM     30  C   UNL     1     -11.975   1.457   5.551  0.00  0.00    +0.004 A 
ATOM     31  C   UNL     1     -12.846   0.356   3.510  0.00  0.00    +0.052 C 
ATOM     32  C   UNL     1     -13.835   0.662   2.380  0.00  0.00    +0.114 C 
ATOM     33  N   UNL     1     -13.333   1.841   1.655  0.00  0.00    -0.172 NA
ATOM     34  C   UNL     1     -13.271   3.108   2.391  0.00  0.00    +0.144 C 
ENDBRANCH  22  33
ENDBRANCH   1  22
TORSDOF 4
