REMARK  Name = ZINC61537875
REMARK  6 active torsions:
REMARK  status: ('A' for Active; 'I' for Inactive)
REMARK    1  A    between atoms: C_1  and  C_2
REMARK    2  A    between atoms: C_2  and  C_4
REMARK    3  A    between atoms: C_2  and  N_7
REMARK    4  A    between atoms: N_7  and  C_8
REMARK    5  A    between atoms: N_16  and  C_17
REMARK    6  A    between atoms: N_16  and  C_18
REMARK                            x       y       z     vdW  Elec       q    Type
REMARK                         _______ _______ _______ _____ _____    ______ ____
ROOT
ATOM      1  N   UNL     1       0.688  -0.476  -1.203  0.00  0.00    -0.300 N 
ATOM      2  C   UNL     1       0.170  -0.122  -2.527  0.00  0.00    +0.132 C 
ATOM      3  C   UNL     1       1.822  -1.255  -1.092  0.00  0.00    +0.223 A 
ATOM      4  N   UNL     1       2.447  -1.680  -2.184  0.00  0.00    -0.181 NA
ATOM      5  C   UNL     1       3.539  -2.429  -2.073  0.00  0.00    +0.223 A 
ATOM      6  N   UNL     1       4.002  -2.752  -0.868  0.00  0.00    -0.184 NA
ATOM      7  C   UNL     1       3.377  -2.328   0.218  0.00  0.00    +0.229 A 
ATOM      8  N   UNL     1       2.293  -1.577   0.110  0.00  0.00    -0.184 NA
ATOM      9 CL   UNL     1       3.984  -2.752   1.788  0.00  0.00    -0.041 Cl
ATOM     10  N   UNL     1       4.191  -2.872  -3.205  0.00  0.00    -0.306 N 
ATOM     11  C   UNL     1       3.680  -2.516  -4.532  0.00  0.00    +0.132 C 
ATOM     12  C   UNL     1       5.395  -3.698  -3.082  0.00  0.00    +0.132 C 
ENDROOT
BRANCH   1  14
ATOM     13  C   UNL     1      -0.019   1.526   0.010  0.00  0.00    +0.028 C 
ATOM     14  C   UNL     1       0.002  -0.004   0.002  0.00  0.00    +0.076 C 
BRANCH  14  15
ATOM     15  C   UNL     1      -1.433  -0.534   0.013  0.00  0.00    +0.009 C 
ATOM     16  C   UNL     1      -2.562   0.482  -0.174  0.00  0.00    +0.005 C 
ATOM     17  C   UNL     1      -2.320  -0.148   1.199  0.00  0.00    +0.005 C 
ENDBRANCH  14  15
ENDBRANCH   1  14
TORSDOF 2
