REMARK  Name = ZINC09310930
REMARK  10 active torsions:
REMARK  status: ('A' for Active; 'I' for Inactive)
REMARK    1  A    between atoms: C_1  and  C_2
REMARK    2  A    between atoms: C_2  and  O_3
REMARK    3  A    between atoms: O_3  and  C_4
REMARK    4  A    between atoms: C_6  and  C_21
REMARK    5  A    between atoms: C_9  and  O_10
REMARK    6  A    between atoms: O_10  and  C_11
REMARK    7  A    between atoms: C_11  and  C_12
REMARK    8  A    between atoms: C_15  and  N_18
REMARK    9  A    between atoms: N_28  and  C_31
REMARK   10  A    between atoms: C_34  and  C_37
REMARK                            x       y       z     vdW  Elec       q    Type
REMARK                         _______ _______ _______ _____ _____    ______ ____
ROOT
ATOM      1  C   UNL     1       0.591   2.251   0.552  0.00  0.00    +0.162 A 
ATOM      2  C   UNL     1      -0.591   1.620   0.227  0.00  0.00    +0.057 A 
ATOM      3  C   UNL     1      -1.337   2.061  -0.877  0.00  0.00    -0.020 A 
ATOM      4  C   UNL     1      -0.880   3.149  -1.636  0.00  0.00    +0.012 A 
ATOM      5  C   UNL     1       0.300   3.772  -1.302  0.00  0.00    +0.050 A 
ATOM      6  C   UNL     1       1.040   3.330  -0.212  0.00  0.00    +0.162 A 
ENDROOT
BRANCH   3   7
ATOM      7  C   UNL     1      -2.589   1.392  -1.232  0.00  0.00    +0.026 C 
ATOM      8  C   UNL     1      -2.642   0.013  -1.295  0.00  0.00    +0.102 C 
ATOM      9  C   UNL     1      -1.416  -0.809  -1.245  0.00  0.00    +0.276 C 
ATOM     10  O   UNL     1      -0.320  -0.291  -1.148  0.00  0.00    -0.268 OA
ATOM     11  N   UNL     1      -1.546  -2.150  -1.306  0.00  0.00    -0.123 NA
ATOM     12  C   UNL     1      -2.747  -2.734  -1.420  0.00  0.00    +0.340 C 
ATOM     13  O   UNL     1      -2.793  -3.947  -1.475  0.00  0.00    -0.250 OA
ATOM     14  N   UNL     1      -3.899  -2.052  -1.476  0.00  0.00    -0.188 N 
ATOM     15  C   UNL     1      -3.925  -0.704  -1.420  0.00  0.00    +0.264 C 
ATOM     16  O   UNL     1      -4.978  -0.097  -1.473  0.00  0.00    -0.269 OA
BRANCH  14  17
ATOM     17  C   UNL     1      -5.106  -2.755  -1.596  0.00  0.00    +0.046 A 
ATOM     18  C   UNL     1      -5.813  -3.122  -0.459  0.00  0.00    +0.024 A 
ATOM     19  C   UNL     1      -7.005  -3.809  -0.581  0.00  0.00    +0.005 A 
ATOM     20  C   UNL     1      -7.487  -4.144  -1.833  0.00  0.00    -0.050 A 
ATOM     21  C   UNL     1      -6.781  -3.786  -2.967  0.00  0.00    +0.005 A 
ATOM     22  C   UNL     1      -5.592  -3.092  -2.852  0.00  0.00    +0.024 A 
ATOM     23  C   UNL     1      -8.784  -4.900  -1.962  0.00  0.00    +0.044 C 
ENDBRANCH  14  17
ENDBRANCH   3   7
BRANCH   1  24
ATOM     24  O   UNL     1       1.319   1.823   1.618  0.00  0.00    -0.489 OA
BRANCH  24  26
ATOM     25  C   UNL     1       1.749   0.380   3.508  0.00  0.00    +0.048 C 
ATOM     26  C   UNL     1       0.800   0.715   2.355  0.00  0.00    +0.226 C 
ENDBRANCH  24  26
ENDBRANCH   1  24
BRANCH   6  27
ATOM     27  O   UNL     1       2.204   3.949   0.111  0.00  0.00    -0.484 OA
BRANCH  27  28
ATOM     28  C   UNL     1       2.606   5.045  -0.712  0.00  0.00    +0.264 C 
BRANCH  28  29
ATOM     29  C   UNL     1       3.911   5.603  -0.205  0.00  0.00    -0.010 A 
ATOM     30  C   UNL     1       3.910   6.616   0.736  0.00  0.00    +0.009 A 
ATOM     31  C   UNL     1       5.107   7.125   1.204  0.00  0.00    +0.033 A 
ATOM     32  C   UNL     1       6.305   6.626   0.725  0.00  0.00    +0.126 A 
ATOM     33  C   UNL     1       6.305   5.616  -0.218  0.00  0.00    +0.033 A 
ATOM     34  C   UNL     1       5.108   5.105  -0.684  0.00  0.00    +0.009 A 
BRANCH  32  35
ATOM     35  N   UNL     1       7.586   7.174   1.224  0.00  0.00    +0.056 N 
ATOM     36  O   UNL     1       8.641   6.734   0.802  0.00  0.00    -0.126 OA
ATOM     37  O   UNL     1       7.586   8.063   2.055  0.00  0.00    -0.126 OA
ENDBRANCH  32  35
ENDBRANCH  28  29
ENDBRANCH  27  28
ENDBRANCH   6  27
TORSDOF 8
