REMARK  Name = ZINC11785233
REMARK  8 active torsions:
REMARK  status: ('A' for Active; 'I' for Inactive)
REMARK    1  A    between atoms: C_1  and  O_2
REMARK    2  A    between atoms: O_2  and  C_3
REMARK    3  A    between atoms: C_7  and  C_9
REMARK    4  A    between atoms: C_9  and  C_10
REMARK    5  A    between atoms: C_10  and  C_16
REMARK    6  A    between atoms: C_16  and  C_17
REMARK    7  A    between atoms: C_17  and  C_18
REMARK    8  A    between atoms: C_25  and  C_27
REMARK                            x       y       z     vdW  Elec       q    Type
REMARK                         _______ _______ _______ _____ _____    ______ ____
ROOT
ATOM      1  C   UNL     1       3.363   0.568  -1.987  0.00  0.00    +0.098 C 
ENDROOT
BRANCH   1   2
ATOM      2  C   UNL     1       1.935   0.953  -1.700  0.00  0.00    +0.216 C 
ATOM      3  O   UNL     1       1.204   1.290  -2.607  0.00  0.00    -0.276 OA
ATOM      4  N   UNL     1       1.470   0.923  -0.435  0.00  0.00    -0.291 N 
ATOM      5  C   UNL     1       2.373   0.634   0.688  0.00  0.00    +0.108 C 
ATOM      6  C   UNL     1       2.244   1.755   1.724  0.00  0.00    +0.019 C 
ATOM      7  C   UNL     1       0.775   1.910   2.123  0.00  0.00    +0.004 C 
ATOM      8  C   UNL     1      -0.051   2.293   0.893  0.00  0.00    +0.030 C 
ATOM      9  C   UNL     1       0.051   1.178  -0.153  0.00  0.00    +0.142 C 
BRANCH   9  10
ATOM     10  C   UNL     1      -0.647   1.604  -1.419  0.00  0.00    +0.129 A 
ATOM     11  N   UNL     1      -1.659   0.921  -2.018  0.00  0.00    -0.340 N 
ATOM     12  H   UNL     1      -2.063   0.063  -1.702  0.00  0.00    +0.167 HD
ATOM     13  C   UNL     1      -2.025   1.633  -3.144  0.00  0.00    +0.066 A 
ATOM     14  C   UNL     1      -2.976   1.446  -4.138  0.00  0.00    +0.030 A 
ATOM     15  C   UNL     1      -3.094   2.365  -5.157  0.00  0.00    +0.040 A 
ATOM     16  C   UNL     1      -2.268   3.482  -5.197  0.00  0.00    +0.126 A 
ATOM     17  C   UNL     1      -1.319   3.684  -4.219  0.00  0.00    +0.068 A 
ATOM     18  C   UNL     1      -1.186   2.760  -3.179  0.00  0.00    +0.092 A 
ATOM     19  N   UNL     1      -0.373   2.682  -2.094  0.00  0.00    -0.230 NA
ATOM     20  F   UNL     1      -2.396   4.375  -6.203  0.00  0.00    -0.205 F 
ENDBRANCH   9  10
ENDBRANCH   1   2
BRANCH   1  21
ATOM     21  C   UNL     1       3.632   0.688  -3.488  0.00  0.00    +0.035 C 
BRANCH  21  22
ATOM     22  C   UNL     1       5.082   0.297  -3.780  0.00  0.00    +0.039 C 
ATOM     23  C   UNL     1       5.428   0.589  -5.256  0.00  0.00    +0.035 C 
ATOM     24  C   UNL     1       6.904   1.038  -5.152  0.00  0.00    +0.098 C 
ATOM     25  C   UNL     1       7.036   1.552  -3.735  0.00  0.00    +0.214 C 
ATOM     26  O   UNL     1       7.944   2.247  -3.329  0.00  0.00    -0.276 OA
ATOM     27  N   UNL     1       6.000   1.127  -2.991  0.00  0.00    -0.309 N 
ATOM     28  H   UNL     1       5.876   1.341  -2.053  0.00  0.00    +0.149 HD
BRANCH  22  29
ATOM     29  C   UNL     1       5.304  -1.184  -3.465  0.00  0.00    +0.064 C 
BRANCH  29  34
ATOM     30  C   UNL     1       4.288  -3.268  -6.449  0.00  0.00    +0.121 A 
ATOM     31  C   UNL     1       2.972  -3.573  -6.137  0.00  0.00    +0.048 A 
ATOM     32  C   UNL     1       2.415  -3.106  -4.963  0.00  0.00    +0.042 A 
ATOM     33  C   UNL     1       3.172  -2.337  -4.095  0.00  0.00    +0.127 A 
ATOM     34  C   UNL     1       4.484  -2.026  -4.408  0.00  0.00    -0.007 A 
ATOM     35  C   UNL     1       5.044  -2.493  -5.582  0.00  0.00    +0.052 A 
ATOM     36  F   UNL     1       2.627  -1.885  -2.944  0.00  0.00    -0.205 F 
BRANCH  30  38
ATOM     37  C   UNL     1       4.002  -4.519  -8.451  0.00  0.00    +0.277 C 
ATOM     38  O   UNL     1       4.838  -3.727  -7.605  0.00  0.00    -0.495 OA
ENDBRANCH  30  38
ENDBRANCH  29  34
ENDBRANCH  22  29
ENDBRANCH  21  22
ENDBRANCH   1  21
TORSDOF 7
