REMARK  Name = ZINC10873535
REMARK  6 active torsions:
REMARK  status: ('A' for Active; 'I' for Inactive)
REMARK    1  A    between atoms: C_6  and  C_7
REMARK    2  A    between atoms: C_9  and  C_12
REMARK    3  A    between atoms: C_12  and  S_13
REMARK    4  A    between atoms: S_13  and  C_14
REMARK    5  A    between atoms: N_18  and  C_19
REMARK    6  A    between atoms: C_19  and  C_20
REMARK                            x       y       z     vdW  Elec       q    Type
REMARK                         _______ _______ _______ _____ _____    ______ ____
ROOT
ATOM      1  C   UNL     1      -3.092  -2.334  -1.522  0.00  0.00    +0.193 A 
ATOM      2  N   UNL     1      -3.607  -2.747  -0.390  0.00  0.00    -0.121 NA
ATOM      3  N   UNL     1      -4.702  -3.569  -0.688  0.00  0.00    -0.112 NA
ATOM      4  C   UNL     1      -4.814  -3.637  -1.992  0.00  0.00    +0.220 A 
ATOM      5  N   UNL     1      -3.823  -2.876  -2.542  0.00  0.00    -0.288 N 
ATOM      6  N   UNL     1      -5.774  -4.358  -2.692  0.00  0.00    -0.300 N 
ATOM      7  C   UNL     1      -5.144  -5.415  -3.524  0.00  0.00    +0.108 C 
ATOM      8  C   UNL     1      -6.309  -6.403  -3.784  0.00  0.00    +0.020 C 
ATOM      9  C   UNL     1      -7.078  -6.391  -2.442  0.00  0.00    +0.020 C 
ATOM     10  C   UNL     1      -6.686  -5.064  -1.766  0.00  0.00    +0.108 C 
ENDROOT
BRANCH   1  11
ATOM     11  S   UNL     1      -1.696  -1.272  -1.698  0.00  0.00    -0.076 S 
BRANCH  11  12
ATOM     12  C   UNL     1      -1.198  -0.916   0.009  0.00  0.00    +0.176 C 
BRANCH  12  15
ATOM     13  C   UNL     1       1.282   1.686  -0.001  0.00  0.00    +0.202 A 
ATOM     14  N   UNL     1      -0.016   1.306   0.009  0.00  0.00    -0.191 NA
ATOM     15  C   UNL     1       0.002  -0.004   0.002  0.00  0.00    +0.238 A 
ATOM     16  O   UNL     1       1.285  -0.380  -0.012  0.00  0.00    -0.337 OA
ATOM     17  N   UNL     1       2.004   0.596  -0.014  0.00  0.00    -0.056 NA
BRANCH  13  23
ATOM     18  C   UNL     1       0.898   4.150   0.010  0.00  0.00    +0.013 A 
ATOM     19  C   UNL     1       1.376   5.445   0.016  0.00  0.00    +0.021 A 
ATOM     20  C   UNL     1       2.740   5.681   0.005  0.00  0.00    +0.041 A 
ATOM     21  C   UNL     1       3.631   4.622  -0.008  0.00  0.00    +0.021 A 
ATOM     22  C   UNL     1       3.163   3.324  -0.010  0.00  0.00    +0.013 A 
ATOM     23  C   UNL     1       1.791   3.080   0.002  0.00  0.00    +0.023 A 
ATOM     24 CL   UNL     1       3.336   7.312   0.007  0.00  0.00    -0.084 Cl
ENDBRANCH  13  23
ENDBRANCH  12  15
ENDBRANCH  11  12
ENDBRANCH   1  11
BRANCH   5  25
ATOM     25  C   UNL     1      -3.585  -2.675  -3.973  0.00  0.00    +0.158 C 
BRANCH  25  26
ATOM     26  C   UNL     1      -2.629  -3.753  -4.488  0.00  0.00    +0.138 C 
ATOM     27  C   UNL     1      -2.407  -3.592  -6.013  0.00  0.00    +0.035 C 
ATOM     28  C   UNL     1      -1.021  -4.272  -6.182  0.00  0.00    +0.031 C 
ATOM     29  C   UNL     1      -0.314  -3.910  -4.858  0.00  0.00    +0.160 C 
ATOM     30  O   UNL     1      -1.329  -3.589  -3.900  0.00  0.00    -0.375 OA
ENDBRANCH  25  26
ENDBRANCH   5  25
TORSDOF 6
