REMARK  Name = ZINC36605552
REMARK  11 active torsions:
REMARK  status: ('A' for Active; 'I' for Inactive)
REMARK    1  A    between atoms: C_1  and  C_2
REMARK    2  A    between atoms: C_5  and  S_8
REMARK    3  A    between atoms: S_8  and  C_11
REMARK    4  A    between atoms: C_11  and  N_12
REMARK    5  A    between atoms: C_13  and  C_15
REMARK    6  A    between atoms: C_15  and  C_17
REMARK    7  A    between atoms: C_15  and  N_22
REMARK    8  A    between atoms: N_22  and  C_23
REMARK    9  A    between atoms: C_29  and  C_31
REMARK   10  A    between atoms: C_31  and  C_32
REMARK   11  A    between atoms: C_37  and  C_38
REMARK                            x       y       z     vdW  Elec       q    Type
REMARK                         _______ _______ _______ _____ _____    ______ ____
ROOT
ATOM      1  C   UNL     1       2.949  -4.646   4.017  0.00  0.00    +0.233 C 
ENDROOT
BRANCH   1   2
ATOM      2  C   UNL     1       2.297  -3.631   4.920  0.00  0.00    +0.135 A 
ATOM      3  C   UNL     1       2.536  -2.307   4.916  0.00  0.00    +0.047 A 
ATOM      4  C   UNL     1       1.714  -1.740   5.917  0.00  0.00    +0.041 A 
ATOM      5  C   UNL     1       1.022  -2.751   6.472  0.00  0.00    +0.195 A 
ATOM      6  O   UNL     1       1.375  -3.893   5.860  0.00  0.00    -0.465 OA
ENDBRANCH   1   2
BRANCH   1   8
ATOM      7  N   UNL     1       1.611  -4.007   2.037  0.00  0.00    -0.294 N 
ATOM      8  C   UNL     1       2.018  -4.977   2.879  0.00  0.00    +0.243 C 
ATOM      9  O   UNL     1       1.635  -6.117   2.721  0.00  0.00    -0.273 OA
ATOM     10  H   UNL     1       1.917  -3.095   2.164  0.00  0.00    +0.150 HD
BRANCH   7  11
ATOM     11  C   UNL     1       0.706  -4.329   0.931  0.00  0.00    +0.278 C 
BRANCH  11  12
ATOM     12  S   UNL     1      -1.006  -4.008   1.437  0.00  0.00    +0.013 S 
ATOM     13  O   UNL     1      -1.252  -4.574   2.717  0.00  0.00    -0.168 OA
ATOM     14  O   UNL     1      -1.892  -4.255   0.354  0.00  0.00    -0.168 OA
BRANCH  12  19
ATOM     15  C   UNL     1      -1.277   1.956   2.314  0.00  0.00    +0.044 C 
ATOM     16  C   UNL     1      -1.209   0.466   2.095  0.00  0.00    -0.050 A 
ATOM     17  C   UNL     1      -1.487  -0.063   0.848  0.00  0.00    +0.005 A 
ATOM     18  C   UNL     1      -1.425  -1.429   0.647  0.00  0.00    +0.027 A 
ATOM     19  C   UNL     1      -1.084  -2.266   1.693  0.00  0.00    +0.090 A 
ATOM     20  C   UNL     1      -0.805  -1.738   2.939  0.00  0.00    +0.027 A 
ATOM     21  C   UNL     1      -0.863  -0.371   3.139  0.00  0.00    +0.005 A 
ENDBRANCH  12  19
ENDBRANCH  11  12
ENDBRANCH   7  11
ENDBRANCH   1   8
BRANCH   1  22
ATOM     22  N   UNL     1       3.239  -5.863   4.780  0.00  0.00    -0.252 N 
ATOM     23  C   UNL     1       4.509  -6.299   4.894  0.00  0.00    +0.225 C 
ATOM     24  O   UNL     1       5.392  -5.769   4.254  0.00  0.00    -0.275 OA
BRANCH  22  25
ATOM     25  C   UNL     1       2.198  -6.571   5.390  0.00  0.00    +0.038 A 
ATOM     26  C   UNL     1       0.916  -6.039   5.416  0.00  0.00    +0.023 A 
ATOM     27  C   UNL     1      -0.110  -6.741   6.019  0.00  0.00    +0.002 A 
ATOM     28  C   UNL     1       0.140  -7.973   6.595  0.00  0.00    +0.000 A 
ATOM     29  C   UNL     1       1.415  -8.506   6.571  0.00  0.00    +0.002 A 
ATOM     30  C   UNL     1       2.444  -7.811   5.965  0.00  0.00    +0.023 A 
ENDBRANCH  22  25
BRANCH  23  31
ATOM     31  C   UNL     1       4.832  -7.445   5.818  0.00  0.00    +0.131 C 
BRANCH  31  32
ATOM     32  C   UNL     1       6.290  -7.393   6.194  0.00  0.00    -0.036 A 
ATOM     33  C   UNL     1       7.215  -8.133   5.480  0.00  0.00    +0.004 A 
ATOM     34  C   UNL     1       8.552  -8.084   5.825  0.00  0.00    +0.000 A 
ATOM     35  C   UNL     1       8.966  -7.295   6.882  0.00  0.00    +0.000 A 
ATOM     36  C   UNL     1       8.042  -6.555   7.595  0.00  0.00    +0.003 A 
ATOM     37  C   UNL     1       6.704  -6.600   7.247  0.00  0.00    -0.047 A 
ATOM     38  C   UNL     1       5.697  -5.788   8.021  0.00  0.00    +0.044 C 
ENDBRANCH  31  32
ENDBRANCH  23  31
ENDBRANCH   1  22
TORSDOF 9
