REMARK  Name = ZINC20726651
REMARK  8 active torsions:
REMARK  status: ('A' for Active; 'I' for Inactive)
REMARK    1  A    between atoms: C_4  and  C_7
REMARK    2  A    between atoms: N_11  and  C_19
REMARK    3  A    between atoms: C_19  and  C_20
REMARK    4  A    between atoms: N_22  and  C_23
REMARK    5  A    between atoms: C_23  and  C_24
REMARK    6  A    between atoms: C_24  and  C_25
REMARK    7  A    between atoms: C_25  and  N_26
REMARK    8  A    between atoms: N_29  and  C_32
REMARK                            x       y       z     vdW  Elec       q    Type
REMARK                         _______ _______ _______ _____ _____    ______ ____
ROOT
ATOM      1  C   UNL     1      -0.215   1.857   4.856  0.00  0.00    +0.231 C 
ATOM      2  O   UNL     1       0.867   1.315   4.769  0.00  0.00    -0.274 OA
ATOM      3  N   UNL     1      -0.784   2.406   3.765  0.00  0.00    -0.314 N 
ATOM      4  H   UNL     1      -1.766   2.897   3.845  0.00  0.00    +0.149 HD
ENDROOT
BRANCH   1   5
ATOM      5  C   UNL     1      -0.923   1.915   6.186  0.00  0.00    +0.209 C 
BRANCH   5  10
ATOM      6  C   UNL     1       2.850   1.918   9.229  0.00  0.00    +0.028 C 
ATOM      7  C   UNL     1       1.610   1.455   8.938  0.00  0.00    +0.076 C 
ATOM      8  C   UNL     1       0.813   2.006   7.818  0.00  0.00    +0.258 C 
ATOM      9  O   UNL     1       0.992   3.154   7.457  0.00  0.00    -0.269 OA
ATOM     10  N   UNL     1      -0.104   1.253   7.204  0.00  0.00    -0.257 N 
ATOM     11  C   UNL     1      -0.357  -0.094   7.429  0.00  0.00    +0.051 A 
ATOM     12  C   UNL     1      -1.015  -0.821   6.439  0.00  0.00    +0.024 A 
ATOM     13  C   UNL     1      -1.284  -2.162   6.618  0.00  0.00    +0.002 A 
ATOM     14  C   UNL     1      -0.905  -2.805   7.783  0.00  0.00    +0.001 A 
ATOM     15  C   UNL     1      -0.253  -2.099   8.776  0.00  0.00    +0.017 A 
ATOM     16  C   UNL     1       0.020  -0.751   8.601  0.00  0.00    +0.034 A 
ATOM     17  S   UNL     1       0.851   0.152   9.873  0.00  0.00    -0.082 S 
BRANCH   6  21
ATOM     18  C   UNL     1       4.849   0.577  12.720  0.00  0.00    +0.000 A 
ATOM     19  C   UNL     1       5.576   0.863  11.578  0.00  0.00    +0.001 A 
ATOM     20  C   UNL     1       4.934   1.300  10.439  0.00  0.00    +0.008 A 
ATOM     21  C   UNL     1       3.543   1.453  10.440  0.00  0.00    -0.024 A 
ATOM     22  C   UNL     1       2.816   1.167  11.600  0.00  0.00    +0.008 A 
ATOM     23  C   UNL     1       3.473   0.726  12.729  0.00  0.00    +0.001 A 
ENDBRANCH   6  21
ENDBRANCH   5  10
ENDBRANCH   1   5
BRANCH   3  24
ATOM     24  C   UNL     1      -0.097   2.349   2.473  0.00  0.00    +0.102 C 
BRANCH  24  25
ATOM     25  C   UNL     1      -0.952   3.040   1.409  0.00  0.00    +0.000 C 
BRANCH  25  26
ATOM     26  C   UNL     1      -0.233   2.981   0.060  0.00  0.00    -0.077 C 
BRANCH  26  27
ATOM     27  N   UNL     1      -1.055   3.645  -0.962  0.00  0.00    +0.382 N 
ATOM     28  C   UNL     1      -2.300   2.903  -1.200  0.00  0.00    -0.060 C 
ATOM     29  C   UNL     1      -3.161   3.666  -2.209  0.00  0.00    +0.086 C 
ATOM     30  N   UNL     1      -2.408   3.840  -3.459  0.00  0.00    -0.331 N 
ATOM     31  C   UNL     1      -1.162   4.582  -3.221  0.00  0.00    +0.086 C 
ATOM     32  C   UNL     1      -0.301   3.818  -2.212  0.00  0.00    -0.060 C 
ATOM     33  H   UNL     1      -1.321   4.643  -0.584  0.00  0.00    -0.082 HD
BRANCH  30  34
ATOM     34  C   UNL     1      -3.190   4.472  -4.431  0.00  0.00    +0.065 A 
ATOM     35  C   UNL     1      -2.687   4.664  -5.711  0.00  0.00    +0.026 A 
ATOM     36  C   UNL     1      -3.463   5.285  -6.670  0.00  0.00    +0.002 A 
ATOM     37  C   UNL     1      -4.737   5.724  -6.356  0.00  0.00    +0.003 A 
ATOM     38  C   UNL     1      -5.240   5.539  -5.081  0.00  0.00    +0.040 A 
ATOM     39  C   UNL     1      -4.471   4.914  -4.117  0.00  0.00    +0.144 A 
ATOM     40  F   UNL     1      -4.962   4.734  -2.871  0.00  0.00    -0.204 F 
ENDBRANCH  30  34
ENDBRANCH  26  27
ENDBRANCH  25  26
ENDBRANCH  24  25
ENDBRANCH   3  24
TORSDOF 8
