REMARK  Name = ZINC40988390
REMARK  7 active torsions:
REMARK  status: ('A' for Active; 'I' for Inactive)
REMARK    1  A    between atoms: C_1  and  C_2
REMARK    2  A    between atoms: C_5  and  C_8
REMARK    3  A    between atoms: C_8  and  C_10
REMARK    4  A    between atoms: C_8  and  N_31
REMARK    5  A    between atoms: C_10  and  N_11
REMARK    6  A    between atoms: C_12  and  C_14
REMARK    7  A    between atoms: N_17  and  C_19
REMARK                            x       y       z     vdW  Elec       q    Type
REMARK                         _______ _______ _______ _____ _____    ______ ____
ROOT
ATOM      1  N   UNL     1       1.464  -6.237   0.270  0.00  0.00    -0.311 N 
ATOM      2  C   UNL     1       2.624  -6.896   0.463  0.00  0.00    +0.264 C 
ATOM      3  O   UNL     1       3.678  -6.291   0.443  0.00  0.00    -0.268 OA
ATOM      4  H   UNL     1       0.624  -6.721   0.286  0.00  0.00    +0.149 HD
ENDROOT
BRANCH   2   5
ATOM      5  C   UNL     1       2.615  -8.355   0.698  0.00  0.00    +0.150 A 
ATOM      6  C   UNL     1       3.733  -9.176   0.919  0.00  0.00    +0.006 A 
ATOM      7  C   UNL     1       3.246 -10.431   1.082  0.00  0.00    +0.044 A 
ATOM      8  N   UNL     1       1.910 -10.358   0.966  0.00  0.00    -0.263 N 
ATOM      9  N   UNL     1       1.552  -9.140   0.747  0.00  0.00    -0.166 NA
ATOM     10  C   UNL     1       4.109 -11.640   1.341  0.00  0.00    +0.055 C 
ATOM     11  C   UNL     1       5.556 -11.287   0.973  0.00  0.00    +0.006 C 
ATOM     12  C   UNL     1       5.950  -9.967   1.642  0.00  0.00    +0.005 C 
ATOM     13  C   UNL     1       5.190  -8.810   0.979  0.00  0.00    +0.039 C 
BRANCH   8  14
ATOM     14  C   UNL     1       0.994 -11.495   1.078  0.00  0.00    +0.130 C 
ATOM     15  C   UNL     1       0.179 -11.636  -0.218  0.00  0.00    +0.051 C 
ATOM     16  C   UNL     1      -1.000 -12.614   0.003  0.00  0.00    +0.168 C 
ATOM     17  S   UNL     1      -1.343 -12.434   1.800  0.00  0.00    -0.029 S 
ATOM     18  O   UNL     1      -2.598 -11.789   1.969  0.00  0.00    -0.174 OA
ATOM     19  O   UNL     1      -1.104 -13.678   2.444  0.00  0.00    -0.174 OA
ATOM     20  C   UNL     1       0.000 -11.256   2.251  0.00  0.00    +0.192 C 
ENDBRANCH   8  14
ENDBRANCH   2   5
BRANCH   1  21
ATOM     21  C   UNL     1       1.474  -4.791   0.037  0.00  0.00    +0.094 C 
BRANCH  21  22
ATOM     22  C   UNL     1       0.054  -4.316  -0.280  0.00  0.00    -0.020 C 
BRANCH  22  27
ATOM     23  C   UNL     1      -1.755  -6.780  -5.184  0.00  0.00    +0.044 C 
ATOM     24  C   UNL     1      -1.283  -6.138  -3.905  0.00  0.00    -0.050 A 
ATOM     25  C   UNL     1      -1.687  -6.648  -2.685  0.00  0.00    +0.003 A 
ATOM     26  C   UNL     1      -1.254  -6.058  -1.512  0.00  0.00    +0.002 A 
ATOM     27  C   UNL     1      -0.417  -4.960  -1.559  0.00  0.00    -0.059 A 
ATOM     28  C   UNL     1      -0.012  -4.450  -2.778  0.00  0.00    +0.002 A 
ATOM     29  C   UNL     1      -0.441  -5.042  -3.951  0.00  0.00    +0.003 A 
ENDBRANCH  22  27
BRANCH  22  30
ATOM     30  N   UNL     1       0.050  -2.856  -0.435  0.00  0.00    +0.385 N 
ATOM     31  C   UNL     1       0.463  -2.229   0.826  0.00  0.00    -0.078 C 
ATOM     32  C   UNL     1       0.538  -0.712   0.646  0.00  0.00    -0.019 C 
ATOM     33  C   UNL     1      -0.840  -0.183   0.239  0.00  0.00    -0.004 C 
ATOM     34  C   UNL     1      -1.294  -0.897  -1.038  0.00  0.00    -0.019 C 
ATOM     35  C   UNL     1      -1.301  -2.408  -0.795  0.00  0.00    -0.078 C 
ATOM     36  H   UNL     1       0.695  -2.594  -1.166  0.00  0.00    -0.081 HD
ENDBRANCH  22  30
ENDBRANCH  21  22
ENDBRANCH   1  21
TORSDOF 6
