REMARK  Name = ZINC38828909
REMARK  4 active torsions:
REMARK  status: ('A' for Active; 'I' for Inactive)
REMARK    1  A    between atoms: C_1  and  C_2
REMARK    2  A    between atoms: C_2  and  C_3
REMARK    3  A    between atoms: N_10  and  C_24
REMARK    4  A    between atoms: C_14  and  C_17
REMARK                            x       y       z     vdW  Elec       q    Type
REMARK                         _______ _______ _______ _____ _____    ______ ____
ROOT
ATOM      1  C   UNL     1      -1.412  -0.526   0.013  0.00  0.00    +0.153 A 
ATOM      2  N   UNL     1      -2.120  -0.791   1.103  0.00  0.00    -0.194 NA
ATOM      3  C   UNL     1      -3.327  -1.235   0.759  0.00  0.00    +0.254 A 
ATOM      4  N   UNL     1      -4.368  -1.621   1.506  0.00  0.00    -0.210 NA
ATOM      5  C   UNL     1      -5.490  -2.033   0.942  0.00  0.00    +0.083 A 
ATOM      6  C   UNL     1      -6.656  -2.464   1.711  0.00  0.00    +0.046 A 
ATOM      7  C   UNL     1      -7.759  -2.868   1.058  0.00  0.00    +0.095 A 
ATOM      8  N   UNL     1      -7.855  -2.900  -0.301  0.00  0.00    -0.272 N 
ATOM      9  C   UNL     1      -6.848  -2.526  -1.117  0.00  0.00    +0.266 A 
ATOM     10  O   UNL     1      -6.981  -2.572  -2.326  0.00  0.00    -0.267 OA
ATOM     11  C   UNL     1      -5.592  -2.066  -0.523  0.00  0.00    +0.091 A 
ATOM     12  C   UNL     1      -4.497  -1.659  -1.277  0.00  0.00    +0.091 A 
ATOM     13  N   UNL     1      -3.375  -1.248  -0.608  0.00  0.00    -0.195 N 
ATOM     14  N   UNL     1      -2.130  -0.781  -1.053  0.00  0.00    -0.148 NA
ENDROOT
BRANCH  12  15
ATOM     15  C   UNL     1      -4.541  -1.671  -2.751  0.00  0.00    +0.001 A 
ATOM     16  C   UNL     1      -4.668  -2.881  -3.439  0.00  0.00    +0.011 A 
ATOM     17  C   UNL     1      -4.708  -2.885  -4.817  0.00  0.00    +0.020 A 
ATOM     18  C   UNL     1      -4.624  -1.694  -5.519  0.00  0.00    +0.041 A 
ATOM     19  C   UNL     1      -4.498  -0.491  -4.843  0.00  0.00    +0.020 A 
ATOM     20  C   UNL     1      -4.462  -0.472  -3.465  0.00  0.00    +0.011 A 
ATOM     21 CL   UNL     1      -4.675  -1.708  -7.255  0.00  0.00    -0.084 Cl
ENDBRANCH  12  15
BRANCH   8  22
ATOM     22  C   UNL     1      -9.108  -3.360  -0.904  0.00  0.00    +0.352 C 
ATOM     23  N   UNL     1     -10.177  -3.430   0.110  0.00  0.00    -0.222 NA
ATOM     24  C   UNL     1     -10.528  -4.674   0.147  0.00  0.00    +0.243 C 
ATOM     25  N   UNL     1      -9.806  -5.419  -0.731  0.00  0.00    -0.139 NA
ATOM     26  N   UNL     1      -8.979  -4.751  -1.369  0.00  0.00    -0.136 NA
ENDBRANCH   8  22
BRANCH   1  28
ATOM     27  C   UNL     1      -0.019   1.526   0.010  0.00  0.00    +0.012 C 
ATOM     28  C   UNL     1       0.002  -0.004   0.002  0.00  0.00    +0.075 C 
ENDBRANCH   1  28
TORSDOF 3
