REMARK  Name = ZINC10406051
REMARK  7 active torsions:
REMARK  status: ('A' for Active; 'I' for Inactive)
REMARK    1  A    between atoms: C_1  and  C_2
REMARK    2  A    between atoms: C_2  and  C_3
REMARK    3  A    between atoms: C_2  and  C_4
REMARK    4  A    between atoms: C_2  and  C_5
REMARK    5  A    between atoms: C_12  and  C_14
REMARK    6  A    between atoms: N_16  and  N_17
REMARK    7  A    between atoms: C_18  and  C_20
REMARK                            x       y       z     vdW  Elec       q    Type
REMARK                         _______ _______ _______ _____ _____    ______ ____
ROOT
ATOM      1  C   UNL     1      -2.129   1.080   1.679  0.00  0.00    +0.267 C 
ATOM      2  O   UNL     1      -2.081  -0.122   1.861  0.00  0.00    -0.268 OA
ATOM      3  N   UNL     1      -1.042   1.737   1.227  0.00  0.00    -0.230 N 
ATOM      4  H   UNL     1      -1.081   2.696   1.082  0.00  0.00    +0.173 HD
ENDROOT
BRANCH   1  11
ATOM      5  C   UNL     1      -8.000   2.925   2.738  0.00  0.00    -0.001 C 
ATOM      6  C   UNL     1      -7.494   4.277   3.248  0.00  0.00    +0.009 C 
ATOM      7  C   UNL     1      -6.290   4.707   2.397  0.00  0.00    +0.043 C 
ATOM      8  C   UNL     1      -5.350   3.546   2.290  0.00  0.00    -0.006 A 
ATOM      9  C   UNL     1      -5.616   2.240   2.589  0.00  0.00    -0.036 A 
ATOM     10  C   UNL     1      -4.583   1.335   2.406  0.00  0.00    +0.024 A 
ATOM     11  C   UNL     1      -3.369   1.814   1.950  0.00  0.00    +0.076 A 
ATOM     12  S   UNL     1      -3.708   3.557   1.770  0.00  0.00    -0.088 S 
ATOM     13  C   UNL     1      -6.997   1.826   3.092  0.00  0.00    +0.040 C 
BRANCH   5  15
ATOM     14  C   UNL     1      -9.181   2.541   4.906  0.00  0.00    +0.011 C 
ATOM     15  C   UNL     1      -9.349   2.609   3.387  0.00  0.00    -0.035 C 
ATOM     16  C   UNL     1     -10.354   3.708   3.034  0.00  0.00    +0.011 C 
ATOM     17  C   UNL     1      -9.861   1.264   2.869  0.00  0.00    +0.011 C 
ENDBRANCH   5  15
ENDBRANCH   1  11
BRANCH   3  18
ATOM     18  N   UNL     1       0.142   1.036   0.968  0.00  0.00    -0.229 N 
ATOM     19  C   UNL     1       1.228   1.692   0.511  0.00  0.00    +0.282 C 
ATOM     20  O   UNL     1       1.180   2.893   0.329  0.00  0.00    -0.267 OA
ATOM     21  H   UNL     1       0.181   0.078   1.113  0.00  0.00    +0.173 HD
BRANCH  19  22
ATOM     22  C   UNL     1       2.475   0.952   0.233  0.00  0.00    +0.166 A 
ATOM     23  C   UNL     1       3.642   1.646  -0.130  0.00  0.00    +0.147 A 
ATOM     24  N   UNL     1       4.758   0.971  -0.378  0.00  0.00    -0.237 NA
ATOM     25  C   UNL     1       4.767  -0.346  -0.284  0.00  0.00    +0.132 A 
ATOM     26  C   UNL     1       3.614  -1.031   0.073  0.00  0.00    +0.131 A 
ATOM     27  N   UNL     1       2.501  -0.374   0.328  0.00  0.00    -0.245 NA
ATOM     28  N   UNL     1       3.628   3.025  -0.227  0.00  0.00    -0.341 N 
ATOM     29  H   UNL     1       2.961   3.539   0.255  0.00  0.00    +0.144 HD
ATOM     30  H   UNL     1       4.285   3.479  -0.778  0.00  0.00    +0.144 HD
ENDBRANCH  19  22
ENDBRANCH   3  18
TORSDOF 4
