REMARK  Name = ZINC36643631
REMARK  16 active torsions:
REMARK  status: ('A' for Active; 'I' for Inactive)
REMARK    1  A    between atoms: C_1  and  C_2
REMARK    2  A    between atoms: C_2  and  C_3
REMARK    3  A    between atoms: C_3  and  C_4
REMARK    4  A    between atoms: C_4  and  N_5
REMARK    5  A    between atoms: N_5  and  C_6
REMARK    6  A    between atoms: N_5  and  S_7
REMARK    7  A    between atoms: S_7  and  C_10
REMARK    8  A    between atoms: C_13  and  C_16
REMARK    9  A    between atoms: N_18  and  C_19
REMARK   10  A    between atoms: C_19  and  C_20
REMARK   11  A    between atoms: C_20  and  C_21
REMARK   12  A    between atoms: C_21  and  N_22
REMARK   13  A    between atoms: N_22  and  C_23
REMARK   14  A    between atoms: N_22  and  C_24
REMARK   15  A    between atoms: C_29  and  O_34
REMARK   16  A    between atoms: O_34  and  C_35
REMARK                            x       y       z     vdW  Elec       q    Type
REMARK                         _______ _______ _______ _____ _____    ______ ____
ROOT
ATOM      1  C   UNL     1       0.138   1.775  -6.868  0.00  0.00    +0.252 C 
ATOM      2  O   UNL     1      -0.928   2.312  -6.639  0.00  0.00    -0.270 OA
ATOM      3  N   UNL     1       0.927   2.238  -7.857  0.00  0.00    -0.246 N 
ATOM      4  C   UNL     1       0.583   3.397  -8.532  0.00  0.00    +0.168 A 
ATOM      5  N   UNL     1      -0.457   4.177  -8.351  0.00  0.00    -0.224 NA
ATOM      6  C   UNL     1      -0.668   5.287  -9.091  0.00  0.00    +0.084 A 
ATOM      7  C   UNL     1      -1.740   6.206  -8.998  0.00  0.00    +0.074 A 
ATOM      8  C   UNL     1      -1.806   7.294  -9.835  0.00  0.00    +0.122 A 
ATOM      9  C   UNL     1      -0.827   7.528 -10.797  0.00  0.00    +0.047 A 
ATOM     10  C   UNL     1       0.232   6.648 -10.912  0.00  0.00    +0.021 A 
ATOM     11  C   UNL     1       0.305   5.560 -10.079  0.00  0.00    +0.041 A 
ATOM     12  S   UNL     1       1.446   4.215  -9.867  0.00  0.00    -0.052 S 
ENDROOT
BRANCH   1  16
ATOM     13  C   UNL     1       1.375  -1.561  -4.548  0.00  0.00    +0.106 A 
ATOM     14  C   UNL     1       0.850  -0.444  -3.923  0.00  0.00    +0.029 A 
ATOM     15  C   UNL     1       0.446   0.643  -4.670  0.00  0.00    +0.015 A 
ATOM     16  C   UNL     1       0.569   0.614  -6.061  0.00  0.00    +0.037 A 
ATOM     17  C   UNL     1       1.100  -0.516  -6.685  0.00  0.00    +0.015 A 
ATOM     18  C   UNL     1       1.505  -1.594  -5.926  0.00  0.00    +0.029 A 
BRANCH  13  19
ATOM     19  S   UNL     1       1.888  -2.945  -3.586  0.00  0.00    +0.061 S 
ATOM     20  O   UNL     1       1.843  -4.076  -4.446  0.00  0.00    -0.153 OA
ATOM     21  O   UNL     1       1.159  -2.885  -2.368  0.00  0.00    -0.153 OA
BRANCH  19  22
ATOM     22  N   UNL     1       3.480  -2.709  -3.197  0.00  0.00    -0.180 NA
ATOM     23  C   UNL     1       4.533  -3.210  -4.084  0.00  0.00    +0.131 C 
BRANCH  22  24
ATOM     24  C   UNL     1       3.835  -1.997  -1.967  0.00  0.00    +0.109 C 
BRANCH  24  25
ATOM     25  C   UNL     1       4.071  -0.519  -2.282  0.00  0.00    +0.017 C 
BRANCH  25  27
ATOM     26  C   UNL     1       4.678   1.702  -1.312  0.00  0.00    +0.004 C 
ATOM     27  C   UNL     1       4.442   0.224  -0.997  0.00  0.00    -0.002 C 
ENDBRANCH  25  27
ENDBRANCH  24  25
ENDBRANCH  22  24
ENDBRANCH  19  22
ENDBRANCH  13  19
ENDBRANCH   1  16
BRANCH   8  28
ATOM     28  O   UNL     1      -2.849   8.159  -9.722  0.00  0.00    -0.495 OA
ATOM     29  C   UNL     1      -2.868   9.273 -10.617  0.00  0.00    +0.277 C 
ENDBRANCH   8  28
BRANCH   3  30
ATOM     30  C   UNL     1       2.149   1.515  -8.219  0.00  0.00    +0.114 C 
BRANCH  30  31
ATOM     31  C   UNL     1       1.877   0.630  -9.436  0.00  0.00    +0.001 C 
BRANCH  31  32
ATOM     32  C   UNL     1       3.111  -0.225  -9.731  0.00  0.00    -0.078 C 
BRANCH  32  33
ATOM     33  N   UNL     1       2.849  -1.075 -10.901  0.00  0.00    +0.376 N 
ATOM     34  C   UNL     1       4.072  -1.808 -11.257  0.00  0.00    -0.097 C 
ATOM     35  C   UNL     1       1.781  -2.032 -10.582  0.00  0.00    -0.097 C 
ATOM     36  H   UNL     1       2.564  -0.499 -11.678  0.00  0.00    -0.083 HD
ENDBRANCH  32  33
ENDBRANCH  31  32
ENDBRANCH  30  31
ENDBRANCH   3  30
TORSDOF 11
