REMARK  Name = ZINC08384156
REMARK  25 active torsions:
REMARK  status: ('A' for Active; 'I' for Inactive)
REMARK    1  A    between atoms: C_1  and  C_2
REMARK    2  A    between atoms: C_2  and  C_3
REMARK    3  A    between atoms: C_2  and  N_4
REMARK    4  A    between atoms: C_6  and  C_13
REMARK    5  A    between atoms: C_6  and  C_19
REMARK    6  A    between atoms: N_9  and  C_10
REMARK    7  A    between atoms: C_10  and  C_11
REMARK    8  A    between atoms: C_10  and  C_12
REMARK    9  A    between atoms: C_13  and  C_15
REMARK   10  A    between atoms: C_15  and  C_16
REMARK   11  A    between atoms: C_15  and  C_17
REMARK   12  A    between atoms: C_15  and  C_18
REMARK   13  A    between atoms: C_19  and  C_36
REMARK   14  A    between atoms: C_21  and  C_32
REMARK   15  A    between atoms: C_22  and  C_26
REMARK   16  A    between atoms: C_26  and  C_28
REMARK   17  A    between atoms: C_28  and  C_29
REMARK   18  A    between atoms: C_28  and  C_30
REMARK   19  A    between atoms: C_28  and  C_31
REMARK   20  A    between atoms: C_32  and  C_33
REMARK   21  A    between atoms: C_32  and  C_34
REMARK   22  A    between atoms: C_32  and  C_35
REMARK   23  A    between atoms: C_36  and  C_37
REMARK   24  A    between atoms: C_36  and  C_38
REMARK   25  A    between atoms: C_36  and  C_39
REMARK                            x       y       z     vdW  Elec       q    Type
REMARK                         _______ _______ _______ _____ _____    ______ ____
ROOT
ATOM      1  C   UNL     1      -1.739   2.661   3.041  0.00  0.00    +0.288 C 
ATOM      2  O   UNL     1      -1.279   2.769   1.667  0.00  0.00    -0.452 OA
ATOM      3  C   UNL     1      -0.377   1.875   1.238  0.00  0.00    +0.125 C 
ATOM      4  C   UNL     1       0.403   1.177   2.140  0.00  0.00    +0.140 C 
ATOM      5  C   UNL     1       0.205   1.429   3.584  0.00  0.00    +0.349 C 
ATOM      6  O   UNL     1       0.716   0.725   4.432  0.00  0.00    -0.245 OA
ATOM      7  O   UNL     1      -0.580   2.490   3.912  0.00  0.00    -0.416 OA
ENDROOT
BRANCH   1  10
ATOM      8  N   UNL     1      -3.329   1.393   5.664  0.00  0.00    -0.268 NA
ATOM      9  C   UNL     1      -2.808   0.927   4.578  0.00  0.00    +0.129 C 
ATOM     10  C   UNL     1      -2.666   1.452   3.178  0.00  0.00    +0.237 C 
ATOM     11  C   UNL     1      -1.993   0.126   2.973  0.00  0.00    +0.249 C 
ATOM     12  O   UNL     1      -1.482  -0.412   2.014  0.00  0.00    -0.273 OA
ATOM     13  N   UNL     1      -2.170  -0.239   4.250  0.00  0.00    -0.254 N 
BRANCH   8  15
ATOM     14  C   UNL     1      -2.190   0.855   7.761  0.00  0.00    +0.032 C 
ATOM     15  C   UNL     1      -3.393   0.555   6.864  0.00  0.00    +0.101 C 
ATOM     16  C   UNL     1      -4.685   0.854   7.626  0.00  0.00    +0.032 C 
ENDBRANCH   8  15
BRANCH  13  17
ATOM     17  C   UNL     1      -1.817  -1.440   5.010  0.00  0.00    +0.077 C 
ATOM     18  C   UNL     1      -0.294  -1.566   5.088  0.00  0.00    +0.028 C 
ATOM     19  C   UNL     1      -2.396  -2.673   4.313  0.00  0.00    +0.028 C 
ENDBRANCH  13  17
BRANCH  10  20
ATOM     20  C   UNL     1      -3.971   1.610   2.441  0.00  0.00    +0.168 C 
ATOM     21  O   UNL     1      -4.011   2.241   1.412  0.00  0.00    -0.295 OA
BRANCH  20  22
ATOM     22  C   UNL     1      -5.226   0.980   2.987  0.00  0.00    +0.022 C 
ATOM     23  C   UNL     1      -6.333   1.051   1.933  0.00  0.00    +0.018 C 
ATOM     24  C   UNL     1      -4.951  -0.484   3.339  0.00  0.00    +0.018 C 
ATOM     25  C   UNL     1      -5.669   1.732   4.244  0.00  0.00    +0.018 C 
ENDBRANCH  20  22
ENDBRANCH  10  20
ENDBRANCH   1  10
BRANCH   3  26
ATOM     26  C   UNL     1      -0.211   1.631  -0.239  0.00  0.00    +0.021 C 
ATOM     27  C   UNL     1      -0.912   0.326  -0.622  0.00  0.00    +0.019 C 
ATOM     28  C   UNL     1      -0.831   2.791  -1.021  0.00  0.00    +0.019 C 
ATOM     29  C   UNL     1       1.278   1.527  -0.576  0.00  0.00    +0.019 C 
ENDBRANCH   3  26
BRANCH   1  30
ATOM     30  C   UNL     1      -2.494   3.934   3.430  0.00  0.00    +0.041 C 
ATOM     31  C   UNL     1      -3.069   3.775   4.839  0.00  0.00    +0.018 C 
ATOM     32  C   UNL     1      -1.534   5.125   3.403  0.00  0.00    +0.018 C 
ATOM     33  C   UNL     1      -3.633   4.174   2.438  0.00  0.00    +0.018 C 
ENDBRANCH   1  30
BRANCH   4  34
ATOM     34  C   UNL     1       1.400   0.213   1.679  0.00  0.00    +0.179 C 
ATOM     35  O   UNL     1       1.052  -0.768   1.055  0.00  0.00    -0.291 OA
BRANCH  34  36
ATOM     36  C   UNL     1       2.860   0.437   1.977  0.00  0.00    +0.026 C 
ATOM     37  C   UNL     1       3.674  -0.752   1.463  0.00  0.00    +0.019 C 
ATOM     38  C   UNL     1       3.332   1.716   1.283  0.00  0.00    +0.019 C 
ATOM     39  C   UNL     1       3.056   0.575   3.488  0.00  0.00    +0.019 C 
ENDBRANCH  34  36
ENDBRANCH   4  34
TORSDOF 9
