REMARK  Name = ZINC01829399
REMARK  9 active torsions:
REMARK  status: ('A' for Active; 'I' for Inactive)
REMARK    1  A    between atoms: C_1  and  C_2
REMARK    2  A    between atoms: C_2  and  N_3
REMARK    3  A    between atoms: N_3  and  C_4
REMARK    4  A    between atoms: N_3  and  C_6
REMARK    5  A    between atoms: C_4  and  C_5
REMARK    6  A    between atoms: C_9  and  C_13
REMARK    7  A    between atoms: C_10  and  O_12
REMARK    8  A    between atoms: N_14  and  N_15
REMARK    9  A    between atoms: C_20  and  N_65
REMARK                            x       y       z     vdW  Elec       q    Type
REMARK                         _______ _______ _______ _____ _____    ______ ____
ROOT
ATOM      1  N   UNL     1      -1.718   6.218   3.636  0.00  0.00    -0.259 N 
ATOM      2  C   UNL     1      -2.325   6.729   2.397  0.00  0.00    +0.107 C 
ATOM      3  C   UNL     1      -1.785   5.914   1.218  0.00  0.00    -0.057 C 
ATOM      4  C   UNL     1       0.204   5.291   2.458  0.00  0.00    -0.057 C 
ATOM      5  C   UNL     1      -0.255   6.081   3.688  0.00  0.00    +0.107 C 
ATOM      6  N   UNL     1      -0.306   5.963   1.244  0.00  0.00    +0.389 N 
ATOM      7  H   UNL     1      -0.007   6.946   1.256  0.00  0.00    -0.080 HD
ENDROOT
BRANCH   6   8
ATOM      8  C   UNL     1       0.241   5.310   0.037  0.00  0.00    -0.005 C 
ATOM      9  C   UNL     1      -0.039   3.827   0.042  0.00  0.00    -0.049 A 
ATOM     10  C   UNL     1      -1.215   3.108   0.052  0.00  0.00    +0.003 A 
ATOM     11  C   UNL     1      -1.181   1.724   0.050  0.00  0.00    +0.000 A 
ATOM     12  C   UNL     1       0.033   1.061   0.048  0.00  0.00    +0.001 A 
ATOM     13  C   UNL     1       1.215   1.773   0.037  0.00  0.00    +0.009 A 
ATOM     14  C   UNL     1       1.187   3.169   0.035  0.00  0.00    -0.016 A 
ATOM     15  C   UNL     1       2.285   4.168   0.024  0.00  0.00    -0.016 A 
ATOM     16  C   UNL     1       1.744   5.450   0.025  0.00  0.00    -0.049 A 
ATOM     17  C   UNL     1       2.570   6.554   0.017  0.00  0.00    +0.003 A 
ATOM     18  C   UNL     1       3.944   6.390   0.006  0.00  0.00    +0.000 A 
ATOM     19  C   UNL     1       4.491   5.120   0.005  0.00  0.00    +0.001 A 
ATOM     20  C   UNL     1       3.672   4.010   0.015  0.00  0.00    +0.009 A 
ENDBRANCH   6   8
BRANCH   1  22
ATOM     21  C   UNL     1      -3.790   6.102   4.712  0.00  0.00    +0.141 C 
ATOM     22  N   UNL     1      -2.513   5.873   4.736  0.00  0.00    -0.192 NA
BRANCH  21  26
ATOM     23  C   UNL     1      -6.151   5.343   8.162  0.00  0.00    +0.033 A 
ATOM     24  C   UNL     1      -6.746   5.837   7.006  0.00  0.00    +0.024 A 
ATOM     25  C   UNL     1      -5.984   6.084   5.886  0.00  0.00    +0.015 A 
ATOM     26  C   UNL     1      -4.609   5.838   5.909  0.00  0.00    +0.036 A 
ATOM     27  C   UNL     1      -4.011   5.335   7.073  0.00  0.00    +0.127 A 
ATOM     28  C   UNL     1      -4.785   5.095   8.194  0.00  0.00    +0.069 A 
BRANCH  27  29
ATOM     29  O   UNL     1      -2.676   5.088   7.101  0.00  0.00    -0.506 OA
ATOM     30  H   UNL     1      -2.143   5.842   7.391  0.00  0.00    +0.292 HD
ENDBRANCH  27  29
BRANCH  23  31
ATOM     31  N   UNL     1      -6.930   5.094   9.293  0.00  0.00    -0.330 N 
BRANCH  31  33
ATOM     32  C   UNL     1      -9.106   4.095   8.794  0.00  0.00    +0.024 C 
ATOM     33  C   UNL     1      -8.371   5.353   9.262  0.00  0.00    +0.102 C 
ENDBRANCH  31  33
BRANCH  31  34
ATOM     34  C   UNL     1      -6.306   4.573  10.512  0.00  0.00    +0.102 C 
ATOM     35  C   UNL     1      -5.856   5.740  11.393  0.00  0.00    +0.024 C 
ENDBRANCH  31  34
ENDBRANCH  23  31
ENDBRANCH  21  26
ENDBRANCH   1  22
TORSDOF 7
