REMARK  Name = ZINC50321155
REMARK  7 active torsions:
REMARK  status: ('A' for Active; 'I' for Inactive)
REMARK    1  A    between atoms: C_1  and  C_2
REMARK    2  A    between atoms: C_6  and  C_22
REMARK    3  A    between atoms: C_10  and  C_12
REMARK    4  A    between atoms: C_13  and  N_21
REMARK    5  A    between atoms: C_14  and  C_18
REMARK    6  A    between atoms: C_18  and  C_19
REMARK    7  A    between atoms: C_18  and  C_20
REMARK                            x       y       z     vdW  Elec       q    Type
REMARK                         _______ _______ _______ _____ _____    ______ ____
ROOT
ATOM      1  C   UNL     1       0.031   1.522  -0.023  0.00  0.00    +0.028 C 
ATOM      2  C   UNL     1       0.007  -0.008  -0.000  0.00  0.00    +0.073 C 
ATOM      3  C   UNL     1       0.612  -0.551  -1.299  0.00  0.00    +0.023 C 
ATOM      4  C   UNL     1       0.713  -2.075  -1.211  0.00  0.00    +0.016 C 
ATOM      5  C   UNL     1       1.632  -2.462  -0.051  0.00  0.00    +0.092 C 
ATOM      6  C   UNL     1       1.038  -1.941   1.262  0.00  0.00    +0.121 C 
ATOM      7  N   UNL     1       0.801  -0.496   1.135  0.00  0.00    -0.293 N 
ATOM      8  C   UNL     1       1.304   0.365   2.042  0.00  0.00    +0.269 C 
ATOM      9  O   UNL     1       1.009   1.544   1.990  0.00  0.00    -0.268 OA
ENDROOT
BRANCH   8  10
ATOM     10  C   UNL     1       2.212  -0.122   3.097  0.00  0.00    +0.168 A 
ATOM     11  C   UNL     1       2.717   0.630   4.188  0.00  0.00    +0.078 A 
ATOM     12  C   UNL     1       3.505  -0.230   4.887  0.00  0.00    +0.060 A 
ATOM     13  N   UNL     1       3.464  -1.424   4.239  0.00  0.00    -0.279 N 
ATOM     14  H   UNL     1       3.936  -2.224   4.518  0.00  0.00    +0.189 HD
ATOM     15  N   UNL     1       2.704  -1.342   3.206  0.00  0.00    -0.167 NA
BRANCH  12  16
ATOM     16  C   UNL     1       4.278   0.081   6.142  0.00  0.00    +0.033 C 
ATOM     17  C   UNL     1       3.802  -0.832   7.274  0.00  0.00    +0.014 C 
ATOM     18  C   UNL     1       5.770  -0.150   5.893  0.00  0.00    +0.014 C 
ENDBRANCH  12  16
BRANCH  11  19
ATOM     19  N   UNL     1       2.458   1.976   4.485  0.00  0.00    -0.355 N 
ATOM     20  H   UNL     1       1.875   2.496   3.910  0.00  0.00    +0.142 HD
ATOM     21  H   UNL     1       2.863   2.388   5.264  0.00  0.00    +0.142 HD
ENDBRANCH  11  19
ENDBRANCH   8  10
BRANCH   5  22
ATOM     22  C   UNL     1       1.757  -3.962   0.014  0.00  0.00    +0.215 C 
ATOM     23  O   UNL     1       1.169  -4.655  -0.789  0.00  0.00    -0.276 OA
ATOM     24  N   UNL     1       2.523  -4.535   0.964  0.00  0.00    -0.329 N 
ATOM     25  H   UNL     1       2.993  -3.981   1.606  0.00  0.00    +0.145 HD
ATOM     26  H   UNL     1       2.603  -5.501   1.005  0.00  0.00    +0.145 HD
ENDBRANCH   5  22
TORSDOF 4
