REMARK  Name = ZINC34694338
REMARK  6 active torsions:
REMARK  status: ('A' for Active; 'I' for Inactive)
REMARK    1  A    between atoms: C_1  and  C_2
REMARK    2  A    between atoms: C_7  and  N_8
REMARK    3  A    between atoms: N_13  and  C_16
REMARK    4  A    between atoms: N_21  and  C_24
REMARK    5  A    between atoms: C_24  and  C_25
REMARK    6  A    between atoms: C_30  and  C_31
REMARK                            x       y       z     vdW  Elec       q    Type
REMARK                         _______ _______ _______ _____ _____    ______ ____
ROOT
ATOM      1  N   UNL     1       0.025  -0.014   2.418  0.00  0.00    -0.244 N 
ATOM      2  C   UNL     1      -1.175   0.306   3.034  0.00  0.00    +0.173 A 
ATOM      3  C   UNL     1      -1.146   0.992   4.242  0.00  0.00    +0.152 A 
ATOM      4  C   UNL     1       0.101   1.342   4.805  0.00  0.00    +0.283 A 
ATOM      5  O   UNL     1       0.152   1.943   5.863  0.00  0.00    -0.265 OA
ATOM      6  N   UNL     1       1.234   1.002   4.157  0.00  0.00    -0.256 N 
ATOM      7  C   UNL     1       1.192   0.334   2.992  0.00  0.00    +0.338 A 
ATOM      8  O   UNL     1       2.235   0.040   2.439  0.00  0.00    -0.246 OA
ATOM      9  N   UNL     1      -2.463   1.173   4.615  0.00  0.00    -0.320 N 
ATOM     10  C   UNL     1      -3.224   0.611   3.656  0.00  0.00    +0.202 A 
ATOM     11  N   UNL     1      -2.458   0.101   2.726  0.00  0.00    -0.217 NA
ENDROOT
BRANCH   1  18
ATOM     12  C   UNL     1      -0.018   1.503   0.010  0.00  0.00    +0.046 C 
ATOM     13  C   UNL     1       0.002  -0.004   0.002  0.00  0.00    -0.026 A 
ATOM     14  C   UNL     1       0.006  -0.689  -1.198  0.00  0.00    +0.005 A 
ATOM     15  C   UNL     1       0.025  -2.071  -1.206  0.00  0.00    +0.000 A 
ATOM     16  C   UNL     1       0.040  -2.773  -0.014  0.00  0.00    +0.002 A 
ATOM     17  C   UNL     1       0.036  -2.094   1.188  0.00  0.00    +0.026 A 
ATOM     18  C   UNL     1       0.023  -0.705   1.200  0.00  0.00    +0.056 A 
ENDBRANCH   1  18
BRANCH   6  19
ATOM     19  C   UNL     1       2.531   1.362   4.736  0.00  0.00    +0.095 C 
ATOM     20  C   UNL     1       3.338   2.214   3.735  0.00  0.00    +0.025 C 
ATOM     21  C   UNL     1       4.801   1.743   3.928  0.00  0.00    +0.002 C 
ATOM     22  C   UNL     1       4.643   0.219   4.153  0.00  0.00    +0.002 C 
ATOM     23  C   UNL     1       3.361   0.094   5.002  0.00  0.00    +0.025 C 
ENDBRANCH   6  19
BRANCH   9  24
ATOM     24  C   UNL     1      -2.941   1.847   5.825  0.00  0.00    +0.160 C 
BRANCH  24  25
ATOM     25  C   UNL     1      -3.017   3.331   5.576  0.00  0.00    -0.010 A 
ATOM     26  C   UNL     1      -1.962   4.147   5.930  0.00  0.00    +0.006 A 
ATOM     27  C   UNL     1      -2.030   5.510   5.702  0.00  0.00    +0.000 A 
ATOM     28  C   UNL     1      -3.155   6.065   5.118  0.00  0.00    +0.001 A 
ATOM     29  C   UNL     1      -4.217   5.261   4.760  0.00  0.00    +0.019 A 
ATOM     30  C   UNL     1      -4.153   3.884   4.981  0.00  0.00    +0.057 A 
BRANCH  30  31
ATOM     31  C   UNL     1      -5.249   3.043   4.605  0.00  0.00    +0.099 C 
ATOM     32  N   UNL     1      -6.119   2.376   4.307  0.00  0.00    -0.191 NA
ENDBRANCH  30  31
ENDBRANCH  24  25
ENDBRANCH   9  24
TORSDOF 5
