REMARK  Name = ZINC32117112
REMARK  10 active torsions:
REMARK  status: ('A' for Active; 'I' for Inactive)
REMARK    1  A    between atoms: C_1  and  C_2
REMARK    2  A    between atoms: C_2  and  C_3
REMARK    3  A    between atoms: C_3  and  C_4
REMARK    4  A    between atoms: C_4  and  C_6
REMARK    5  A    between atoms: C_4  and  O_38
REMARK    6  A    between atoms: C_21  and  C_32
REMARK    7  A    between atoms: C_32  and  C_33
REMARK    8  A    between atoms: C_33  and  C_34
REMARK    9  A    between atoms: C_34  and  C_36
REMARK   10  A    between atoms: C_34  and  O_37
REMARK                            x       y       z     vdW  Elec       q    Type
REMARK                         _______ _______ _______ _____ _____    ______ ____
ROOT
ATOM      1  C   UNL     1       0.067   1.185   2.485  0.00  0.00    -0.015 A 
ATOM      2  C   UNL     1      -0.023  -0.103   2.979  0.00  0.00    +0.010 A 
ATOM      3  C   UNL     1       0.705  -0.470   4.096  0.00  0.00    +0.050 A 
ATOM      4  C   UNL     1       1.526   0.454   4.722  0.00  0.00    +0.162 A 
ATOM      5  C   UNL     1       1.616   1.750   4.224  0.00  0.00    +0.162 A 
ATOM      6  C   UNL     1       0.888   2.110   3.101  0.00  0.00    +0.055 A 
ATOM      7  O   UNL     1       2.419   2.660   4.836  0.00  0.00    -0.486 OA
ATOM      8  C   UNL     1       1.800   3.865   5.293  0.00  0.00    +0.257 C 
ATOM      9  C   UNL     1       2.196   4.120   6.749  0.00  0.00    +0.201 C 
ATOM     10  O   UNL     1       3.580   4.469   6.812  0.00  0.00    -0.373 OA
ATOM     11  C   UNL     1       3.918   5.309   7.917  0.00  0.00    +0.201 C 
ATOM     12  C   UNL     1       5.282   4.897   8.473  0.00  0.00    +0.257 C 
ATOM     13  O   UNL     1       5.125   3.761   9.326  0.00  0.00    -0.486 OA
ATOM     14  C   UNL     1       6.210   3.386  10.056  0.00  0.00    +0.162 A 
ATOM     15  C   UNL     1       7.138   4.335  10.455  0.00  0.00    +0.053 A 
ATOM     16  C   UNL     1       8.241   3.954  11.196  0.00  0.00    -0.044 A 
ATOM     17  C   UNL     1       8.423   2.628  11.539  0.00  0.00    +0.007 A 
ATOM     18  C   UNL     1       7.502   1.676  11.143  0.00  0.00    +0.050 A 
ATOM     19  C   UNL     1       6.393   2.051  10.402  0.00  0.00    +0.162 A 
ATOM     20  O   UNL     1       5.486   1.115  10.012  0.00  0.00    -0.486 OA
ATOM     21  C   UNL     1       5.997  -0.048   9.357  0.00  0.00    +0.257 C 
ATOM     22  C   UNL     1       5.783   0.084   7.847  0.00  0.00    +0.201 C 
ATOM     23  O   UNL     1       4.554  -0.548   7.483  0.00  0.00    -0.373 OA
ATOM     24  C   UNL     1       4.449  -0.857   6.092  0.00  0.00    +0.201 C 
ATOM     25  C   UNL     1       2.984  -1.126   5.739  0.00  0.00    +0.257 C 
ATOM     26  O   UNL     1       2.244   0.094   5.820  0.00  0.00    -0.486 OA
ENDROOT
BRANCH   1  27
ATOM     27  C   UNL     1      -0.729   1.579   1.267  0.00  0.00    +0.145 C 
BRANCH  27  28
ATOM     28  O   UNL     1      -2.030   0.991   1.336  0.00  0.00    -0.387 OA
ATOM     29  H   UNL     1      -2.696   1.230   2.178  0.00  0.00    +0.210 HD
ENDBRANCH  27  28
BRANCH  27  30
ATOM     30  C   UNL     1      -0.013   1.086   0.008  0.00  0.00    +0.036 C 
BRANCH  30  32
ATOM     31  C   UNL     1      -0.037   1.099  -2.490  0.00  0.00    +0.004 C 
ATOM     32  C   UNL     1      -0.753   1.593  -1.232  0.00  0.00    -0.001 C 
ENDBRANCH  30  32
ENDBRANCH  27  30
ENDBRANCH   1  27
BRANCH  16  33
ATOM     33  C   UNL     1       9.248   4.988  11.630  0.00  0.00    +0.038 C 
BRANCH  33  34
ATOM     34  C   UNL     1      10.332   5.125  10.559  0.00  0.00    +0.035 C 
BRANCH  34  35
ATOM     35  C   UNL     1      11.355   6.175  11.000  0.00  0.00    +0.112 C 
ATOM     36  C   UNL     1      12.504   6.223   9.990  0.00  0.00    +0.037 C 
BRANCH  35  37
ATOM     37  O   UNL     1      10.725   7.455  11.066  0.00  0.00    -0.392 OA
ATOM     38  H   UNL     1      11.306   8.340  11.367  0.00  0.00    +0.210 HD
ENDBRANCH  35  37
ENDBRANCH  34  35
ENDBRANCH  33  34
ENDBRANCH  16  33
TORSDOF 8
