REMARK  Name = ZINC20533037
REMARK  8 active torsions:
REMARK  status: ('A' for Active; 'I' for Inactive)
REMARK    1  A    between atoms: N_4  and  C_7
REMARK    2  A    between atoms: N_10  and  C_13
REMARK    3  A    between atoms: C_13  and  C_14
REMARK    4  A    between atoms: C_14  and  C_15
REMARK    5  A    between atoms: C_15  and  N_16
REMARK    6  A    between atoms: C_17  and  C_19
REMARK    7  A    between atoms: N_24  and  S_26
REMARK    8  A    between atoms: S_26  and  N_29
REMARK                            x       y       z     vdW  Elec       q    Type
REMARK                         _______ _______ _______ _____ _____    ______ ____
ROOT
ATOM      1  N   UNL     1      -0.489  -4.665   7.471  0.00  0.00    -0.315 N 
ATOM      2  C   UNL     1      -0.213  -5.453   8.528  0.00  0.00    +0.217 C 
ATOM      3  O   UNL     1       0.421  -5.012   9.464  0.00  0.00    -0.275 OA
ATOM      4  H   UNL     1      -1.064  -5.064   6.622  0.00  0.00    +0.149 HD
ENDROOT
BRANCH   2   5
ATOM      5  C   UNL     1      -0.691  -6.882   8.549  0.00  0.00    +0.091 C 
ATOM      6  C   UNL     1      -2.219  -6.911   8.460  0.00  0.00    +0.015 C 
ATOM      7  C   UNL     1      -2.703  -8.362   8.447  0.00  0.00    +0.018 C 
ATOM      8  C   UNL     1      -2.281  -9.048   9.750  0.00  0.00    +0.110 C 
ATOM      9  N   UNL     1      -0.829  -8.898   9.915  0.00  0.00    -0.166 NA
ATOM     10  C   UNL     1      -0.247  -7.551   9.853  0.00  0.00    +0.123 C 
BRANCH   9  11
ATOM     11  S   UNL     1       0.132 -10.223  10.168  0.00  0.00    +0.100 S 
ATOM     12  O   UNL     1      -0.566 -11.339   9.635  0.00  0.00    -0.141 OA
ATOM     13  O   UNL     1       1.438  -9.864   9.736  0.00  0.00    -0.141 OA
BRANCH  11  14
ATOM     14  N   UNL     1       0.222 -10.458  11.804  0.00  0.00    -0.166 NA
ATOM     15  C   UNL     1       1.284  -9.820  12.594  0.00  0.00    +0.116 C 
ATOM     16  C   UNL     1       2.017 -10.892  13.400  0.00  0.00    +0.082 C 
ATOM     17  C   UNL     1       1.003 -11.686  14.226  0.00  0.00    +0.173 C 
ATOM     18  C   UNL     1       0.001 -12.375  13.298  0.00  0.00    +0.082 C 
ATOM     19  C   UNL     1      -0.755 -11.313  12.492  0.00  0.00    +0.116 C 
ATOM     20  O   UNL     1       1.687 -12.671  15.011  0.00  0.00    -0.346 OA
ATOM     21  C   UNL     1       1.393 -12.395  16.395  0.00  0.00    +0.191 C 
ATOM     22  C   UNL     1       0.089 -11.563  16.317  0.00  0.00    +0.191 C 
ATOM     23  O   UNL     1       0.302 -10.795  15.108  0.00  0.00    -0.346 OA
ENDBRANCH  11  14
ENDBRANCH   9  11
ENDBRANCH   2   5
BRANCH   1  24
ATOM     24  C   UNL     1      -0.025  -3.275   7.451  0.00  0.00    +0.105 C 
BRANCH  24  25
ATOM     25  C   UNL     1      -0.469  -2.607   6.148  0.00  0.00    +0.034 C 
BRANCH  25  26
ATOM     26  C   UNL     1       0.017  -1.157   6.128  0.00  0.00    +0.086 C 
BRANCH  26  30
ATOM     27  C   UNL     1      -0.099   0.979   2.425  0.00  0.00    -0.066 C 
ATOM     28  C   UNL     1      -0.319  -0.537   2.428  0.00  0.00    +0.000 C 
ATOM     29  C   UNL     1       0.254  -1.127   3.719  0.00  0.00    +0.083 C 
ATOM     30  N   UNL     1      -0.410  -0.515   4.877  0.00  0.00    -0.302 NA
ATOM     31  C   UNL     1      -0.172   0.933   4.920  0.00  0.00    +0.083 C 
ATOM     32  C   UNL     1      -0.759   1.586   3.666  0.00  0.00    +0.000 C 
BRANCH  27  36
ATOM     33  C   UNL     1      -0.788   3.123  -1.209  0.00  0.00    -0.004 C 
ATOM     34  C   UNL     1      -0.752   1.593  -1.232  0.00  0.00    -0.019 C 
ATOM     35  C   UNL     1      -0.013   1.086   0.008  0.00  0.00    -0.078 C 
ATOM     36  N   UNL     1      -0.700   1.559   1.216  0.00  0.00    +0.382 N 
ATOM     37  C   UNL     1      -0.705   3.026   1.284  0.00  0.00    -0.078 C 
ATOM     38  C   UNL     1      -1.465   3.591   0.082  0.00  0.00    -0.019 C 
ATOM     39  H   UNL     1      -1.745   1.222   1.161  0.00  0.00    -0.081 HD
ENDBRANCH  27  36
ENDBRANCH  26  30
ENDBRANCH  25  26
ENDBRANCH  24  25
ENDBRANCH   1  24
TORSDOF 8
