REMARK  Name = ZINC09616127
REMARK  4 active torsions:
REMARK  status: ('A' for Active; 'I' for Inactive)
REMARK    1  A    between atoms: C_6  and  N_7
REMARK    2  A    between atoms: C_8  and  C_12
REMARK    3  A    between atoms: C_12  and  N_13
REMARK    4  A    between atoms: N_16  and  C_17
REMARK                            x       y       z     vdW  Elec       q    Type
REMARK                         _______ _______ _______ _____ _____    ______ ____
ROOT
ATOM      1  N   UNL     1       4.091   0.220  -1.474  0.00  0.00    -0.292 N 
ATOM      2  C   UNL     1       5.416   0.064  -1.667  0.00  0.00    +0.304 C 
ATOM      3  O   UNL     1       6.160  -0.044  -0.711  0.00  0.00    -0.252 OA
ATOM      4  N   UNL     1       5.916   0.030  -2.917  0.00  0.00    -0.269 N 
ATOM      5  H   UNL     1       3.497   0.306  -2.237  0.00  0.00    +0.151 HD
ATOM      6  H   UNL     1       5.336   0.199  -3.676  0.00  0.00    +0.156 HD
ENDROOT
BRANCH   4   7
ATOM      7  C   UNL     1       7.272  -0.250  -3.122  0.00  0.00    +0.036 A 
ATOM      8  C   UNL     1       7.958   0.356  -4.166  0.00  0.00    +0.025 A 
ATOM      9  C   UNL     1       9.298   0.083  -4.362  0.00  0.00    +0.023 A 
ATOM     10  C   UNL     1       9.954  -0.804  -3.527  0.00  0.00    +0.059 A 
ATOM     11  C   UNL     1       9.271  -1.415  -2.488  0.00  0.00    +0.061 A 
ATOM     12  C   UNL     1       7.932  -1.139  -2.284  0.00  0.00    +0.044 A 
ATOM     13 CL   UNL     1      10.098  -2.526  -1.442  0.00  0.00    -0.082 Cl
ATOM     14 CL   UNL     1      11.636  -1.150  -3.780  0.00  0.00    -0.082 Cl
ENDBRANCH   4   7
BRANCH   1  15
ATOM     15  C   UNL     1       3.547   0.257  -0.115  0.00  0.00    +0.184 C 
BRANCH  15  17
ATOM     16  N   UNL     1       1.383   1.607  -0.090  0.00  0.00    -0.196 N 
ATOM     17  C   UNL     1       2.052   0.438  -0.176  0.00  0.00    +0.174 A 
ATOM     18  N   UNL     1       1.163  -0.509  -0.323  0.00  0.00    -0.111 NA
ATOM     19  N   UNL     1      -0.024  -0.017  -0.336  0.00  0.00    -0.023 NA
ATOM     20  N   UNL     1       0.024   1.264  -0.199  0.00  0.00    -0.039 NA
BRANCH  16  26
ATOM     21  C   UNL     1       1.260   3.835   0.843  0.00  0.00    +0.029 A 
ATOM     22  C   UNL     1       1.801   5.095   1.007  0.00  0.00    +0.022 A 
ATOM     23  C   UNL     1       3.000   5.420   0.397  0.00  0.00    +0.041 A 
ATOM     24  C   UNL     1       3.663   4.482  -0.374  0.00  0.00    +0.022 A 
ATOM     25  C   UNL     1       3.129   3.218  -0.537  0.00  0.00    +0.029 A 
ATOM     26  C   UNL     1       1.927   2.890   0.074  0.00  0.00    +0.069 A 
ATOM     27 CL   UNL     1       3.672   7.008   0.600  0.00  0.00    -0.084 Cl
ENDBRANCH  16  26
ENDBRANCH  15  17
ENDBRANCH   1  15
TORSDOF 4
