REMARK  Name = ZINC03897836
REMARK  8 active torsions:
REMARK  status: ('A' for Active; 'I' for Inactive)
REMARK    1  A    between atoms: C_6  and  N_7
REMARK    2  A    between atoms: N_7  and  C_8
REMARK    3  A    between atoms: C_10  and  O_23
REMARK    4  A    between atoms: C_12  and  O_22
REMARK    5  A    between atoms: C_14  and  C_17
REMARK    6  A    between atoms: C_17  and  C_19
REMARK    7  A    between atoms: C_17  and  O_21
REMARK    8  A    between atoms: C_19  and  O_20
REMARK                            x       y       z     vdW  Elec       q    Type
REMARK                         _______ _______ _______ _____ _____    ______ ____
ROOT
ATOM      1  C   UNL     1      -1.176  -2.185   0.002  0.00  0.00    +0.235 C 
ATOM      2  C   UNL     1      -2.370  -2.745   0.815  0.00  0.00    +0.192 C 
ATOM      3  C   UNL     1      -2.538  -4.146   0.167  0.00  0.00    +0.178 C 
ATOM      4  C   UNL     1      -2.157  -3.874  -1.304  0.00  0.00    +0.182 C 
ATOM      5  O   UNL     1      -1.365  -2.679  -1.334  0.00  0.00    -0.348 OA
ENDROOT
BRANCH   1   6
ATOM      6  N   UNL     1      -1.198  -0.721   0.010  0.00  0.00    -0.317 N 
ATOM      7  H   UNL     1      -2.045  -0.248   0.021  0.00  0.00    +0.149 HD
BRANCH   6  13
ATOM      8  C   UNL     1      -0.017   1.385   0.010  0.00  0.00    +0.024 A 
ATOM      9  C   UNL     1       1.171   2.090   0.002  0.00  0.00    +0.022 A 
ATOM     10  C   UNL     1       2.378   1.415  -0.013  0.00  0.00    +0.041 A 
ATOM     11  C   UNL     1       2.400   0.031  -0.022  0.00  0.00    +0.022 A 
ATOM     12  C   UNL     1       1.216  -0.679  -0.014  0.00  0.00    +0.024 A 
ATOM     13  C   UNL     1       0.002  -0.004   0.002  0.00  0.00    +0.029 A 
ATOM     14 CL   UNL     1       3.869   2.305  -0.024  0.00  0.00    -0.084 Cl
ENDBRANCH   6  13
ENDBRANCH   1   6
BRANCH   3  15
ATOM     15  O   UNL     1      -1.645  -5.091   0.760  0.00  0.00    -0.386 OA
ATOM     16  H   UNL     1      -1.791  -5.230   1.706  0.00  0.00    +0.210 HD
ENDBRANCH   3  15
BRANCH   2  17
ATOM     17  O   UNL     1      -2.043  -2.854   2.202  0.00  0.00    -0.385 OA
ATOM     18  H   UNL     1      -1.825  -2.011   2.622  0.00  0.00    +0.210 HD
ENDBRANCH   2  17
BRANCH   4  19
ATOM     19  C   UNL     1      -1.347  -5.048  -1.857  0.00  0.00    +0.171 C 
BRANCH  19  20
ATOM     20  O   UNL     1      -0.216  -5.284  -1.015  0.00  0.00    -0.387 OA
ATOM     21  H   UNL     1       0.385  -4.531  -0.944  0.00  0.00    +0.210 HD
ENDBRANCH  19  20
BRANCH  19  22
ATOM     22  C   UNL     1      -0.868  -4.716  -3.272  0.00  0.00    +0.189 C 
BRANCH  22  23
ATOM     23  O   UNL     1      -0.211  -5.856  -3.832  0.00  0.00    -0.392 OA
ATOM     24  H   UNL     1       0.119  -5.717  -4.730  0.00  0.00    +0.210 HD
ENDBRANCH  22  23
ENDBRANCH  19  22
ENDBRANCH   4  19
TORSDOF 8
