REMARK  Name = ZINC08836592
REMARK  17 active torsions:
REMARK  status: ('A' for Active; 'I' for Inactive)
REMARK    1  A    between atoms: C_1  and  C_2
REMARK    2  A    between atoms: C_2  and  O_3
REMARK    3  A    between atoms: O_3  and  C_4
REMARK    4  A    between atoms: C_4  and  C_6
REMARK    5  A    between atoms: C_7  and  C_41
REMARK    6  A    between atoms: C_8  and  C_13
REMARK    7  A    between atoms: C_9  and  C_12
REMARK    8  A    between atoms: C_13  and  C_15
REMARK    9  A    between atoms: N_19  and  C_32
REMARK   10  A    between atoms: C_20  and  C_22
REMARK   11  A    between atoms: C_25  and  C_28
REMARK   12  A    between atoms: C_28  and  C_29
REMARK   13  A    between atoms: C_28  and  C_30
REMARK   14  A    between atoms: C_28  and  C_31
REMARK   15  A    between atoms: C_32  and  C_33
REMARK   16  A    between atoms: C_33  and  C_34
REMARK   17  A    between atoms: C_34  and  N_35
REMARK                            x       y       z     vdW  Elec       q    Type
REMARK                         _______ _______ _______ _____ _____    ______ ____
ROOT
ATOM      1  C   UNL     1       3.429  -4.079  -6.481  0.00  0.00    +0.076 C 
ATOM      2  C   UNL     1       3.856  -4.895  -7.472  0.00  0.00    +0.249 C 
ATOM      3  C   UNL     1       4.863  -4.184  -8.287  0.00  0.00    +0.288 C 
ATOM      4  O   UNL     1       5.434  -4.650  -9.253  0.00  0.00    -0.266 OA
ATOM      5  N   UNL     1       5.053  -2.943  -7.802  0.00  0.00    -0.283 N 
ATOM      6  C   UNL     1       4.172  -2.773  -6.641  0.00  0.00    +0.145 C 
ATOM      7  O   UNL     1       3.429  -6.162  -7.683  0.00  0.00    -0.282 OA
ENDROOT
BRANCH   6   8
ATOM      8  C   UNL     1       3.197  -1.650  -6.886  0.00  0.00    -0.022 A 
ATOM      9  C   UNL     1       2.528  -1.567  -8.093  0.00  0.00    +0.006 A 
ATOM     10  C   UNL     1       1.634  -0.536  -8.318  0.00  0.00    +0.004 A 
ATOM     11  C   UNL     1       1.409   0.410  -7.336  0.00  0.00    -0.042 A 
ATOM     12  C   UNL     1       2.078   0.327  -6.129  0.00  0.00    +0.004 A 
ATOM     13  C   UNL     1       2.968  -0.706  -5.902  0.00  0.00    +0.006 A 
BRANCH  11  14
ATOM     14  C   UNL     1       0.435   1.534  -7.582  0.00  0.00    -0.013 C 
ATOM     15  C   UNL     1      -0.953   0.954  -7.861  0.00  0.00    +0.015 C 
ATOM     16  C   UNL     1       0.373   2.434  -6.346  0.00  0.00    +0.015 C 
ATOM     17  C   UNL     1       0.897   2.354  -8.787  0.00  0.00    +0.015 C 
ENDBRANCH  11  14
ENDBRANCH   6   8
BRANCH   1  18
ATOM     18  C   UNL     1       2.433  -4.399  -5.452  0.00  0.00    +0.197 C 
ATOM     19  O   UNL     1       1.250  -4.218  -5.674  0.00  0.00    -0.287 OA
BRANCH  18  22
ATOM     20  C   UNL     1       2.836  -5.789  -2.086  0.00  0.00    +0.128 A 
ATOM     21  C   UNL     1       2.025  -5.364  -3.097  0.00  0.00    -0.008 A 
ATOM     22  C   UNL     1       2.865  -4.939  -4.150  0.00  0.00    +0.046 A 
ATOM     23  C   UNL     1       4.170  -5.125  -3.729  0.00  0.00    +0.025 A 
ATOM     24  N   UNL     1       4.146  -5.631  -2.486  0.00  0.00    -0.352 N 
ATOM     25  H   UNL     1       4.926  -5.853  -1.954  0.00  0.00    +0.166 HD
ATOM     26  C   UNL     1       5.408  -4.809  -4.528  0.00  0.00    +0.064 C 
ATOM     27  C   UNL     1       0.518  -5.351  -3.092  0.00  0.00    +0.047 C 
BRANCH  20  28
ATOM     28  C   UNL     1       2.391  -6.316  -0.792  0.00  0.00    +0.356 C 
ATOM     29  O   UNL     1       1.203  -6.409  -0.549  0.00  0.00    -0.243 OA
BRANCH  28  30
ATOM     30  O   UNL     1       3.299  -6.698   0.129  0.00  0.00    -0.460 OA
BRANCH  30  32
ATOM     31  C   UNL     1       3.964  -7.582   2.278  0.00  0.00    +0.048 C 
ATOM     32  C   UNL     1       2.794  -7.203   1.367  0.00  0.00    +0.229 C 
ENDBRANCH  30  32
ENDBRANCH  28  30
ENDBRANCH  20  28
ENDBRANCH  18  22
ENDBRANCH   1  18
BRANCH   5  33
ATOM     33  C   UNL     1       5.972  -1.938  -8.342  0.00  0.00    +0.111 C 
BRANCH  33  34
ATOM     34  C   UNL     1       5.245  -1.091  -9.389  0.00  0.00    +0.040 C 
BRANCH  34  35
ATOM     35  C   UNL     1       6.205  -0.042  -9.952  0.00  0.00    +0.124 C 
BRANCH  35  36
ATOM     36  N   UNL     1       5.508   0.769 -10.954  0.00  0.00    -0.338 N 
ATOM     37  C   UNL     1       5.428   0.509 -12.296  0.00  0.00    +0.104 A 
ATOM     38  C   UNL     1       4.699   1.501 -12.842  0.00  0.00    +0.101 A 
ATOM     39  N   UNL     1       4.344   2.344 -11.861  0.00  0.00    -0.352 N 
ATOM     40  C   UNL     1       4.821   1.909 -10.726  0.00  0.00    +0.173 A 
ATOM     41  H   UNL     1       3.814   3.148 -11.975  0.00  0.00    +0.166 HD
ENDBRANCH  35  36
ENDBRANCH  34  35
ENDBRANCH  33  34
ENDBRANCH   5  33
TORSDOF 11
