REMARK  Name = ZINC38845247
REMARK  13 active torsions:
REMARK  status: ('A' for Active; 'I' for Inactive)
REMARK    1  A    between atoms: C_1  and  C_2
REMARK    2  A    between atoms: C_2  and  N_3
REMARK    3  A    between atoms: N_3  and  C_4
REMARK    4  A    between atoms: N_3  and  C_6
REMARK    5  A    between atoms: C_4  and  C_5
REMARK    6  A    between atoms: C_6  and  C_7
REMARK    7  A    between atoms: C_7  and  N_8
REMARK    8  A    between atoms: C_17  and  S_18
REMARK    9  A    between atoms: S_18  and  C_19
REMARK   10  A    between atoms: C_20  and  C_22
REMARK   11  A    between atoms: C_22  and  C_23
REMARK   12  A    between atoms: C_23  and  S_24
REMARK   13  A    between atoms: S_24  and  C_27
REMARK                            x       y       z     vdW  Elec       q    Type
REMARK                         _______ _______ _______ _____ _____    ______ ____
ROOT
ATOM      1  N   UNL     1      -2.915  -4.087   0.184  0.00  0.00    -0.252 N 
ATOM      2  C   UNL     1      -3.083  -4.630   1.448  0.00  0.00    +0.168 A 
ATOM      3  N   UNL     1      -3.102  -5.893   1.806  0.00  0.00    -0.223 NA
ATOM      4  C   UNL     1      -3.276  -6.281   3.088  0.00  0.00    +0.094 A 
ATOM      5  C   UNL     1      -3.436  -5.240   4.028  0.00  0.00    +0.042 A 
ATOM      6  S   UNL     1      -3.319  -3.790   3.008  0.00  0.00    -0.052 S 
ATOM      7  C   UNL     1      -3.621  -5.472   5.370  0.00  0.00    +0.017 A 
ATOM      8  C   UNL     1      -3.656  -6.771   5.843  0.00  0.00    +0.002 A 
ATOM      9  C   UNL     1      -3.503  -7.823   4.953  0.00  0.00    +0.017 A 
ATOM     10  C   UNL     1      -3.317  -7.603   3.606  0.00  0.00    +0.034 A 
ATOM     11  C   UNL     1      -2.748  -4.897  -0.881  0.00  0.00    +0.223 C 
ATOM     12  O   UNL     1      -2.745  -6.100  -0.733  0.00  0.00    -0.275 OA
ENDROOT
BRANCH  10  13
ATOM     13  S   UNL     1      -3.127  -8.974   2.515  0.00  0.00    -0.126 S 
ATOM     14  C   UNL     1      -3.246 -10.420   3.603  0.00  0.00    +0.090 C 
ENDBRANCH  10  13
BRANCH   1  15
ATOM     15  C   UNL     1      -2.919  -2.633   0.005  0.00  0.00    +0.097 C 
BRANCH  15  16
ATOM     16  C   UNL     1      -1.492  -2.098   0.144  0.00  0.00    -0.059 C 
BRANCH  16  17
ATOM     17  N   UNL     1      -1.476  -0.660  -0.156  0.00  0.00    +0.380 N 
ATOM     18  H   UNL     1      -1.879  -0.503  -1.068  0.00  0.00    -0.082 HD
BRANCH  17  20
ATOM     19  C   UNL     1      -2.348   1.539   0.475  0.00  0.00    -0.017 C 
ATOM     20  C   UNL     1      -2.260   0.060   0.856  0.00  0.00    -0.082 C 
ENDBRANCH  17  20
BRANCH  17  21
ATOM     21  C   UNL     1      -0.091  -0.172  -0.142  0.00  0.00    -0.082 C 
ATOM     22  C   UNL     1       0.685  -0.807  -1.298  0.00  0.00    -0.017 C 
ENDBRANCH  17  21
ENDBRANCH  16  17
ENDBRANCH  15  16
ENDBRANCH   1  15
BRANCH  11  23
ATOM     23  C   UNL     1      -2.566  -4.306  -2.255  0.00  0.00    +0.119 C 
BRANCH  23  24
ATOM     24  C   UNL     1      -2.399  -5.433  -3.276  0.00  0.00    +0.181 C 
BRANCH  24  25
ATOM     25  S   UNL     1      -2.180  -4.722  -4.931  0.00  0.00    -0.003 S 
ATOM     26  O   UNL     1      -3.380  -4.090  -5.355  0.00  0.00    -0.169 OA
ATOM     27  O   UNL     1      -0.935  -4.041  -5.010  0.00  0.00    -0.169 OA
BRANCH  25  28
ATOM     28  C   UNL     1      -2.001  -6.111  -6.000  0.00  0.00    +0.088 A 
ATOM     29  C   UNL     1      -0.746  -6.635  -6.248  0.00  0.00    +0.028 A 
ATOM     30  C   UNL     1      -0.605  -7.725  -7.087  0.00  0.00    +0.022 A 
ATOM     31  C   UNL     1      -1.720  -8.290  -7.679  0.00  0.00    +0.041 A 
ATOM     32  C   UNL     1      -2.976  -7.765  -7.431  0.00  0.00    +0.022 A 
ATOM     33  C   UNL     1      -3.116  -6.679  -6.587  0.00  0.00    +0.028 A 
ATOM     34 CL   UNL     1      -1.544  -9.658  -8.733  0.00  0.00    -0.084 Cl
ENDBRANCH  25  28
ENDBRANCH  24  25
ENDBRANCH  23  24
ENDBRANCH  11  23
TORSDOF 10
