REMARK  Name = ZINC23029526
REMARK  6 active torsions:
REMARK  status: ('A' for Active; 'I' for Inactive)
REMARK    1  A    between atoms: C_1  and  C_2
REMARK    2  A    between atoms: C_2  and  C_3
REMARK    3  A    between atoms: C_9  and  C_13
REMARK    4  A    between atoms: C_13  and  N_14
REMARK    5  A    between atoms: N_17  and  S_20
REMARK    6  A    between atoms: S_20  and  C_23
REMARK                            x       y       z     vdW  Elec       q    Type
REMARK                         _______ _______ _______ _____ _____    ______ ____
ROOT
ATOM      1  N   UNL     1       1.281  -4.609  -1.291  0.00  0.00    +0.385 N 
ATOM      2  C   UNL     1       0.382  -4.382  -2.430  0.00  0.00    -0.061 C 
ATOM      3  C   UNL     1       1.146  -4.622  -3.736  0.00  0.00    +0.091 C 
ATOM      4  N   UNL     1       1.754  -5.960  -3.682  0.00  0.00    -0.180 NA
ATOM      5  C   UNL     1       2.559  -6.311  -2.502  0.00  0.00    +0.091 C 
ATOM      6  C   UNL     1       1.740  -6.003  -1.244  0.00  0.00    -0.061 C 
ATOM      7  H   UNL     1       2.166  -3.970  -1.431  0.00  0.00    -0.081 HD
ENDROOT
BRANCH   4   8
ATOM      8  S   UNL     1       1.538  -7.043  -4.915  0.00  0.00    +0.067 S 
ATOM      9  O   UNL     1       1.238  -6.282  -6.077  0.00  0.00    -0.152 OA
ATOM     10  O   UNL     1       2.633  -7.947  -4.859  0.00  0.00    -0.152 OA
BRANCH   8  11
ATOM     11  C   UNL     1       0.093  -7.979  -4.540  0.00  0.00    +0.143 A 
ATOM     12  C   UNL     1      -1.198  -7.725  -4.869  0.00  0.00    +0.036 A 
ATOM     13  C   UNL     1      -2.179  -8.611  -4.465  0.00  0.00    +0.010 A 
ATOM     14  C   UNL     1      -1.823  -9.702  -3.744  0.00  0.00    +0.047 A 
ATOM     15  S   UNL     1      -0.053  -9.503  -3.622  0.00  0.00    -0.077 S 
ENDBRANCH   8  11
ENDBRANCH   4   8
BRANCH   1  16
ATOM     16  C   UNL     1       0.639  -4.223  -0.028  0.00  0.00    -0.022 C 
BRANCH  16  23
ATOM     17  C   UNL     1       1.079   2.084   0.003  0.00  0.00    +0.102 A 
ATOM     18  N   UNL     1      -0.017   1.387   0.010  0.00  0.00    -0.159 NA
ATOM     19  N   UNL     1       0.002  -0.004   0.002  0.00  0.00    -0.171 N 
ATOM     20  C   UNL     1      -1.074  -0.845   0.007  0.00  0.00    +0.275 A 
ATOM     21  O   UNL     1      -2.207  -0.388   0.020  0.00  0.00    -0.266 OA
ATOM     22  C   UNL     1      -0.877  -2.226  -0.002  0.00  0.00    +0.093 A 
ATOM     23  C   UNL     1       0.404  -2.734  -0.017  0.00  0.00    +0.033 A 
ATOM     24  N   UNL     1       1.430  -1.887  -0.022  0.00  0.00    -0.228 NA
ATOM     25  C   UNL     1       1.237  -0.593  -0.013  0.00  0.00    +0.199 A 
ATOM     26  S   UNL     1       2.331   0.811  -0.016  0.00  0.00    -0.033 S 
BRANCH  17  28
ATOM     27  C   UNL     1      -0.125   4.251   0.025  0.00  0.00    +0.011 C 
ATOM     28  C   UNL     1       1.250   3.581   0.009  0.00  0.00    +0.061 C 
ENDBRANCH  17  28
ENDBRANCH  16  23
ENDBRANCH   1  16
TORSDOF 5
