REMARK  Name = ZINC09517256
REMARK  9 active torsions:
REMARK  status: ('A' for Active; 'I' for Inactive)
REMARK    1  A    between atoms: C_1  and  C_2
REMARK    2  A    between atoms: C_2  and  O_3
REMARK    3  A    between atoms: O_3  and  C_4
REMARK    4  A    between atoms: C_4  and  C_6
REMARK    5  A    between atoms: C_12  and  C_14
REMARK    6  A    between atoms: C_12  and  C_22
REMARK    7  A    between atoms: C_12  and  N_52
REMARK    8  A    between atoms: C_23  and  O_31
REMARK    9  A    between atoms: C_28  and  C_30
REMARK                            x       y       z     vdW  Elec       q    Type
REMARK                         _______ _______ _______ _____ _____    ______ ____
ROOT
ATOM      1  C   UNL     1      -0.740   1.453   8.533  0.00  0.00    +0.006 C 
ENDROOT
BRANCH   1   2
ATOM      2  C   UNL     1      -0.822   2.957   8.508  0.00  0.00    +0.045 A 
ATOM      3  C   UNL     1      -1.863   3.751   8.786  0.00  0.00    +0.225 A 
ATOM      4  N   UNL     1      -1.741   5.118   8.709  0.00  0.00    -0.173 N 
ATOM      5  C   UNL     1      -0.532   5.616   8.332  0.00  0.00    +0.199 A 
ATOM      6  S   UNL     1       0.441   4.149   8.091  0.00  0.00    -0.050 S 
ATOM      7  N   UNL     1      -0.585   6.920   8.304  0.00  0.00    -0.205 NA
ATOM      8  C   UNL     1      -1.805   7.318   8.655  0.00  0.00    +0.150 A 
ATOM      9  N   UNL     1      -2.543   6.272   8.910  0.00  0.00    -0.147 NA
ATOM     10  C   UNL     1      -2.263   8.751   8.743  0.00  0.00    +0.090 C 
BRANCH   3  11
ATOM     11  O   UNL     1      -3.052   3.200   9.152  0.00  0.00    -0.492 OA
ATOM     12  H   UNL     1      -3.147   3.069  10.106  0.00  0.00    +0.294 HD
ENDBRANCH   3  11
ENDBRANCH   1   2
BRANCH   1  13
ATOM     13  C   UNL     1       0.036   1.012   9.748  0.00  0.00    -0.055 A 
ATOM     14  C   UNL     1       1.409   1.173   9.786  0.00  0.00    +0.004 A 
ATOM     15  C   UNL     1       2.121   0.774  10.902  0.00  0.00    +0.021 A 
ATOM     16  C   UNL     1       1.461   0.204  11.976  0.00  0.00    +0.059 A 
ATOM     17  C   UNL     1       0.087   0.038  11.935  0.00  0.00    +0.059 A 
ATOM     18  C   UNL     1      -0.625   0.443  10.820  0.00  0.00    +0.023 A 
ATOM     19 CL   UNL     1      -0.742  -0.678  13.282  0.00  0.00    -0.082 Cl
ATOM     20 CL   UNL     1       2.356  -0.304  13.374  0.00  0.00    -0.082 Cl
ENDBRANCH   1  13
BRANCH   1  26
ATOM     21  C   UNL     1       0.828  -0.942   6.086  0.00  0.00    +0.081 C 
ATOM     22  C   UNL     1       0.201  -0.402   4.797  0.00  0.00    +0.011 C 
ATOM     23  C   UNL     1       0.116   1.125   4.881  0.00  0.00    -0.018 C 
ATOM     24  C   UNL     1      -0.701   1.518   6.114  0.00  0.00    -0.077 C 
ATOM     25  C   UNL     1      -0.010  -0.488   7.284  0.00  0.00    -0.063 C 
ATOM     26  N   UNL     1      -0.033   0.990   7.321  0.00  0.00    +0.388 N 
ATOM     27  H   UNL     1       0.933   1.337   7.346  0.00  0.00    -0.080 HD
BRANCH  21  28
ATOM     28  C   UNL     1       0.861  -2.447   6.037  0.00  0.00    +0.308 C 
ATOM     29  O   UNL     1       0.275  -3.092   6.874  0.00  0.00    -0.251 OA
BRANCH  28  30
ATOM     30  O   UNL     1       1.542  -3.072   5.063  0.00  0.00    -0.465 OA
BRANCH  30  32
ATOM     31  C   UNL     1       2.354  -5.052   3.902  0.00  0.00    +0.048 C 
ATOM     32  C   UNL     1       1.531  -4.524   5.078  0.00  0.00    +0.229 C 
ENDBRANCH  30  32
ENDBRANCH  28  30
ENDBRANCH  21  28
ENDBRANCH   1  26
TORSDOF 7
