REMARK  Name = ZINC13154571
REMARK  11 active torsions:
REMARK  status: ('A' for Active; 'I' for Inactive)
REMARK    1  A    between atoms: C_1  and  C_2
REMARK    2  A    between atoms: C_2  and  N_3
REMARK    3  A    between atoms: N_3  and  C_4
REMARK    4  A    between atoms: N_3  and  C_6
REMARK    5  A    between atoms: C_4  and  C_5
REMARK    6  A    between atoms: C_6  and  C_7
REMARK    7  A    between atoms: C_7  and  C_8
REMARK    8  A    between atoms: C_22  and  N_25
REMARK    9  A    between atoms: C_26  and  O_28
REMARK   10  A    between atoms: O_28  and  C_29
REMARK   11  A    between atoms: C_29  and  C_30
REMARK                            x       y       z     vdW  Elec       q    Type
REMARK                         _______ _______ _______ _____ _____    ______ ____
ROOT
ATOM      1  C   UNL     1       1.189  -4.399  -0.444  0.00  0.00    +0.222 C 
ATOM      2  O   UNL     1       1.133  -3.188  -0.419  0.00  0.00    -0.275 OA
ATOM      3  N   UNL     1       1.968  -5.019  -1.353  0.00  0.00    -0.238 N 
ATOM      4  C   UNL     1       2.574  -4.229  -2.324  0.00  0.00    +0.057 A 
ATOM      5  C   UNL     1       2.783  -2.877  -2.055  0.00  0.00    +0.025 A 
ATOM      6  C   UNL     1       3.375  -2.064  -2.998  0.00  0.00    +0.002 A 
ATOM      7  C   UNL     1       3.765  -2.587  -4.218  0.00  0.00    +0.001 A 
ATOM      8  C   UNL     1       3.563  -3.927  -4.490  0.00  0.00    +0.019 A 
ATOM      9  C   UNL     1       2.971  -4.747  -3.547  0.00  0.00    +0.065 A 
ATOM     10  S   UNL     1       2.732  -6.454  -3.910  0.00  0.00    +0.089 S 
ATOM     11  O   UNL     1       1.462  -6.496  -4.545  0.00  0.00    -0.247 OA
ATOM     12  C   UNL     1       2.446  -7.189  -2.335  0.00  0.00    +0.066 A 
ATOM     13  C   UNL     1       2.108  -6.399  -1.244  0.00  0.00    +0.059 A 
ATOM     14  C   UNL     1       1.894  -6.997  -0.004  0.00  0.00    +0.048 A 
ATOM     15  C   UNL     1       2.020  -8.370   0.139  0.00  0.00    +0.038 A 
ATOM     16  C   UNL     1       2.360  -9.153  -0.957  0.00  0.00    +0.025 A 
ATOM     17  C   UNL     1       2.565  -8.559  -2.193  0.00  0.00    +0.021 A 
ENDROOT
BRANCH  15  18
ATOM     18  N   UNL     1       1.805  -8.966   1.387  0.00  0.00    -0.251 N 
ATOM     19  C   UNL     1       1.276 -10.204   1.460  0.00  0.00    +0.405 C 
ATOM     20  O   UNL     1       1.081 -10.842   0.444  0.00  0.00    -0.226 OA
ATOM     21  H   UNL     1       2.037  -8.489   2.199  0.00  0.00    +0.158 HD
BRANCH  19  22
ATOM     22  O   UNL     1       0.963 -10.732   2.658  0.00  0.00    -0.450 OA
BRANCH  22  23
ATOM     23  C   UNL     1       0.406 -12.048   2.661  0.00  0.00    +0.230 C 
ATOM     24  C   UNL     1       0.118 -12.477   4.101  0.00  0.00    +0.048 C 
ENDBRANCH  22  23
ENDBRANCH  19  22
ENDBRANCH  15  18
BRANCH   1  25
ATOM     25  C   UNL     1       0.388  -5.211   0.541  0.00  0.00    +0.078 C 
BRANCH  25  26
ATOM     26  C   UNL     1      -0.868  -4.434   0.940  0.00  0.00    -0.070 C 
BRANCH  26  27
ATOM     27  N   UNL     1      -1.649  -5.226   1.901  0.00  0.00    +0.380 N 
ATOM     28  H   UNL     1      -1.845  -6.134   1.507  0.00  0.00    -0.082 HD
BRANCH  27  30
ATOM     29  C   UNL     1      -1.631  -6.325   4.089  0.00  0.00    -0.017 C 
ATOM     30  C   UNL     1      -0.880  -5.386   3.142  0.00  0.00    -0.082 C 
ENDBRANCH  27  30
BRANCH  27  31
ATOM     31  C   UNL     1      -2.912  -4.535   2.192  0.00  0.00    -0.082 C 
ATOM     32  C   UNL     1      -3.774  -4.492   0.929  0.00  0.00    -0.017 C 
ENDBRANCH  27  31
ENDBRANCH  26  27
ENDBRANCH  25  26
ENDBRANCH   1  25
TORSDOF 8
