REMARK  Name = ZINC09124692
REMARK  13 active torsions:
REMARK  status: ('A' for Active; 'I' for Inactive)
REMARK    1  A    between atoms: C_1  and  C_2
REMARK    2  A    between atoms: C_2  and  O_3
REMARK    3  A    between atoms: O_3  and  C_4
REMARK    4  A    between atoms: C_7  and  C_13
REMARK    5  A    between atoms: C_9  and  O_10
REMARK    6  A    between atoms: O_10  and  C_11
REMARK    7  A    between atoms: C_11  and  C_12
REMARK    8  A    between atoms: C_16  and  C_27
REMARK    9  A    between atoms: N_23  and  C_24
REMARK   10  A    between atoms: C_24  and  C_25
REMARK   11  A    between atoms: C_25  and  O_26
REMARK   12  A    between atoms: C_30  and  C_34
REMARK   13  A    between atoms: C_32  and  O_33
REMARK                            x       y       z     vdW  Elec       q    Type
REMARK                         _______ _______ _______ _____ _____    ______ ____
ROOT
ATOM      1  C   UNL     1       1.405  -5.989  -1.247  0.00  0.00    +0.141 C 
ATOM      2  C   UNL     1       0.437  -7.019  -1.759  0.00  0.00    +0.035 A 
ATOM      3  C   UNL     1      -0.370  -7.458  -2.814  0.00  0.00    +0.102 A 
ATOM      4  N   UNL     1      -0.966  -8.566  -2.421  0.00  0.00    -0.173 NA
ATOM      5  N   UNL     1      -0.615  -8.871  -1.222  0.00  0.00    -0.272 N 
ATOM      6  H   UNL     1      -0.929  -9.646  -0.730  0.00  0.00    +0.189 HD
ATOM      7  C   UNL     1       0.265  -7.942  -0.745  0.00  0.00    +0.126 A 
ATOM      8  C   UNL     1       1.090  -7.538   0.399  0.00  0.00    +0.266 C 
ATOM      9  O   UNL     1       1.161  -8.142   1.452  0.00  0.00    -0.268 OA
ATOM     10  N   UNL     1       1.758  -6.403   0.118  0.00  0.00    -0.283 N 
ENDROOT
BRANCH   3  11
ATOM     11  C   UNL     1      -0.528  -6.796  -4.133  0.00  0.00    +0.045 A 
ATOM     12  C   UNL     1       0.261  -5.697  -4.463  0.00  0.00    +0.034 A 
ATOM     13  C   UNL     1       0.111  -5.084  -5.692  0.00  0.00    +0.045 A 
ATOM     14  C   UNL     1      -0.822  -5.561  -6.598  0.00  0.00    -0.029 A 
ATOM     15  C   UNL     1      -1.609  -6.651  -6.280  0.00  0.00    +0.050 A 
ATOM     16  C   UNL     1      -1.464  -7.278  -5.053  0.00  0.00    +0.126 A 
ATOM     17  C   UNL     1      -0.979  -4.886  -7.936  0.00  0.00    +0.045 C 
ATOM     18 CL   UNL     1       1.094  -3.713  -6.101  0.00  0.00    -0.083 Cl
BRANCH  16  19
ATOM     19  O   UNL     1      -2.233  -8.353  -4.741  0.00  0.00    -0.506 OA
ATOM     20  H   UNL     1      -3.068  -8.128  -4.309  0.00  0.00    +0.292 HD
ENDBRANCH  16  19
ENDBRANCH   3  11
BRANCH   1  24
ATOM     21  C   UNL     1      -0.443  -2.132  -1.187  0.00  0.00    +0.162 A 
ATOM     22  C   UNL     1       0.588  -2.397  -2.075  0.00  0.00    +0.050 A 
ATOM     23  C   UNL     1       1.183  -3.644  -2.092  0.00  0.00    +0.009 A 
ATOM     24  C   UNL     1       0.753  -4.630  -1.224  0.00  0.00    -0.019 A 
ATOM     25  C   UNL     1      -0.275  -4.374  -0.336  0.00  0.00    +0.055 A 
ATOM     26  C   UNL     1      -0.872  -3.123  -0.310  0.00  0.00    +0.162 A 
BRANCH  21  27
ATOM     27  O   UNL     1      -1.029  -0.905  -1.169  0.00  0.00    -0.489 OA
BRANCH  27  29
ATOM     28  C   UNL     1      -1.313   1.371  -1.931  0.00  0.00    +0.048 C 
ATOM     29  C   UNL     1      -0.537   0.062  -2.098  0.00  0.00    +0.226 C 
ENDBRANCH  27  29
ENDBRANCH  21  27
BRANCH  26  30
ATOM     30  O   UNL     1      -1.879  -2.867   0.568  0.00  0.00    -0.489 OA
BRANCH  30  31
ATOM     31  C   UNL     1      -2.199  -3.896   1.506  0.00  0.00    +0.226 C 
ATOM     32  C   UNL     1      -3.256  -3.382   2.486  0.00  0.00    +0.048 C 
ENDBRANCH  30  31
ENDBRANCH  26  30
ENDBRANCH   1  24
BRANCH  10  33
ATOM     33  C   UNL     1       2.678  -5.702   1.016  0.00  0.00    +0.137 C 
BRANCH  33  34
ATOM     34  C   UNL     1       1.881  -4.799   1.960  0.00  0.00    +0.175 C 
BRANCH  34  35
ATOM     35  O   UNL     1       1.026  -5.601   2.777  0.00  0.00    -0.393 OA
ATOM     36  H   UNL     1       0.489  -5.094   3.401  0.00  0.00    +0.209 HD
ENDBRANCH  34  35
ENDBRANCH  33  34
ENDBRANCH  10  33
TORSDOF 10
