REMARK  Name = ZINC14357702
REMARK  7 active torsions:
REMARK  status: ('A' for Active; 'I' for Inactive)
REMARK    1  A    between atoms: N_10  and  S_11
REMARK    2  A    between atoms: S_11  and  C_14
REMARK    3  A    between atoms: C_17  and  C_20
REMARK    4  A    between atoms: C_20  and  O_22
REMARK    5  A    between atoms: O_22  and  C_23
REMARK    6  A    between atoms: C_23  and  C_24
REMARK    7  A    between atoms: N_26  and  C_27
REMARK                            x       y       z     vdW  Elec       q    Type
REMARK                         _______ _______ _______ _____ _____    ______ ____
ROOT
ATOM      1  C   UNL     1       1.206  -0.683  -0.013  0.00  0.00    +0.109 A 
ATOM      2  C   UNL     1       0.000  -0.005   0.002  0.00  0.00    +0.029 A 
ATOM      3  C   UNL     1      -0.020   1.374   0.010  0.00  0.00    +0.017 A 
ATOM      4  C   UNL     1       1.181   2.087   0.002  0.00  0.00    +0.059 A 
ATOM      5  C   UNL     1       2.395   1.396  -0.013  0.00  0.00    +0.017 A 
ATOM      6  C   UNL     1       2.400   0.017  -0.021  0.00  0.00    +0.029 A 
ENDROOT
BRANCH   1   7
ATOM      7  S   UNL     1       1.222  -2.445  -0.023  0.00  0.00    +0.075 S 
ATOM      8  O   UNL     1       2.477  -2.842   0.514  0.00  0.00    -0.150 OA
ATOM      9  O   UNL     1      -0.014  -2.865   0.538  0.00  0.00    -0.150 OA
BRANCH   7  19
ATOM     10  C   UNL     1       4.792  -3.193  -3.719  0.00  0.00    +0.000 A 
ATOM     11  C   UNL     1       4.750  -2.537  -2.502  0.00  0.00    +0.002 A 
ATOM     12  C   UNL     1       3.561  -2.450  -1.807  0.00  0.00    +0.025 A 
ATOM     13  C   UNL     1       2.406  -3.022  -2.329  0.00  0.00    +0.054 A 
ATOM     14  C   UNL     1       2.447  -3.677  -3.550  0.00  0.00    -0.025 A 
ATOM     15  C   UNL     1       3.645  -3.760  -4.241  0.00  0.00    +0.005 A 
ATOM     16  C   UNL     1       1.216  -4.302  -4.150  0.00  0.00    +0.038 C 
ATOM     17  C   UNL     1       0.164  -4.555  -3.070  0.00  0.00    +0.025 C 
ATOM     18  C   UNL     1      -0.052  -3.264  -2.276  0.00  0.00    +0.132 C 
ATOM     19  N   UNL     1       1.211  -2.926  -1.607  0.00  0.00    -0.203 N 
ENDBRANCH   7  19
ENDBRANCH   1   7
BRANCH   4  20
ATOM     20  C   UNL     1       1.168   3.564   0.010  0.00  0.00    +0.340 C 
ATOM     21  O   UNL     1       0.110   4.161   0.023  0.00  0.00    -0.245 OA
BRANCH  20  22
ATOM     22  O   UNL     1       2.328   4.248   0.002  0.00  0.00    -0.452 OA
BRANCH  22  23
ATOM     23  C   UNL     1       2.239   5.697   0.010  0.00  0.00    +0.328 C 
BRANCH  23  24
ATOM     24  C   UNL     1       3.626   6.286  -0.000  0.00  0.00    +0.251 C 
ATOM     25  O   UNL     1       4.595   5.556  -0.013  0.00  0.00    -0.272 OA
ATOM     26  N   UNL     1       3.791   7.623   0.005  0.00  0.00    -0.307 N 
ATOM     27  H   UNL     1       3.016   8.207   0.015  0.00  0.00    +0.149 HD
BRANCH  26  28
ATOM     28  C   UNL     1       5.139   8.196  -0.005  0.00  0.00    +0.035 C 
ATOM     29  C   UNL     1       5.902   7.725   1.234  0.00  0.00    +0.029 C 
ATOM     30  C   UNL     1       7.311   8.322   1.224  0.00  0.00    -0.008 C 
ATOM     31  C   UNL     1       7.217   9.850   1.232  0.00  0.00    +0.007 C 
ATOM     32  C   UNL     1       6.454  10.321  -0.007  0.00  0.00    -0.008 C 
ATOM     33  C   UNL     1       5.045   9.723   0.003  0.00  0.00    +0.029 C 
ATOM     34  C   UNL     1       7.193   9.862  -1.266  0.00  0.00    +0.007 C 
ATOM     35  C   UNL     1       7.287   8.335  -1.274  0.00  0.00    -0.008 C 
ATOM     36  C   UNL     1       8.050   7.864  -0.035  0.00  0.00    +0.007 C 
ATOM     37  C   UNL     1       5.878   7.737  -1.264  0.00  0.00    +0.029 C 
ENDBRANCH  26  28
ENDBRANCH  23  24
ENDBRANCH  22  23
ENDBRANCH  20  22
ENDBRANCH   4  20
TORSDOF 7
