REMARK  Name = ZINC20206915
REMARK  9 active torsions:
REMARK  status: ('A' for Active; 'I' for Inactive)
REMARK    1  A    between atoms: C_1  and  C_2
REMARK    2  A    between atoms: C_2  and  C_3
REMARK    3  A    between atoms: C_8  and  N_9
REMARK    4  A    between atoms: C_10  and  C_32
REMARK    5  A    between atoms: C_12  and  C_15
REMARK    6  A    between atoms: C_13  and  C_14
REMARK    7  A    between atoms: C_26  and  S_27
REMARK    8  A    between atoms: S_27  and  C_30
REMARK    9  A    between atoms: C_30  and  C_31
REMARK                            x       y       z     vdW  Elec       q    Type
REMARK                         _______ _______ _______ _____ _____    ______ ____
ROOT
ATOM      1  C   UNL     1      -4.725   1.634   3.159  0.00  0.00    +0.026 C 
ATOM      2  C   UNL     1      -6.024   1.198   3.001  0.00  0.00    +0.078 C 
ATOM      3  C   UNL     1      -7.190   2.034   3.405  0.00  0.00    +0.117 C 
ATOM      4  N   UNL     1      -7.194   3.339   3.343  0.00  0.00    -0.386 N 
ATOM      5  N   UNL     1      -8.286   1.275   3.860  0.00  0.00    -0.203 N 
ATOM      6  C   UNL     1      -8.390  -0.038   3.450  0.00  0.00    +0.183 C 
ATOM      7  N   UNL     1      -7.509  -0.710   2.744  0.00  0.00    -0.152 NA
ATOM      8  C   UNL     1      -6.339  -0.127   2.414  0.00  0.00    +0.273 C 
ATOM      9  O   UNL     1      -5.556  -0.675   1.655  0.00  0.00    -0.268 OA
ATOM     10  S   UNL     1      -9.856  -0.519   4.082  0.00  0.00    +0.049 S 
ATOM     11  N   UNL     1     -10.259   0.872   4.925  0.00  0.00    -0.174 NA
ATOM     12  C   UNL     1      -9.288   1.693   4.669  0.00  0.00    +0.257 C 
ATOM     13  H   UNL     1      -6.382   3.817   3.112  0.00  0.00    +0.157 HD
ATOM     14  H   UNL     1      -8.010   3.831   3.529  0.00  0.00    +0.157 HD
ENDROOT
BRANCH   1  18
ATOM     15  N   UNL     1      -1.653  -0.089   2.270  0.00  0.00    -0.317 N 
ATOM     16  C   UNL     1      -2.349  -1.141   2.797  0.00  0.00    +0.022 A 
ATOM     17  C   UNL     1      -3.556  -0.715   3.203  0.00  0.00    +0.031 A 
ATOM     18  C   UNL     1      -3.612   0.723   2.902  0.00  0.00    -0.003 A 
ATOM     19  C   UNL     1      -2.391   1.038   2.329  0.00  0.00    +0.028 A 
ATOM     20  C   UNL     1      -1.963   2.402   1.852  0.00  0.00    +0.064 C 
ATOM     21  C   UNL     1      -1.842  -2.557   2.904  0.00  0.00    +0.064 C 
BRANCH  15  27
ATOM     22  C   UNL     1      -0.155  -0.591   0.441  0.00  0.00    -0.024 A 
ATOM     23  C   UNL     1       1.125  -0.664  -0.071  0.00  0.00    +0.005 A 
ATOM     24  C   UNL     1       2.208  -0.322   0.717  0.00  0.00    +0.000 A 
ATOM     25  C   UNL     1       2.013   0.095   2.022  0.00  0.00    +0.002 A 
ATOM     26  C   UNL     1       0.735   0.170   2.540  0.00  0.00    +0.026 A 
ATOM     27  C   UNL     1      -0.355  -0.169   1.749  0.00  0.00    +0.050 A 
BRANCH  22  29
ATOM     28  C   UNL     1      -1.927   0.299  -1.047  0.00  0.00    +0.009 C 
ATOM     29  C   UNL     1      -1.335  -0.964  -0.419  0.00  0.00    +0.034 C 
ENDBRANCH  22  29
ENDBRANCH  15  27
ENDBRANCH   1  18
BRANCH  12  30
ATOM     30  S   UNL     1      -9.273   3.315   5.357  0.00  0.00    +0.029 S 
ATOM     31  O   UNL     1     -10.077   3.221   6.525  0.00  0.00    -0.167 OA
ATOM     32  O   UNL     1      -7.897   3.657   5.450  0.00  0.00    -0.167 OA
BRANCH  30  33
ATOM     33  C   UNL     1     -10.093   4.355   4.117  0.00  0.00    +0.172 C 
ATOM     34  C   UNL     1     -10.002   5.822   4.542  0.00  0.00    +0.028 C 
ENDBRANCH  30  33
ENDBRANCH  12  30
TORSDOF 5
