REMARK  Name = ZINC66121929
REMARK  9 active torsions:
REMARK  status: ('A' for Active; 'I' for Inactive)
REMARK    1  A    between atoms: C_1  and  C_2
REMARK    2  A    between atoms: C_2  and  C_4
REMARK    3  A    between atoms: C_2  and  N_12
REMARK    4  A    between atoms: N_12  and  C_13
REMARK    5  A    between atoms: C_13  and  N_15
REMARK    6  A    between atoms: N_15  and  N_16
REMARK    7  A    between atoms: C_17  and  C_19
REMARK    8  A    between atoms: C_21  and  C_25
REMARK    9  A    between atoms: C_25  and  C_27
REMARK                            x       y       z     vdW  Elec       q    Type
REMARK                         _______ _______ _______ _____ _____    ______ ____
ROOT
ATOM      1  N   UNL     1       0.435  -1.155   3.467  0.00  0.00    -0.246 N 
ATOM      2  H   UNL     1      -0.108  -1.305   4.256  0.00  0.00    +0.172 HD
ENDROOT
BRANCH   1   3
ATOM      3  N   UNL     1       1.813  -1.409   3.507  0.00  0.00    -0.230 N 
ATOM      4  C   UNL     1       2.382  -1.861   4.642  0.00  0.00    +0.276 C 
ATOM      5  O   UNL     1       1.700  -2.049   5.631  0.00  0.00    -0.267 OA
ATOM      6  H   UNL     1       2.356  -1.259   2.717  0.00  0.00    +0.173 HD
BRANCH   4   7
ATOM      7  C   UNL     1       3.826  -2.127   4.683  0.00  0.00    +0.104 A 
ATOM      8  C   UNL     1       4.520  -2.588   5.761  0.00  0.00    +0.043 A 
ATOM      9  C   UNL     1       5.874  -2.699   5.363  0.00  0.00    +0.035 A 
ATOM     10  C   UNL     1       5.942  -2.293   4.039  0.00  0.00    +0.094 A 
ATOM     11  N   UNL     1       4.707  -1.957   3.637  0.00  0.00    -0.356 N 
ATOM     12  H   UNL     1       4.472  -1.641   2.751  0.00  0.00    +0.165 HD
BRANCH   9  13
ATOM     13  C   UNL     1       6.993  -3.157   6.193  0.00  0.00    +0.162 C 
ATOM     14  O   UNL     1       6.799  -3.486   7.345  0.00  0.00    -0.292 OA
ATOM     15  C   UNL     1       8.384  -3.218   5.616  0.00  0.00    +0.091 C 
ENDBRANCH   9  13
ENDBRANCH   4   7
ENDBRANCH   1   3
BRANCH   1  16
ATOM     16  C   UNL     1      -0.134  -0.703   2.332  0.00  0.00    +0.147 C 
ATOM     17  S   UNL     1      -1.817  -0.394   2.284  0.00  0.00    -0.017 S 
BRANCH  16  18
ATOM     18  N   UNL     1       0.621  -0.495   1.236  0.00  0.00    -0.319 N 
ATOM     19  H   UNL     1       1.575  -0.671   1.263  0.00  0.00    +0.148 HD
BRANCH  18  21
ATOM     20  C   UNL     1      -0.042   1.525   0.027  0.00  0.00    +0.033 C 
ATOM     21  C   UNL     1       0.002  -0.004   0.002  0.00  0.00    +0.101 C 
BRANCH  21  22
ATOM     22  C   UNL     1       0.811  -0.464  -1.184  0.00  0.00    -0.009 A 
ATOM     23  C   UNL     1       2.163  -0.712  -1.043  0.00  0.00    +0.008 A 
ATOM     24  C   UNL     1       2.906  -1.134  -2.130  0.00  0.00    +0.020 A 
ATOM     25  C   UNL     1       2.295  -1.308  -3.359  0.00  0.00    +0.042 A 
ATOM     26  C   UNL     1       0.942  -1.060  -3.501  0.00  0.00    +0.040 A 
ATOM     27  C   UNL     1       0.198  -0.643  -2.411  0.00  0.00    +0.047 A 
ATOM     28 CL   UNL     1      -1.502  -0.337  -2.586  0.00  0.00    -0.083 Cl
ATOM     29 CL   UNL     1       3.228  -1.837  -4.724  0.00  0.00    -0.083 Cl
ENDBRANCH  21  22
ENDBRANCH  18  21
ENDBRANCH  16  18
ENDBRANCH   1  16
TORSDOF 7
