REMARK  Name = ZINC05580201
REMARK  7 active torsions:
REMARK  status: ('A' for Active; 'I' for Inactive)
REMARK    1  A    between atoms: C_1  and  C_2
REMARK    2  A    between atoms: C_2  and  C_3
REMARK    3  A    between atoms: C_3  and  C_5
REMARK    4  A    between atoms: C_3  and  S_19
REMARK    5  A    between atoms: C_10  and  C_13
REMARK    6  A    between atoms: S_19  and  C_20
REMARK    7  A    between atoms: C_26  and  N_28
REMARK                            x       y       z     vdW  Elec       q    Type
REMARK                         _______ _______ _______ _____ _____    ______ ____
ROOT
ATOM      1  C   UNL     1      -1.300   2.040  -0.017  0.00  0.00    +0.140 C 
ENDROOT
BRANCH   1   2
ATOM      2  C   UNL     1      -0.030   1.228   0.001  0.00  0.00    +0.232 C 
ATOM      3  O   UNL     1       1.047   1.787   0.003  0.00  0.00    -0.274 OA
ATOM      4  N   UNL     1      -0.091  -0.118   0.009  0.00  0.00    -0.264 N 
ATOM      5  C   UNL     1       1.080  -0.866   0.020  0.00  0.00    +0.165 A 
ATOM      6  N   UNL     1       1.233  -2.177   0.029  0.00  0.00    -0.225 NA
ATOM      7  C   UNL     1       2.437  -2.729   0.038  0.00  0.00    +0.080 A 
ATOM      8  C   UNL     1       3.543  -1.925   0.039  0.00  0.00    +0.076 A 
ATOM      9  S   UNL     1       2.778  -0.309   0.017  0.00  0.00    -0.060 S 
ATOM     10  H   UNL     1      -0.952  -0.565   0.008  0.00  0.00    +0.157 HD
BRANCH   7  11
ATOM     11  C   UNL     1       2.584  -4.205   0.049  0.00  0.00    +0.001 A 
ATOM     12  C   UNL     1       3.853  -4.781   0.053  0.00  0.00    +0.010 A 
ATOM     13  C   UNL     1       3.984  -6.155   0.069  0.00  0.00    +0.001 A 
ATOM     14  C   UNL     1       2.859  -6.960   0.067  0.00  0.00    +0.000 A 
ATOM     15  C   UNL     1       1.597  -6.393   0.057  0.00  0.00    +0.001 A 
ATOM     16  C   UNL     1       1.454  -5.021   0.048  0.00  0.00    +0.010 A 
ENDBRANCH   7  11
ENDBRANCH   1   2
BRANCH   1  18
ATOM     17  C   UNL     1      -3.210   2.796  -1.438  0.00  0.00    +0.005 C 
ATOM     18  C   UNL     1      -1.850   2.095  -1.443  0.00  0.00    +0.020 C 
ENDBRANCH   1  18
BRANCH   1  19
ATOM     19  S   UNL     1      -0.950   3.720   0.560  0.00  0.00    -0.075 S 
BRANCH  19  20
ATOM     20  C   UNL     1      -0.595   3.394   2.255  0.00  0.00    +0.171 A 
ATOM     21  N   UNL     1      -0.349   4.436   3.097  0.00  0.00    -0.302 N 
ATOM     22  H   UNL     1      -0.370   5.346   2.761  0.00  0.00    +0.171 HD
ATOM     23  C   UNL     1      -0.076   4.205   4.398  0.00  0.00    +0.254 A 
ATOM     24  O   UNL     1       0.147   5.133   5.160  0.00  0.00    -0.268 OA
ATOM     25  C   UNL     1      -0.051   2.886   4.859  0.00  0.00    +0.113 A 
ATOM     26  C   UNL     1      -0.309   1.860   3.961  0.00  0.00    +0.124 A 
ATOM     27  N   UNL     1      -0.579   2.149   2.683  0.00  0.00    -0.209 NA
BRANCH  26  28
ATOM     28  N   UNL     1      -0.292   0.546   4.385  0.00  0.00    -0.343 N 
ATOM     29  H   UNL     1      -0.099   0.339   5.313  0.00  0.00    +0.144 HD
ATOM     30  H   UNL     1      -0.472  -0.169   3.756  0.00  0.00    +0.144 HD
ENDBRANCH  26  28
ENDBRANCH  19  20
ENDBRANCH   1  19
TORSDOF 6
