REMARK  Name = ZINC20207124
REMARK  10 active torsions:
REMARK  status: ('A' for Active; 'I' for Inactive)
REMARK    1  A    between atoms: C_1  and  C_2
REMARK    2  A    between atoms: C_5  and  N_8
REMARK    3  A    between atoms: C_9  and  C_33
REMARK    4  A    between atoms: C_11  and  C_14
REMARK    5  A    between atoms: C_12  and  C_13
REMARK    6  A    between atoms: C_25  and  S_26
REMARK    7  A    between atoms: S_26  and  C_29
REMARK    8  A    between atoms: C_29  and  C_30
REMARK    9  A    between atoms: C_30  and  C_31
REMARK   10  A    between atoms: C_30  and  C_32
REMARK                            x       y       z     vdW  Elec       q    Type
REMARK                         _______ _______ _______ _____ _____    ______ ____
ROOT
ATOM      1  C   UNL     1       0.895  -7.811  -0.040  0.00  0.00    +0.026 C 
ATOM      2  C   UNL     1       0.733  -9.169  -0.222  0.00  0.00    +0.078 C 
ATOM      3  C   UNL     1       1.657 -10.162   0.395  0.00  0.00    +0.117 C 
ATOM      4  N   UNL     1       2.243  -9.979   1.548  0.00  0.00    -0.386 N 
ATOM      5  N   UNL     1       1.834 -11.318  -0.391  0.00  0.00    -0.203 N 
ATOM      6  C   UNL     1       0.855 -11.648  -1.304  0.00  0.00    +0.183 C 
ATOM      7  N   UNL     1      -0.208 -10.935  -1.603  0.00  0.00    -0.152 NA
ATOM      8  C   UNL     1      -0.375  -9.722  -1.038  0.00  0.00    +0.273 C 
ATOM      9  O   UNL     1      -1.409  -9.093  -1.196  0.00  0.00    -0.268 OA
ATOM     10  S   UNL     1       1.373 -13.112  -1.908  0.00  0.00    +0.049 S 
ATOM     11  N   UNL     1       2.837 -13.236  -1.101  0.00  0.00    -0.174 NA
ATOM     12  C   UNL     1       2.879 -12.178  -0.351  0.00  0.00    +0.257 C 
ATOM     13  H   UNL     1       2.155  -9.129   2.007  0.00  0.00    +0.157 HD
ATOM     14  H   UNL     1       2.765 -10.693   1.946  0.00  0.00    +0.157 HD
ENDROOT
BRANCH   1  18
ATOM     15  N   UNL     1      -1.141  -5.112  -1.369  0.00  0.00    -0.317 N 
ATOM     16  C   UNL     1      -1.073  -5.903  -2.483  0.00  0.00    +0.022 A 
ATOM     17  C   UNL     1      -0.341  -6.995  -2.206  0.00  0.00    +0.031 A 
ATOM     18  C   UNL     1       0.079  -6.869  -0.803  0.00  0.00    -0.003 A 
ATOM     19  C   UNL     1      -0.453  -5.672  -0.353  0.00  0.00    +0.028 A 
ATOM     20  C   UNL     1      -0.293  -5.096   1.030  0.00  0.00    +0.064 C 
ATOM     21  C   UNL     1      -1.718  -5.599  -3.810  0.00  0.00    +0.064 C 
BRANCH  15  26
ATOM     22  C   UNL     1      -3.910  -0.167  -1.073  0.00  0.00    +0.044 C 
ATOM     23  C   UNL     1      -3.174  -1.480  -1.152  0.00  0.00    -0.050 A 
ATOM     24  C   UNL     1      -2.083  -1.611  -1.991  0.00  0.00    +0.005 A 
ATOM     25  C   UNL     1      -1.408  -2.814  -2.065  0.00  0.00    +0.026 A 
ATOM     26  C   UNL     1      -1.824  -3.891  -1.296  0.00  0.00    +0.047 A 
ATOM     27  C   UNL     1      -2.920  -3.757  -0.453  0.00  0.00    +0.026 A 
ATOM     28  C   UNL     1      -3.589  -2.550  -0.380  0.00  0.00    +0.005 A 
ENDBRANCH  15  26
ENDBRANCH   1  18
BRANCH  12  29
ATOM     29  S   UNL     1       4.263 -11.869   0.695  0.00  0.00    +0.029 S 
ATOM     30  O   UNL     1       5.328 -12.609   0.115  0.00  0.00    -0.167 OA
ATOM     31  O   UNL     1       4.333 -10.453   0.792  0.00  0.00    -0.167 OA
BRANCH  29  32
ATOM     32  C   UNL     1       3.805 -12.583   2.298  0.00  0.00    +0.178 C 
BRANCH  32  33
ATOM     33  C   UNL     1       4.993 -12.489   3.257  0.00  0.00    +0.004 C 
ATOM     34  C   UNL     1       5.302 -11.018   3.543  0.00  0.00    +0.009 C 
ATOM     35  C   UNL     1       4.650 -13.202   4.566  0.00  0.00    +0.009 C 
ENDBRANCH  32  33
ENDBRANCH  29  32
ENDBRANCH  12  29
TORSDOF 5
