REMARK  Name = ZINC08438644
REMARK  9 active torsions:
REMARK  status: ('A' for Active; 'I' for Inactive)
REMARK    1  A    between atoms: C_3  and  O_32
REMARK    2  A    between atoms: C_6  and  C_7
REMARK    3  A    between atoms: C_9  and  C_23
REMARK    4  A    between atoms: C_10  and  O_22
REMARK    5  A    between atoms: N_13  and  C_14
REMARK    6  A    between atoms: C_14  and  C_15
REMARK    7  A    between atoms: C_15  and  C_16
REMARK    8  A    between atoms: C_16  and  N_57
REMARK    9  A    between atoms: C_23  and  C_25
REMARK                            x       y       z     vdW  Elec       q    Type
REMARK                         _______ _______ _______ _____ _____    ______ ____
ROOT
ATOM      1  C   UNL     1      -1.269   3.516   0.175  0.00  0.00    +0.144 C 
ATOM      2  C   UNL     1      -1.501   2.027   0.071  0.00  0.00    +0.071 C 
ATOM      3  C   UNL     1      -2.816   1.819   0.315  0.00  0.00    +0.188 C 
ATOM      4  C   UNL     1      -3.471   3.116   0.588  0.00  0.00    +0.282 C 
ATOM      5  O   UNL     1      -4.649   3.262   0.846  0.00  0.00    -0.267 OA
ATOM      6  N   UNL     1      -2.570   4.111   0.504  0.00  0.00    -0.284 N 
ENDROOT
BRANCH   1  12
ATOM      7  C   UNL     1      -1.624   4.126  -2.226  0.00  0.00    +0.009 A 
ATOM      8  C   UNL     1      -1.170   4.626  -3.432  0.00  0.00    +0.046 A 
ATOM      9  C   UNL     1       0.146   5.047  -3.556  0.00  0.00    +0.117 A 
ATOM     10  C   UNL     1       1.002   4.970  -2.467  0.00  0.00    +0.046 A 
ATOM     11  C   UNL     1       0.542   4.475  -1.262  0.00  0.00    +0.009 A 
ATOM     12  C   UNL     1      -0.770   4.056  -1.141  0.00  0.00    -0.022 A 
BRANCH   9  13
ATOM     13  O   UNL     1       0.596   5.534  -4.742  0.00  0.00    -0.507 OA
ATOM     14  H   UNL     1       0.964   4.860  -5.330  0.00  0.00    +0.292 HD
ENDBRANCH   9  13
ENDBRANCH   1  12
BRANCH   3  15
ATOM     15  O   UNL     1      -3.433   0.615   0.312  0.00  0.00    -0.502 OA
ATOM     16  H   UNL     1      -4.403   0.737   0.522  0.00  0.00    +0.292 HD
ENDBRANCH   3  15
BRANCH   2  17
ATOM     17  C   UNL     1      -0.497   1.005  -0.241  0.00  0.00    +0.195 C 
ATOM     18  O   UNL     1      -0.573   0.375  -1.279  0.00  0.00    -0.287 OA
BRANCH  17  19
ATOM     19  C   UNL     1       0.610   0.745   0.703  0.00  0.00    +0.022 A 
ATOM     20  C   UNL     1       0.738   1.512   1.863  0.00  0.00    +0.013 A 
ATOM     21  C   UNL     1       1.769   1.260   2.743  0.00  0.00    +0.021 A 
ATOM     22  C   UNL     1       2.684   0.256   2.472  0.00  0.00    +0.041 A 
ATOM     23  C   UNL     1       2.566  -0.505   1.320  0.00  0.00    +0.021 A 
ATOM     24  C   UNL     1       1.536  -0.267   0.436  0.00  0.00    +0.013 A 
ATOM     25 CL   UNL     1       3.985  -0.050   3.580  0.00  0.00    -0.084 Cl
ENDBRANCH  17  19
ENDBRANCH   2  17
BRANCH   6  26
ATOM     26  C   UNL     1      -2.839   5.537   0.705  0.00  0.00    +0.107 C 
BRANCH  26  27
ATOM     27  C   UNL     1      -3.223   6.177  -0.631  0.00  0.00    +0.000 C 
BRANCH  27  28
ATOM     28  C   UNL     1      -3.504   7.666  -0.421  0.00  0.00    -0.077 C 
BRANCH  28  34
ATOM     29  C   UNL     1      -2.736   8.274  -2.636  0.00  0.00    -0.050 C 
ATOM     30  C   UNL     1      -3.180   8.867  -3.976  0.00  0.00    +0.141 C 
ATOM     31  O   UNL     1      -3.697  10.184  -3.761  0.00  0.00    -0.383 OA
ATOM     32  C   UNL     1      -4.805  10.227  -2.858  0.00  0.00    +0.141 C 
ATOM     33  C   UNL     1      -4.378   9.647  -1.507  0.00  0.00    -0.050 C 
ATOM     34  N   UNL     1      -3.892   8.267  -1.716  0.00  0.00    +0.383 N 
ATOM     35  H   UNL     1      -4.646   7.706  -2.131  0.00  0.00    -0.082 HD
ENDBRANCH  28  34
ENDBRANCH  27  28
ENDBRANCH  26  27
ENDBRANCH   6  26
TORSDOF 9
