REMARK  Name = ZINC33038446
REMARK  10 active torsions:
REMARK  status: ('A' for Active; 'I' for Inactive)
REMARK    1  A    between atoms: C_1  and  C_2
REMARK    2  A    between atoms: C_2  and  C_3
REMARK    3  A    between atoms: C_2  and  N_4
REMARK    4  A    between atoms: N_8  and  S_10
REMARK    5  A    between atoms: S_10  and  C_13
REMARK    6  A    between atoms: C_16  and  C_19
REMARK    7  A    between atoms: C_19  and  C_21
REMARK    8  A    between atoms: N_24  and  C_27
REMARK    9  A    between atoms: C_27  and  C_28
REMARK   10  A    between atoms: C_27  and  C_29
REMARK                            x       y       z     vdW  Elec       q    Type
REMARK                         _______ _______ _______ _____ _____    ______ ____
ROOT
ATOM      1  N   UNL     1       1.852  -1.664  -0.024  0.00  0.00    -0.274 N 
ATOM      2  C   UNL     1       1.243  -0.410  -0.012  0.00  0.00    +0.173 A 
ATOM      3  C   UNL     1       2.074   0.744  -0.014  0.00  0.00    +0.103 A 
ATOM      4  C   UNL     1       1.249   1.844   0.000  0.00  0.00    +0.151 A 
ATOM      5  N   UNL     1      -0.017   1.397   0.010  0.00  0.00    -0.134 N 
ATOM      6  N   UNL     1       0.002  -0.004   0.002  0.00  0.00    -0.131 NA
ATOM      7  C   UNL     1       3.531   0.549  -0.028  0.00  0.00    +0.268 A 
ATOM      8  O   UNL     1       4.287   1.502  -0.031  0.00  0.00    -0.267 OA
ATOM      9  N   UNL     1       4.012  -0.713  -0.039  0.00  0.00    -0.258 N 
ATOM     10  C   UNL     1       3.191  -1.774  -0.037  0.00  0.00    +0.334 A 
ATOM     11  O   UNL     1       3.682  -2.887  -0.048  0.00  0.00    -0.246 OA
ENDROOT
BRANCH   1  13
ATOM     12  C   UNL     1       1.320  -3.694  -1.279  0.00  0.00    +0.031 C 
ATOM     13  C   UNL     1       1.025  -2.873  -0.023  0.00  0.00    +0.088 C 
ATOM     14  C   UNL     1       1.343  -3.707   1.219  0.00  0.00    +0.031 C 
ENDBRANCH   1  13
BRANCH   5  15
ATOM     15  S   UNL     1      -1.375   2.343   0.022  0.00  0.00    +0.099 S 
ATOM     16  O   UNL     1      -1.000   3.600  -0.525  0.00  0.00    -0.146 OA
ATOM     17  O   UNL     1      -2.424   1.556  -0.528  0.00  0.00    -0.146 OA
BRANCH  15  18
ATOM     18  C   UNL     1      -1.794   2.632   1.708  0.00  0.00    +0.113 A 
ATOM     19  C   UNL     1      -2.649   1.764   2.364  0.00  0.00    +0.030 A 
ATOM     20  C   UNL     1      -2.977   1.980   3.686  0.00  0.00    +0.013 A 
ATOM     21  C   UNL     1      -2.453   3.088   4.360  0.00  0.00    +0.017 A 
ATOM     22  C   UNL     1      -1.594   3.964   3.689  0.00  0.00    +0.013 A 
ATOM     23  C   UNL     1      -1.271   3.731   2.369  0.00  0.00    +0.030 A 
BRANCH  21  24
ATOM     24  C   UNL     1      -2.802   3.329   5.769  0.00  0.00    +0.160 C 
ATOM     25  O   UNL     1      -2.345   4.290   6.351  0.00  0.00    -0.292 OA
ATOM     26  C   UNL     1      -3.728   2.382   6.489  0.00  0.00    +0.091 C 
ENDBRANCH  21  24
ENDBRANCH  15  18
ENDBRANCH   5  15
BRANCH   9  27
ATOM     27  C   UNL     1       5.461  -0.927  -0.053  0.00  0.00    +0.089 C 
ATOM     28  C   UNL     1       6.060  -0.282  -1.305  0.00  0.00    +0.031 C 
ATOM     29  C   UNL     1       6.082  -0.295   1.194  0.00  0.00    +0.031 C 
ENDBRANCH   9  27
TORSDOF 5
