REMARK  Name = ZINC13388911
REMARK  5 active torsions:
REMARK  status: ('A' for Active; 'I' for Inactive)
REMARK    1  A    between atoms: C_5  and  N_7
REMARK    2  A    between atoms: N_7  and  S_8
REMARK    3  A    between atoms: S_8  and  C_11
REMARK    4  A    between atoms: C_24  and  C_27
REMARK    5  A    between atoms: C_31  and  N_33
REMARK                            x       y       z     vdW  Elec       q    Type
REMARK                         _______ _______ _______ _____ _____    ______ ____
ROOT
ATOM      1  C   UNL     1      -0.042   0.082  -4.791  0.00  0.00    +0.109 A 
ATOM      2  C   UNL     1       1.315  -0.187  -4.769  0.00  0.00    +0.030 A 
ATOM      3  C   UNL     1       2.040  -0.000  -3.610  0.00  0.00    +0.025 A 
ATOM      4  C   UNL     1       1.415   0.461  -2.458  0.00  0.00    +0.031 A 
ATOM      5  C   UNL     1       0.044   0.744  -2.491  0.00  0.00    -0.018 A 
ATOM      6  C   UNL     1      -0.672   0.547  -3.651  0.00  0.00    +0.034 A 
ATOM      7  C   UNL     1      -0.576   1.261  -1.253  0.00  0.00    +0.049 C 
ATOM      8  C   UNL     1      -2.018   1.048  -0.966  0.00  0.00    -0.023 C 
ATOM      9  C   UNL     1      -2.179   0.959   0.349  0.00  0.00    -0.030 C 
ATOM     10  C   UNL     1      -0.804   1.073   1.071  0.00  0.00    +0.033 C 
ATOM     11  C   UNL     1       0.133   0.584  -0.042  0.00  0.00    +0.029 C 
ATOM     12  C   UNL     1       1.549   1.132  -0.044  0.00  0.00    +0.105 C 
ATOM     13  N   UNL     1       2.168   0.630  -1.290  0.00  0.00    -0.336 N 
ATOM     14  H   UNL     1       3.114   0.414  -1.298  0.00  0.00    +0.147 HD
ENDROOT
BRANCH  12  15
ATOM     15  C   UNL     1       2.307   0.624   1.155  0.00  0.00    -0.025 A 
ATOM     16  C   UNL     1       2.841  -0.651   1.145  0.00  0.00    +0.005 A 
ATOM     17  C   UNL     1       3.541  -1.116   2.243  0.00  0.00    +0.003 A 
ATOM     18  C   UNL     1       3.695  -0.310   3.356  0.00  0.00    +0.033 A 
ATOM     19  C   UNL     1       3.156   0.963   3.368  0.00  0.00    +0.127 A 
ATOM     20  C   UNL     1       2.462   1.430   2.267  0.00  0.00    +0.038 A 
BRANCH  19  21
ATOM     21  N   UNL     1       3.322   1.826   4.559  0.00  0.00    +0.056 N 
ATOM     22  O   UNL     1       2.847   2.947   4.569  0.00  0.00    -0.126 OA
ATOM     23  O   UNL     1       3.934   1.415   5.528  0.00  0.00    -0.126 OA
ENDBRANCH  19  21
ENDBRANCH  12  15
BRANCH   1  24
ATOM     24  S   UNL     1      -0.966  -0.167  -6.270  0.00  0.00    +0.072 S 
ATOM     25  O   UNL     1      -0.251  -1.124  -7.039  0.00  0.00    -0.150 OA
ATOM     26  O   UNL     1      -2.318  -0.361  -5.877  0.00  0.00    -0.150 OA
BRANCH  24  27
ATOM     27  N   UNL     1      -0.920   1.253  -7.121  0.00  0.00    -0.213 N 
ATOM     28  H   UNL     1      -1.744   1.722  -7.327  0.00  0.00    +0.174 HD
BRANCH  27  33
ATOM     29  C   UNL     1       2.537   1.443  -8.358  0.00  0.00    +0.002 A 
ATOM     30  C   UNL     1       2.733   2.812  -8.378  0.00  0.00    +0.003 A 
ATOM     31  C   UNL     1       1.720   3.666  -7.983  0.00  0.00    +0.040 A 
ATOM     32  C   UNL     1       0.504   3.153  -7.570  0.00  0.00    +0.146 A 
ATOM     33  C   UNL     1       0.306   1.776  -7.543  0.00  0.00    +0.083 A 
ATOM     34  C   UNL     1       1.326   0.924  -7.941  0.00  0.00    +0.027 A 
ATOM     35  F   UNL     1      -0.488   3.987  -7.189  0.00  0.00    -0.204 F 
ENDBRANCH  27  33
ENDBRANCH  24  27
ENDBRANCH   1  24
TORSDOF 5
