REMARK  Name = ZINC02914552
REMARK  4 active torsions:
REMARK  status: ('A' for Active; 'I' for Inactive)
REMARK    1  A    between atoms: C_1  and  O_2
REMARK    2  A    between atoms: O_2  and  C_3
REMARK    3  A    between atoms: C_7  and  C_9
REMARK    4  A    between atoms: C_12  and  C_20
REMARK                            x       y       z     vdW  Elec       q    Type
REMARK                         _______ _______ _______ _____ _____    ______ ____
ROOT
ATOM      1  C   UNL     1       1.325  -4.106  -2.289  0.00  0.00    +0.143 C 
ATOM      2  C   UNL     1       2.788  -4.565  -2.332  0.00  0.00    +0.058 C 
ATOM      3  C   UNL     1       2.853  -6.054  -2.690  0.00  0.00    +0.106 C 
ATOM      4  N   UNL     1       2.283  -6.239  -4.039  0.00  0.00    -0.307 N 
ATOM      5  C   UNL     1       1.111  -5.545  -4.311  0.00  0.00    +0.215 A 
ATOM      6  N   UNL     1       0.651  -4.555  -3.506  0.00  0.00    -0.226 N 
ATOM      7  N   UNL     1      -0.536  -4.096  -4.077  0.00  0.00    -0.156 NA
ATOM      8  C   UNL     1      -0.733  -4.803  -5.162  0.00  0.00    +0.247 A 
ATOM      9  N   UNL     1       0.273  -5.681  -5.303  0.00  0.00    -0.202 NA
ATOM     10  H   UNL     1       2.703  -6.813  -4.698  0.00  0.00    +0.149 HD
ENDROOT
BRANCH   3  11
ATOM     11  C   UNL     1       2.058  -6.851  -1.688  0.00  0.00    -0.026 A 
ATOM     12  C   UNL     1       0.682  -6.926  -1.800  0.00  0.00    +0.005 A 
ATOM     13  C   UNL     1      -0.048  -7.656  -0.880  0.00  0.00    +0.001 A 
ATOM     14  C   UNL     1       0.598  -8.312   0.151  0.00  0.00    +0.015 A 
ATOM     15  C   UNL     1       1.975  -8.237   0.264  0.00  0.00    +0.018 A 
ATOM     16  C   UNL     1       2.705  -7.510  -0.660  0.00  0.00    +0.020 A 
ATOM     17 BR   UNL     1       2.859  -9.132   1.675  0.00  0.00    -0.050 Br
ENDBRANCH   3  11
BRANCH   1  22
ATOM     18  C   UNL     1       0.606  -0.607  -1.056  0.00  0.00    +0.120 A 
ATOM     19  C   UNL     1       1.173   0.161  -2.063  0.00  0.00    +0.045 A 
ATOM     20  C   UNL     1       1.786  -0.455  -3.136  0.00  0.00    +0.004 A 
ATOM     21  C   UNL     1       1.836  -1.835  -3.208  0.00  0.00    +0.006 A 
ATOM     22  C   UNL     1       1.271  -2.602  -2.207  0.00  0.00    -0.019 A 
ATOM     23  C   UNL     1       0.661  -1.991  -1.128  0.00  0.00    +0.051 A 
BRANCH  18  25
ATOM     24  C   UNL     1      -0.017   1.425   0.010  0.00  0.00    +0.277 C 
ATOM     25  O   UNL     1       0.002  -0.004   0.002  0.00  0.00    -0.495 OA
ENDBRANCH  18  25
ENDBRANCH   1  22
TORSDOF 3
