REMARK  Name = ZINC07982981
REMARK  7 active torsions:
REMARK  status: ('A' for Active; 'I' for Inactive)
REMARK    1  A    between atoms: C_1  and  C_2
REMARK    2  A    between atoms: C_5  and  C_28
REMARK    3  A    between atoms: C_6  and  S_8
REMARK    4  A    between atoms: S_8  and  N_11
REMARK    5  A    between atoms: N_14  and  C_17
REMARK    6  A    between atoms: C_20  and  N_25
REMARK    7  A    between atoms: C_22  and  C_23
REMARK                            x       y       z     vdW  Elec       q    Type
REMARK                         _______ _______ _______ _____ _____    ______ ____
ROOT
ATOM      1  N   UNL     1       3.375   3.463   1.868  0.00  0.00    -0.174 NA
ATOM      2  C   UNL     1       3.349   4.248   3.112  0.00  0.00    +0.128 C 
ATOM      3  C   UNL     1       2.837   3.341   4.243  0.00  0.00    +0.122 C 
ATOM      4  N   UNL     1       3.656   2.123   4.295  0.00  0.00    -0.326 N 
ATOM      5  C   UNL     1       3.526   1.341   3.058  0.00  0.00    +0.122 C 
ATOM      6  C   UNL     1       4.061   2.162   1.880  0.00  0.00    +0.128 C 
ENDROOT
BRANCH   4   7
ATOM      7  C   UNL     1       3.333   1.353   5.407  0.00  0.00    +0.047 A 
ATOM      8  C   UNL     1       2.201   1.648   6.155  0.00  0.00    +0.026 A 
ATOM      9  C   UNL     1       1.882   0.882   7.258  0.00  0.00    +0.034 A 
ATOM     10  C   UNL     1       2.686  -0.185   7.628  0.00  0.00    +0.128 A 
ATOM     11  C   UNL     1       3.813  -0.492   6.898  0.00  0.00    +0.053 A 
ATOM     12  C   UNL     1       4.147   0.271   5.776  0.00  0.00    +0.075 A 
BRANCH  10  13
ATOM     13  N   UNL     1       2.331  -0.998   8.813  0.00  0.00    +0.056 N 
ATOM     14  O   UNL     1       1.335  -0.729   9.460  0.00  0.00    -0.126 OA
ATOM     15  O   UNL     1       3.035  -1.936   9.140  0.00  0.00    -0.126 OA
ENDBRANCH  10  13
BRANCH  12  16
ATOM     16  C   UNL     1       5.314  -0.047   5.010  0.00  0.00    +0.101 C 
ATOM     17  N   UNL     1       6.240  -0.299   4.402  0.00  0.00    -0.191 NA
ENDBRANCH  12  16
ENDBRANCH   4   7
BRANCH   1  18
ATOM     18  S   UNL     1       2.657   4.033   0.489  0.00  0.00    +0.061 S 
ATOM     19  O   UNL     1       3.376   3.477  -0.603  0.00  0.00    -0.153 OA
ATOM     20  O   UNL     1       2.498   5.434   0.662  0.00  0.00    -0.153 OA
BRANCH  18  26
ATOM     21  C   UNL     1      -0.916   0.893  -1.678  0.00  0.00    +0.044 C 
ATOM     22  C   UNL     1      -0.562   1.892  -0.607  0.00  0.00    -0.049 A 
ATOM     23  C   UNL     1      -1.508   2.266   0.329  0.00  0.00    +0.004 A 
ATOM     24  C   UNL     1      -1.185   3.187   1.308  0.00  0.00    +0.005 A 
ATOM     25  C   UNL     1       0.087   3.725   1.358  0.00  0.00    -0.024 A 
ATOM     26  C   UNL     1       1.035   3.347   0.425  0.00  0.00    +0.109 A 
ATOM     27  C   UNL     1       0.710   2.430  -0.557  0.00  0.00    +0.032 A 
ATOM     28  C   UNL     1       0.442   4.723   2.430  0.00  0.00    +0.046 C 
ENDBRANCH  18  26
ENDBRANCH   1  18
TORSDOF 5
