REMARK  Name = ZINC36641567
REMARK  10 active torsions:
REMARK  status: ('A' for Active; 'I' for Inactive)
REMARK    1  A    between atoms: C_1  and  C_2
REMARK    2  A    between atoms: C_2  and  N_3
REMARK    3  A    between atoms: N_3  and  C_4
REMARK    4  A    between atoms: N_3  and  C_6
REMARK    5  A    between atoms: C_4  and  C_5
REMARK    6  A    between atoms: C_6  and  C_7
REMARK    7  A    between atoms: C_7  and  N_8
REMARK    8  A    between atoms: C_18  and  C_20
REMARK    9  A    between atoms: C_24  and  N_27
REMARK   10  A    between atoms: C_25  and  C_26
REMARK                            x       y       z     vdW  Elec       q    Type
REMARK                         _______ _______ _______ _____ _____    ______ ____
ROOT
ATOM      1  N   UNL     1       2.566  -3.847  -0.583  0.00  0.00    -0.248 N 
ATOM      2  C   UNL     1       1.979  -4.694  -1.508  0.00  0.00    +0.168 A 
ATOM      3  N   UNL     1       1.114  -4.408  -2.453  0.00  0.00    -0.224 NA
ATOM      4  C   UNL     1       0.620  -5.343  -3.292  0.00  0.00    +0.080 A 
ATOM      5  C   UNL     1      -0.309  -5.170  -4.344  0.00  0.00    +0.029 A 
ATOM      6  C   UNL     1      -0.709  -6.235  -5.107  0.00  0.00    +0.002 A 
ATOM      7  C   UNL     1      -0.223  -7.514  -4.879  0.00  0.00    +0.001 A 
ATOM      8  C   UNL     1       0.687  -7.721  -3.859  0.00  0.00    +0.017 A 
ATOM      9  C   UNL     1       1.094  -6.660  -3.089  0.00  0.00    +0.041 A 
ATOM     10  S   UNL     1       2.211  -6.453  -1.723  0.00  0.00    -0.052 S 
ATOM     11  C   UNL     1       3.317  -4.355   0.414  0.00  0.00    +0.253 C 
ATOM     12  O   UNL     1       3.767  -3.620   1.271  0.00  0.00    -0.270 OA
ENDROOT
BRANCH  11  13
ATOM     13  C   UNL     1       3.594  -5.806   0.465  0.00  0.00    +0.042 A 
ATOM     14  C   UNL     1       2.572  -6.705   0.777  0.00  0.00    +0.013 A 
ATOM     15  C   UNL     1       2.837  -8.057   0.822  0.00  0.00    +0.003 A 
ATOM     16  C   UNL     1       4.113  -8.525   0.560  0.00  0.00    +0.033 A 
ATOM     17  C   UNL     1       5.131  -7.640   0.250  0.00  0.00    +0.130 A 
ATOM     18  C   UNL     1       4.878  -6.285   0.195  0.00  0.00    -0.008 A 
ATOM     19  C   UNL     1       5.986  -5.323  -0.148  0.00  0.00    +0.047 C 
BRANCH  17  20
ATOM     20  N   UNL     1       6.492  -8.149  -0.028  0.00  0.00    +0.057 N 
ATOM     21  O   UNL     1       6.690  -9.339  -0.100  0.00  0.00    -0.126 OA
ATOM     22  O   UNL     1       7.407  -7.374  -0.184  0.00  0.00    -0.126 OA
ENDBRANCH  17  20
ENDBRANCH  11  13
BRANCH   1  23
ATOM     23  C   UNL     1       2.371  -2.399  -0.688  0.00  0.00    +0.097 C 
BRANCH  23  24
ATOM     24  C   UNL     1       1.131  -1.992   0.109  0.00  0.00    -0.059 C 
BRANCH  24  25
ATOM     25  N   UNL     1       0.935  -0.540   0.004  0.00  0.00    +0.380 N 
ATOM     26  H   UNL     1       1.775  -0.065   0.297  0.00  0.00    -0.082 HD
BRANCH  25  28
ATOM     27  C   UNL     1       0.542   1.335  -1.522  0.00  0.00    -0.017 C 
ATOM     28  C   UNL     1       0.634  -0.187  -1.390  0.00  0.00    -0.082 C 
ENDBRANCH  25  28
BRANCH  25  29
ATOM     29  C   UNL     1      -0.184  -0.133   0.865  0.00  0.00    -0.082 C 
ATOM     30  C   UNL     1       0.177  -0.395   2.328  0.00  0.00    -0.017 C 
ENDBRANCH  25  29
ENDBRANCH  24  25
ENDBRANCH  23  24
ENDBRANCH   1  23
TORSDOF 7
