REMARK  Name = ZINC61522326
REMARK  3 active torsions:
REMARK  status: ('A' for Active; 'I' for Inactive)
REMARK    1  A    between atoms: C_8  and  O_13
REMARK    2  A    between atoms: O_13  and  C_14
REMARK    3  A    between atoms: C_14  and  C_15
REMARK                            x       y       z     vdW  Elec       q    Type
REMARK                         _______ _______ _______ _____ _____    ______ ____
ROOT
ATOM      1  C   UNL     1      -0.016   1.302   0.009  0.00  0.00    +0.245 A 
ATOM      2  N   UNL     1       1.239   1.754  -0.000  0.00  0.00    -0.222 NA
ATOM      3  C   UNL     1       2.074   0.748  -0.014  0.00  0.00    +0.228 A 
ATOM      4  N   UNL     1       1.352  -0.392  -0.013  0.00  0.00    -0.186 N 
ATOM      5  N   UNL     1       0.002  -0.004   0.002  0.00  0.00    -0.151 NA
ATOM      6  C   UNL     1       1.847  -1.694  -0.025  0.00  0.00    +0.260 A 
ATOM      7  N   UNL     1       1.009  -2.723  -0.028  0.00  0.00    -0.157 NA
ATOM      8  C   UNL     1       1.483  -3.963  -0.040  0.00  0.00    +0.324 A 
ATOM      9  N   UNL     1       2.795  -4.171  -0.048  0.00  0.00    -0.164 NA
ATOM     10  C   UNL     1       3.629  -3.143  -0.045  0.00  0.00    +0.230 A 
ATOM     11  N   UNL     1       3.158  -1.907  -0.039  0.00  0.00    -0.180 NA
ATOM     12 CL   UNL     1       5.343  -3.418  -0.056  0.00  0.00    -0.041 Cl
ENDROOT
BRANCH   8  13
ATOM     13  O   UNL     1       0.631  -5.014  -0.042  0.00  0.00    -0.462 OA
BRANCH  13  14
ATOM     14  C   UNL     1       1.211  -6.319  -0.055  0.00  0.00    +0.236 C 
BRANCH  14  15
ATOM     15  C   UNL     1       0.100  -7.371  -0.056  0.00  0.00    +0.027 C 
ATOM     16  C   UNL     1      -0.682  -7.288   1.257  0.00  0.00    +0.007 C 
ATOM     17  C   UNL     1      -1.793  -8.340   1.256  0.00  0.00    +0.000 C 
ATOM     18  C   UNL     1      -1.176  -9.734   1.116  0.00  0.00    +0.000 C 
ATOM     19  C   UNL     1      -0.394  -9.816  -0.196  0.00  0.00    +0.000 C 
ATOM     20  C   UNL     1       0.717  -8.764  -0.195  0.00  0.00    +0.007 C 
ENDBRANCH  14  15
ENDBRANCH  13  14
ENDBRANCH   8  13
TORSDOF 3
