REMARK  Name = ZINC12853663
REMARK  9 active torsions:
REMARK  status: ('A' for Active; 'I' for Inactive)
REMARK    1  A    between atoms: C_1  and  C_2
REMARK    2  A    between atoms: C_2  and  O_3
REMARK    3  A    between atoms: O_3  and  C_4
REMARK    4  A    between atoms: C_6  and  C_13
REMARK    5  A    between atoms: C_9  and  O_10
REMARK    6  A    between atoms: O_10  and  C_11
REMARK    7  A    between atoms: N_15  and  C_16
REMARK    8  A    between atoms: C_19  and  S_22
REMARK    9  A    between atoms: S_22  and  N_25
REMARK                            x       y       z     vdW  Elec       q    Type
REMARK                         _______ _______ _______ _____ _____    ______ ____
ROOT
ATOM      1  C   UNL     1      -0.575  -7.105  -1.388  0.00  0.00    +0.034 A 
ATOM      2  C   UNL     1      -1.131  -6.529  -2.524  0.00  0.00    +0.025 A 
ATOM      3  C   UNL     1      -1.608  -7.333  -3.541  0.00  0.00    +0.031 A 
ATOM      4  C   UNL     1      -1.533  -8.709  -3.429  0.00  0.00    +0.113 A 
ATOM      5  C   UNL     1      -0.980  -9.285  -2.300  0.00  0.00    +0.031 A 
ATOM      6  C   UNL     1      -0.496  -8.487  -1.282  0.00  0.00    +0.025 A 
ENDROOT
BRANCH   1   9
ATOM      7  C   UNL     1       1.000  -6.669   0.340  0.00  0.00    +0.248 C 
ATOM      8  O   UNL     1       1.514  -7.750   0.128  0.00  0.00    -0.270 OA
ATOM      9  N   UNL     1      -0.091  -6.294  -0.357  0.00  0.00    -0.281 N 
ATOM     10  H   UNL     1      -0.541  -5.461  -0.143  0.00  0.00    +0.155 HD
BRANCH   7  13
ATOM     11  C   UNL     1       3.235  -5.306   3.033  0.00  0.00    +0.164 A 
ATOM     12  C   UNL     1       2.703  -6.154   2.081  0.00  0.00    +0.062 A 
ATOM     13  C   UNL     1       1.572  -5.766   1.358  0.00  0.00    +0.042 A 
ATOM     14  C   UNL     1       0.983  -4.523   1.601  0.00  0.00    +0.032 A 
ATOM     15  C   UNL     1       1.518  -3.681   2.553  0.00  0.00    +0.064 A 
ATOM     16  C   UNL     1       2.639  -4.069   3.276  0.00  0.00    +0.175 A 
ATOM     17 BR   UNL     1       0.719  -1.999   2.881  0.00  0.00    -0.046 Br
BRANCH  16  18
ATOM     18  O   UNL     1       3.159  -3.239   4.216  0.00  0.00    -0.490 OA
ATOM     19  C   UNL     1       4.155  -2.310   3.783  0.00  0.00    +0.277 C 
ENDBRANCH  16  18
BRANCH  11  20
ATOM     20  O   UNL     1       4.336  -5.680   3.738  0.00  0.00    -0.489 OA
BRANCH  20  22
ATOM     21  C   UNL     1       6.117  -7.204   4.325  0.00  0.00    +0.048 C 
ATOM     22  C   UNL     1       4.894  -6.960   3.438  0.00  0.00    +0.226 C 
ENDBRANCH  20  22
ENDBRANCH  11  20
ENDBRANCH   7  13
ENDBRANCH   1   9
BRANCH   4  23
ATOM     23  S   UNL     1      -2.144  -9.731  -4.728  0.00  0.00    +0.100 S 
ATOM     24  O   UNL     1      -2.454 -10.988  -4.144  0.00  0.00    -0.146 OA
ATOM     25  O   UNL     1      -3.107  -8.959  -5.433  0.00  0.00    -0.146 OA
BRANCH  23  26
ATOM     26  N   UNL     1      -0.889  -9.993  -5.776  0.00  0.00    -0.118 NA
ATOM     27  C   UNL     1      -1.068 -10.720  -6.830  0.00  0.00    +0.117 C 
ATOM     28  N   UNL     1      -2.317 -11.294  -7.113  0.00  0.00    -0.331 N 
ATOM     29  C   UNL     1      -3.028 -10.789  -8.251  0.00  0.00    +0.102 C 
ATOM     30  C   UNL     1      -2.719 -11.474  -9.592  0.00  0.00    +0.019 C 
ATOM     31  C   UNL     1      -1.199 -11.744  -9.725  0.00  0.00    +0.002 C 
ATOM     32  C   UNL     1      -0.355 -10.613  -9.208  0.00  0.00    +0.008 C 
ATOM     33  C   UNL     1       0.012 -10.965  -7.763  0.00  0.00    +0.073 C 
ATOM     34  H   UNL     1      -2.684 -12.003  -6.561  0.00  0.00    +0.147 HD
ENDBRANCH  23  26
ENDBRANCH   4  23
TORSDOF 7
