REMARK  Name = ZINC28092185
REMARK  8 active torsions:
REMARK  status: ('A' for Active; 'I' for Inactive)
REMARK    1  A    between atoms: C_1  and  C_2
REMARK    2  A    between atoms: C_2  and  C_3
REMARK    3  A    between atoms: C_2  and  C_4
REMARK    4  A    between atoms: C_4  and  C_6
REMARK    5  A    between atoms: C_4  and  N_16
REMARK    6  A    between atoms: N_8  and  C_9
REMARK    7  A    between atoms: C_17  and  C_19
REMARK    8  A    between atoms: C_23  and  N_25
REMARK                            x       y       z     vdW  Elec       q    Type
REMARK                         _______ _______ _______ _____ _____    ______ ____
ROOT
ATOM      1  C   UNL     1      -0.767   1.524   1.234  0.00  0.00    +0.162 C 
ENDROOT
BRANCH   1   2
ATOM      2  C   UNL     1      -1.082   2.992   1.106  0.00  0.00    +0.238 C 
ATOM      3  O   UNL     1      -2.227   3.377   1.209  0.00  0.00    -0.273 OA
ATOM      4  N   UNL     1      -0.091   3.876   0.877  0.00  0.00    -0.284 N 
ATOM      5  H   UNL     1       0.956   3.539   0.867  0.00  0.00    +0.155 HD
BRANCH   4   6
ATOM      6  C   UNL     1      -0.394   5.223   0.652  0.00  0.00    +0.034 A 
ATOM      7  C   UNL     1      -1.454   5.820   1.323  0.00  0.00    +0.023 A 
ATOM      8  C   UNL     1      -1.751   7.150   1.100  0.00  0.00    +0.003 A 
ATOM      9  C   UNL     1      -0.994   7.888   0.208  0.00  0.00    +0.015 A 
ATOM     10  C   UNL     1       0.062   7.298  -0.463  0.00  0.00    +0.020 A 
ATOM     11  C   UNL     1       0.367   5.968  -0.239  0.00  0.00    +0.038 A 
ATOM     12 BR   UNL     1       1.093   8.312  -1.681  0.00  0.00    -0.050 Br
ENDBRANCH   4   6
ENDBRANCH   1   2
BRANCH   1  13
ATOM     13  N   UNL     1      -1.873   0.844   1.913  0.00  0.00    -0.300 N 
ATOM     14  C   UNL     1      -1.649  -0.304   2.583  0.00  0.00    +0.245 C 
ATOM     15  O   UNL     1      -0.529  -0.775   2.624  0.00  0.00    -0.270 OA
ATOM     16  H   UNL     1      -2.886   1.271   1.876  0.00  0.00    +0.150 HD
BRANCH  14  17
ATOM     17  C   UNL     1      -2.765  -0.989   3.268  0.00  0.00    +0.039 A 
ATOM     18  C   UNL     1      -4.051  -0.447   3.228  0.00  0.00    +0.014 A 
ATOM     19  C   UNL     1      -5.089  -1.094   3.864  0.00  0.00    +0.023 A 
ATOM     20  C   UNL     1      -4.856  -2.273   4.552  0.00  0.00    +0.071 A 
ATOM     21  C   UNL     1      -3.581  -2.813   4.601  0.00  0.00    +0.145 A 
ATOM     22  C   UNL     1      -2.536  -2.178   3.963  0.00  0.00    +0.047 A 
ATOM     23 CL   UNL     1      -6.167  -3.079   5.357  0.00  0.00    -0.081 Cl
BRANCH  21  24
ATOM     24  N   UNL     1      -3.341  -4.074   5.338  0.00  0.00    +0.058 N 
ATOM     25  O   UNL     1      -2.220  -4.550   5.381  0.00  0.00    -0.126 OA
ATOM     26  O   UNL     1      -4.263  -4.635   5.901  0.00  0.00    -0.126 OA
ENDBRANCH  21  24
ENDBRANCH  14  17
ENDBRANCH   1  13
BRANCH   1  28
ATOM     27  C   UNL     1      -1.898   0.975  -0.925  0.00  0.00    +0.009 C 
ATOM     28  C   UNL     1      -0.575   0.920  -0.158  0.00  0.00    +0.012 C 
ATOM     29  C   UNL     1      -0.123  -0.536  -0.025  0.00  0.00    +0.009 C 
ENDBRANCH   1  28
TORSDOF 6
