REMARK  Name = ZINC33256519
REMARK  11 active torsions:
REMARK  status: ('A' for Active; 'I' for Inactive)
REMARK    1  A    between atoms: C_1  and  C_2
REMARK    2  A    between atoms: C_7  and  C_8
REMARK    3  A    between atoms: C_8  and  S_9
REMARK    4  A    between atoms: S_9  and  C_10
REMARK    5  A    between atoms: N_23  and  C_24
REMARK    6  A    between atoms: C_24  and  C_25
REMARK    7  A    between atoms: C_25  and  C_26
REMARK    8  A    between atoms: C_26  and  O_27
REMARK    9  A    between atoms: O_27  and  C_28
REMARK   10  A    between atoms: C_28  and  C_29
REMARK   11  A    between atoms: C_28  and  C_30
REMARK                            x       y       z     vdW  Elec       q    Type
REMARK                         _______ _______ _______ _____ _____    ______ ____
ROOT
ATOM      1  C   UNL     1       0.269   5.341   0.027  0.00  0.00    +0.198 A 
ATOM      2  N   UNL     1       1.575   5.453   0.015  0.00  0.00    -0.120 NA
ATOM      3  N   UNL     1       2.120   4.164   0.004  0.00  0.00    -0.109 NA
ATOM      4  C   UNL     1       1.129   3.301   0.009  0.00  0.00    +0.240 A 
ATOM      5  N   UNL     1      -0.041   4.008   0.023  0.00  0.00    -0.256 N 
ATOM      6  C   UNL     1      -1.268   3.348   0.031  0.00  0.00    +0.064 A 
ATOM      7  C   UNL     1      -2.461   4.056   0.045  0.00  0.00    +0.028 A 
ATOM      8  C   UNL     1      -3.663   3.377   0.036  0.00  0.00    +0.022 A 
ATOM      9  C   UNL     1      -3.691   1.991   0.030  0.00  0.00    +0.042 A 
ATOM     10  C   UNL     1      -2.513   1.270   0.021  0.00  0.00    +0.035 A 
ATOM     11  C   UNL     1      -1.294   1.945   0.019  0.00  0.00    +0.065 A 
ATOM     12  C   UNL     1      -0.014   1.212   0.009  0.00  0.00    +0.263 A 
ATOM     13  O   UNL     1       0.002  -0.004   0.002  0.00  0.00    -0.267 OA
ATOM     14  N   UNL     1       1.137   1.914   0.002  0.00  0.00    -0.277 N 
ATOM     15 CL   UNL     1      -5.213   1.157   0.032  0.00  0.00    -0.084 Cl
ENDROOT
BRANCH   1  16
ATOM     16  S   UNL     1      -0.884   6.673   0.044  0.00  0.00    -0.081 S 
BRANCH  16  17
ATOM     17  C   UNL     1       0.159   8.157   0.042  0.00  0.00    +0.112 C 
BRANCH  17  24
ATOM     18  C   UNL     1      -0.655   9.322   2.557  0.00  0.00    +0.044 C 
ATOM     19  C   UNL     1      -1.103   9.943   1.259  0.00  0.00    -0.046 A 
ATOM     20  C   UNL     1      -1.904  11.070   1.272  0.00  0.00    +0.003 A 
ATOM     21  C   UNL     1      -2.315  11.639   0.082  0.00  0.00    +0.000 A 
ATOM     22  C   UNL     1      -1.925  11.082  -1.122  0.00  0.00    +0.000 A 
ATOM     23  C   UNL     1      -1.121   9.958  -1.135  0.00  0.00    +0.005 A 
ATOM     24  C   UNL     1      -0.714   9.386   0.056  0.00  0.00    -0.034 A 
ENDBRANCH  17  24
ENDBRANCH  16  17
ENDBRANCH   1  16
BRANCH  14  25
ATOM     25  C   UNL     1       2.416   1.200  -0.015  0.00  0.00    +0.130 C 
BRANCH  25  26
ATOM     26  C   UNL     1       2.848   0.960  -1.463  0.00  0.00    +0.050 C 
BRANCH  26  27
ATOM     27  C   UNL     1       4.184   0.214  -1.479  0.00  0.00    +0.162 C 
BRANCH  27  28
ATOM     28  O   UNL     1       4.587  -0.011  -2.832  0.00  0.00    -0.377 OA
BRANCH  28  29
ATOM     29  C   UNL     1       5.830  -0.704  -2.960  0.00  0.00    +0.112 C 
ATOM     30  C   UNL     1       5.570  -2.212  -3.006  0.00  0.00    +0.037 C 
ATOM     31  C   UNL     1       6.527  -0.267  -4.250  0.00  0.00    +0.037 C 
ENDBRANCH  28  29
ENDBRANCH  27  28
ENDBRANCH  26  27
ENDBRANCH  25  26
ENDBRANCH  14  25
TORSDOF 8
