REMARK  Name = ZINC41078180
REMARK  8 active torsions:
REMARK  status: ('A' for Active; 'I' for Inactive)
REMARK    1  A    between atoms: C_1  and  C_2
REMARK    2  A    between atoms: C_2  and  O_3
REMARK    3  A    between atoms: O_3  and  C_4
REMARK    4  A    between atoms: C_7  and  C_10
REMARK    5  A    between atoms: N_12  and  C_13
REMARK    6  A    between atoms: C_13  and  C_14
REMARK    7  A    between atoms: C_22  and  C_24
REMARK    8  A    between atoms: C_28  and  C_30
REMARK                            x       y       z     vdW  Elec       q    Type
REMARK                         _______ _______ _______ _____ _____    ______ ____
ROOT
ATOM      1  C   UNL     1      -4.878  -8.382  -0.008  0.00  0.00    +0.066 A 
ATOM      2  C   UNL     1      -5.456  -9.025  -1.082  0.00  0.00    +0.097 A 
ATOM      3  C   UNL     1      -6.819  -9.324  -1.058  0.00  0.00    +0.275 A 
ATOM      4  O   UNL     1      -7.337  -9.894  -2.005  0.00  0.00    -0.266 OA
ATOM      5  N   UNL     1      -7.572  -8.978   0.028  0.00  0.00    -0.171 N 
ATOM      6  C   UNL     1      -6.918  -8.343   1.048  0.00  0.00    +0.199 A 
ATOM      7  N   UNL     1      -5.639  -8.065   1.036  0.00  0.00    -0.225 NA
ATOM      8  S   UNL     1      -8.218  -8.074   2.234  0.00  0.00    -0.028 S 
ATOM      9  C   UNL     1      -9.546  -8.820   1.302  0.00  0.00    +0.132 A 
ATOM     10  N   UNL     1      -8.934  -9.201   0.211  0.00  0.00    -0.154 NA
ENDROOT
BRANCH   9  11
ATOM     11  C   UNL     1     -10.971  -8.970   1.669  0.00  0.00    +0.009 A 
ATOM     12  C   UNL     1     -11.858  -9.596   0.793  0.00  0.00    +0.010 A 
ATOM     13  C   UNL     1     -13.186  -9.733   1.142  0.00  0.00    +0.001 A 
ATOM     14  C   UNL     1     -13.639  -9.250   2.358  0.00  0.00    +0.003 A 
ATOM     15  C   UNL     1     -12.764  -8.628   3.230  0.00  0.00    -0.050 A 
ATOM     16  C   UNL     1     -11.432  -8.490   2.895  0.00  0.00    +0.014 A 
ATOM     17  C   UNL     1     -13.265  -8.105   4.552  0.00  0.00    +0.044 C 
ENDBRANCH   9  11
BRANCH   1  18
ATOM     18  C   UNL     1      -3.408  -8.050  -0.014  0.00  0.00    +0.160 C 
BRANCH  18  21
ATOM     19  C   UNL     1      -1.997  -6.064  -0.011  0.00  0.00    +0.244 C 
ATOM     20  O   UNL     1      -1.023  -6.791  -0.020  0.00  0.00    -0.270 OA
ATOM     21  N   UNL     1      -3.236  -6.596  -0.008  0.00  0.00    -0.306 N 
ATOM     22  H   UNL     1      -4.013  -6.015  -0.001  0.00  0.00    +0.149 HD
BRANCH  19  26
ATOM     23  C   UNL     1      -1.498  -1.846   0.006  0.00  0.00    +0.121 A 
ATOM     24  C   UNL     1      -0.383  -2.676  -0.003  0.00  0.00    +0.046 A 
ATOM     25  C   UNL     1      -0.541  -4.044  -0.009  0.00  0.00    +0.016 A 
ATOM     26  C   UNL     1      -1.824  -4.598  -0.005  0.00  0.00    +0.037 A 
ATOM     27  C   UNL     1      -2.942  -3.760   0.005  0.00  0.00    +0.016 A 
ATOM     28  C   UNL     1      -2.776  -2.393   0.016  0.00  0.00    +0.046 A 
BRANCH  23  29
ATOM     29  O   UNL     1      -1.339  -0.499   0.012  0.00  0.00    -0.492 OA
BRANCH  29  31
ATOM     30  C   UNL     1      -0.019   1.526   0.010  0.00  0.00    +0.048 C 
ATOM     31  C   UNL     1       0.002  -0.004   0.002  0.00  0.00    +0.225 C 
ENDBRANCH  29  31
ENDBRANCH  23  29
ENDBRANCH  19  26
ENDBRANCH  18  21
ENDBRANCH   1  18
TORSDOF 6
