REMARK  Name = ZINC40917289
REMARK  9 active torsions:
REMARK  status: ('A' for Active; 'I' for Inactive)
REMARK    1  A    between atoms: C_1  and  C_2
REMARK    2  A    between atoms: C_2  and  O_3
REMARK    3  A    between atoms: O_3  and  C_4
REMARK    4  A    between atoms: C_6  and  C_19
REMARK    5  A    between atoms: C_9  and  O_10
REMARK    6  A    between atoms: O_10  and  C_11
REMARK    7  A    between atoms: C_11  and  C_12
REMARK    8  A    between atoms: C_24  and  C_28
REMARK    9  A    between atoms: C_24  and  C_29
REMARK                            x       y       z     vdW  Elec       q    Type
REMARK                         _______ _______ _______ _____ _____    ______ ____
ROOT
ATOM      1  C   UNL     1      -1.498  -1.849   0.006  0.00  0.00    +0.163 A 
ATOM      2  C   UNL     1      -0.389  -2.680  -0.003  0.00  0.00    +0.055 A 
ATOM      3  C   UNL     1      -0.553  -4.052  -0.009  0.00  0.00    -0.014 A 
ATOM      4  C   UNL     1      -1.822  -4.600  -0.006  0.00  0.00    +0.025 A 
ATOM      5  C   UNL     1      -2.934  -3.777   0.003  0.00  0.00    +0.063 A 
ATOM      6  C   UNL     1      -2.776  -2.400   0.016  0.00  0.00    +0.176 A 
ATOM      7 BR   UNL     1      -4.668  -4.531   0.006  0.00  0.00    -0.046 Br
ENDROOT
BRANCH   3   8
ATOM      8  C   UNL     1       0.655  -4.954  -0.020  0.00  0.00    +0.177 C 
ATOM      9  C   UNL     1       0.627  -5.816  -1.263  0.00  0.00    +0.041 C 
ATOM     10  C   UNL     1       0.330  -7.132  -1.218  0.00  0.00    +0.020 C 
ATOM     11  C   UNL     1       0.312  -7.967  -2.477  0.00  0.00    +0.058 C 
ATOM     12  C   UNL     1      -0.097  -7.097  -3.667  0.00  0.00    -0.023 C 
ATOM     13  C   UNL     1       0.902  -5.941  -3.784  0.00  0.00    +0.086 C 
ATOM     14  C   UNL     1       0.927  -5.185  -2.484  0.00  0.00    +0.164 C 
ATOM     15  O   UNL     1       1.211  -4.004  -2.489  0.00  0.00    -0.292 OA
ATOM     16  C   UNL     1      -1.504  -6.542  -3.441  0.00  0.00    +0.011 C 
ATOM     17  C   UNL     1      -0.071  -7.932  -4.949  0.00  0.00    +0.011 C 
ATOM     18  N   UNL     1       0.038  -7.770  -0.036  0.00  0.00    -0.286 N 
ATOM     19  C   UNL     1       0.344  -7.119   1.147  0.00  0.00    +0.240 A 
ATOM     20  N   UNL     1       0.640  -5.795   1.167  0.00  0.00    -0.201 N 
ATOM     21  N   UNL     1       0.898  -5.494   2.503  0.00  0.00    -0.042 NA
ATOM     22  N   UNL     1       0.742  -6.595   3.165  0.00  0.00    -0.021 NA
ATOM     23  N   UNL     1       0.416  -7.551   2.373  0.00  0.00    -0.092 NA
ATOM     24  H   UNL     1      -0.369  -8.651  -0.030  0.00  0.00    +0.155 HD
ENDBRANCH   3   8
BRANCH   1  25
ATOM     25  O   UNL     1      -1.339  -0.499   0.012  0.00  0.00    -0.489 OA
BRANCH  25  27
ATOM     26  C   UNL     1      -0.019   1.526   0.010  0.00  0.00    +0.048 C 
ATOM     27  C   UNL     1       0.002  -0.004   0.002  0.00  0.00    +0.226 C 
ENDBRANCH  25  27
ENDBRANCH   1  25
BRANCH   6  28
ATOM     28  O   UNL     1      -3.868  -1.589   0.030  0.00  0.00    -0.483 OA
BRANCH  28  29
ATOM     29  C   UNL     1      -4.401  -1.195  -1.236  0.00  0.00    +0.264 C 
BRANCH  29  30
ATOM     30  C   UNL     1      -5.598  -0.305  -1.022  0.00  0.00    -0.010 A 
ATOM     31  C   UNL     1      -6.860  -0.859  -0.917  0.00  0.00    +0.007 A 
ATOM     32  C   UNL     1      -7.959  -0.043  -0.721  0.00  0.00    +0.000 A 
ATOM     33  C   UNL     1      -7.795   1.327  -0.629  0.00  0.00    +0.000 A 
ATOM     34  C   UNL     1      -6.532   1.880  -0.734  0.00  0.00    +0.000 A 
ATOM     35  C   UNL     1      -5.433   1.064  -0.926  0.00  0.00    +0.007 A 
ENDBRANCH  29  30
ENDBRANCH  28  29
ENDBRANCH   6  28
TORSDOF 6
