REMARK  Name = ZINC39652668
REMARK  8 active torsions:
REMARK  status: ('A' for Active; 'I' for Inactive)
REMARK    1  A    between atoms: C_1  and  C_2
REMARK    2  A    between atoms: C_2  and  O_3
REMARK    3  A    between atoms: O_3  and  C_4
REMARK    4  A    between atoms: C_9  and  C_10
REMARK    5  A    between atoms: C_10  and  C_11
REMARK    6  A    between atoms: C_11  and  N_12
REMARK    7  A    between atoms: C_13  and  C_15
REMARK    8  A    between atoms: C_26  and  C_28
REMARK                            x       y       z     vdW  Elec       q    Type
REMARK                         _______ _______ _______ _____ _____    ______ ____
ROOT
ATOM      1  C   UNL     1      -7.271   0.509  -2.717  0.00  0.00    +0.100 C 
ATOM      2  C   UNL     1      -8.609   0.027  -2.111  0.00  0.00    +0.121 C 
ATOM      3  N   UNL     1      -9.651   0.660  -2.953  0.00  0.00    -0.296 N 
ATOM      4  C   UNL     1      -9.111   0.578  -4.332  0.00  0.00    +0.115 C 
ATOM      5  C   UNL     1      -7.605   0.868  -4.175  0.00  0.00    -0.004 C 
ATOM      6  C   UNL     1      -6.798  -0.003  -5.132  0.00  0.00    -0.010 C 
ATOM      7  C   UNL     1      -7.103   0.413  -6.574  0.00  0.00    -0.082 C 
ATOM      8  N   UNL     1      -6.759   1.827  -6.760  0.00  0.00    +0.379 N 
ATOM      9  C   UNL     1      -7.606   2.666  -5.903  0.00  0.00    -0.082 C 
ATOM     10  C   UNL     1      -7.322   2.345  -4.433  0.00  0.00    -0.010 C 
ATOM     11  C   UNL     1     -10.824   1.191  -2.556  0.00  0.00    +0.247 C 
ATOM     12  O   UNL     1     -11.071   1.301  -1.371  0.00  0.00    -0.270 OA
ATOM     13  H   UNL     1      -5.790   1.972  -6.518  0.00  0.00    -0.086 HD
ATOM     14  H   UNL     1      -6.904   2.083  -7.726  0.00  0.00    -0.086 HD
ENDROOT
BRANCH  11  15
ATOM     15  C   UNL     1     -11.810   1.640  -3.561  0.00  0.00    +0.037 A 
ATOM     16  C   UNL     1     -11.754   1.149  -4.867  0.00  0.00    +0.014 A 
ATOM     17  C   UNL     1     -12.677   1.571  -5.800  0.00  0.00    +0.016 A 
ATOM     18  C   UNL     1     -13.658   2.482  -5.445  0.00  0.00    +0.018 A 
ATOM     19  C   UNL     1     -13.719   2.973  -4.151  0.00  0.00    +0.016 A 
ATOM     20  C   UNL     1     -12.806   2.553  -3.207  0.00  0.00    +0.014 A 
ATOM     21 BR   UNL     1     -14.919   3.056  -6.731  0.00  0.00    -0.050 Br
ENDBRANCH  11  15
BRANCH   1  23
ATOM     22  N   UNL     1      -4.938  -0.295  -2.557  0.00  0.00    -0.315 N 
ATOM     23  C   UNL     1      -6.247  -0.595  -2.671  0.00  0.00    +0.218 C 
ATOM     24  O   UNL     1      -6.600  -1.754  -2.735  0.00  0.00    -0.275 OA
ATOM     25  H   UNL     1      -4.655   0.631  -2.506  0.00  0.00    +0.149 HD
BRANCH  22  26
ATOM     26  C   UNL     1      -3.941  -1.369  -2.512  0.00  0.00    +0.109 C 
BRANCH  26  27
ATOM     27  C   UNL     1      -2.543  -0.761  -2.382  0.00  0.00    +0.057 C 
BRANCH  27  33
ATOM     28  C   UNL     1      -1.028  -2.408  -3.514  0.00  0.00    +0.124 A 
ATOM     29  C   UNL     1      -0.081  -3.420  -3.468  0.00  0.00    +0.046 A 
ATOM     30  C   UNL     1       0.368  -3.889  -2.249  0.00  0.00    +0.004 A 
ATOM     31  C   UNL     1      -0.126  -3.351  -1.075  0.00  0.00    +0.000 A 
ATOM     32  C   UNL     1      -1.070  -2.342  -1.119  0.00  0.00    +0.007 A 
ATOM     33  C   UNL     1      -1.518  -1.865  -2.336  0.00  0.00    -0.004 A 
BRANCH  28  34
ATOM     34  O   UNL     1      -1.471  -1.944  -4.713  0.00  0.00    -0.492 OA
BRANCH  34  36
ATOM     35  C   UNL     1      -1.536  -1.902  -7.128  0.00  0.00    +0.048 C 
ATOM     36  C   UNL     1      -0.922  -2.549  -5.885  0.00  0.00    +0.225 C 
ENDBRANCH  34  36
ENDBRANCH  28  34
ENDBRANCH  27  33
ENDBRANCH  26  27
ENDBRANCH  22  26
ENDBRANCH   1  23
TORSDOF 7
