REMARK  Name = ZINC66467293
REMARK  2 active torsions:
REMARK  status: ('A' for Active; 'I' for Inactive)
REMARK    1  A    between atoms: C_1  and  C_2
REMARK    2  A    between atoms: N_15  and  C_16
REMARK                            x       y       z     vdW  Elec       q    Type
REMARK                         _______ _______ _______ _____ _____    ______ ____
ROOT
ATOM      1  C   UNL     1      -0.018   1.503   0.010  0.00  0.00    +0.090 C 
ATOM      2  C   UNL     1       0.002  -0.004   0.002  0.00  0.00    +0.149 A 
ATOM      3  N   UNL     1       0.007  -0.765  -1.089  0.00  0.00    -0.211 NA
ATOM      4  C   UNL     1       0.026  -2.035  -0.743  0.00  0.00    +0.169 A 
ATOM      5  C   UNL     1       0.041  -3.302  -1.481  0.00  0.00    +0.045 A 
ATOM      6  C   UNL     1       0.036  -3.346  -2.874  0.00  0.00    +0.014 A 
ATOM      7  C   UNL     1       0.050  -4.565  -3.516  0.00  0.00    +0.001 A 
ATOM      8  C   UNL     1       0.070  -5.747  -2.787  0.00  0.00    +0.002 A 
ATOM      9  C   UNL     1       0.075  -5.726  -1.411  0.00  0.00    +0.028 A 
ATOM     10  C   UNL     1       0.061  -4.503  -0.736  0.00  0.00    +0.078 A 
ATOM     11  N   UNL     1       0.067  -4.443   0.618  0.00  0.00    -0.214 NA
ATOM     12  C   UNL     1       0.054  -3.305   1.261  0.00  0.00    +0.219 A 
ATOM     13  N   UNL     1       0.033  -2.095   0.625  0.00  0.00    -0.181 N 
ATOM     14  N   UNL     1       0.023  -0.765   1.068  0.00  0.00    -0.147 NA
ATOM     15  N   UNL     1       0.061  -3.325   2.636  0.00  0.00    -0.307 N 
ATOM     16  H   UNL     1       0.052  -2.493   3.133  0.00  0.00    +0.150 HD
ENDROOT
BRANCH  15  17
ATOM     17  C   UNL     1       0.083  -4.605   3.349  0.00  0.00    +0.104 C 
ATOM     18  C   UNL     1       0.667  -4.419   4.766  0.00  0.00    +0.032 C 
ATOM     19  C   UNL     1      -0.149  -5.431   5.597  0.00  0.00    +0.037 C 
ATOM     20  C   UNL     1      -1.461  -5.584   4.858  0.00  0.00    -0.042 A 
ATOM     21  C   UNL     1      -1.328  -5.110   3.564  0.00  0.00    -0.021 A 
ATOM     22  C   UNL     1      -2.407  -5.151   2.698  0.00  0.00    +0.044 A 
ATOM     23  C   UNL     1      -3.620  -5.667   3.121  0.00  0.00    +0.124 A 
ATOM     24  C   UNL     1      -3.753  -6.142   4.414  0.00  0.00    +0.038 A 
ATOM     25  C   UNL     1      -2.675  -6.097   5.283  0.00  0.00    +0.007 A 
ATOM     26  F   UNL     1      -4.671  -5.705   2.273  0.00  0.00    -0.205 F 
ENDBRANCH  15  17
TORSDOF 1
