REMARK  Name = ZINC20309877
REMARK  12 active torsions:
REMARK  status: ('A' for Active; 'I' for Inactive)
REMARK    1  A    between atoms: C_1  and  C_2
REMARK    2  A    between atoms: C_4  and  C_10
REMARK    3  A    between atoms: C_5  and  O_9
REMARK    4  A    between atoms: C_7  and  C_8
REMARK    5  A    between atoms: C_10  and  C_12
REMARK    6  A    between atoms: N_16  and  C_28
REMARK    7  A    between atoms: C_17  and  C_19
REMARK    8  A    between atoms: C_22  and  N_25
REMARK    9  A    between atoms: C_28  and  C_29
REMARK   10  A    between atoms: C_29  and  N_30
REMARK   11  A    between atoms: N_30  and  C_31
REMARK   12  A    between atoms: N_30  and  C_32
REMARK                            x       y       z     vdW  Elec       q    Type
REMARK                         _______ _______ _______ _____ _____    ______ ____
ROOT
ATOM      1  C   UNL     1       1.185   2.941  -0.271  0.00  0.00    +0.076 C 
ATOM      2  C   UNL     1       1.506   1.637  -0.432  0.00  0.00    +0.249 C 
ATOM      3  C   UNL     1       0.275   0.821  -0.354  0.00  0.00    +0.288 C 
ATOM      4  O   UNL     1       0.232  -0.388  -0.461  0.00  0.00    -0.266 OA
ATOM      5  N   UNL     1      -0.791   1.617  -0.153  0.00  0.00    -0.285 N 
ATOM      6  C   UNL     1      -0.312   3.002  -0.078  0.00  0.00    +0.145 C 
ATOM      7  O   UNL     1       2.754   1.155  -0.633  0.00  0.00    -0.282 OA
ENDROOT
BRANCH   6   8
ATOM      8  C   UNL     1      -0.638   3.596   1.268  0.00  0.00    -0.022 A 
ATOM      9  C   UNL     1      -0.382   2.877   2.421  0.00  0.00    +0.008 A 
ATOM     10  C   UNL     1      -0.675   3.424   3.656  0.00  0.00    +0.033 A 
ATOM     11  C   UNL     1      -1.235   4.685   3.738  0.00  0.00    +0.126 A 
ATOM     12  C   UNL     1      -1.496   5.402   2.585  0.00  0.00    +0.033 A 
ATOM     13  C   UNL     1      -1.197   4.857   1.350  0.00  0.00    +0.008 A 
BRANCH  11  14
ATOM     14  N   UNL     1      -1.554   5.269   5.061  0.00  0.00    +0.056 N 
ATOM     15  O   UNL     1      -2.047   6.380   5.133  0.00  0.00    -0.126 OA
ATOM     16  O   UNL     1      -1.324   4.637   6.076  0.00  0.00    -0.126 OA
ENDBRANCH  11  14
ENDBRANCH   6   8
BRANCH   1  17
ATOM     17  C   UNL     1       2.112   4.077  -0.281  0.00  0.00    +0.199 C 
ATOM     18  O   UNL     1       2.952   4.185   0.594  0.00  0.00    -0.287 OA
BRANCH  17  22
ATOM     19  C   UNL     1       0.037   5.724  -4.506  0.00  0.00    +0.044 C 
ATOM     20  C   UNL     1       1.032   5.888  -3.386  0.00  0.00    -0.047 A 
ATOM     21  C   UNL     1       1.106   4.939  -2.390  0.00  0.00    +0.019 A 
ATOM     22  C   UNL     1       2.028   5.090  -1.351  0.00  0.00    +0.064 A 
ATOM     23  C   UNL     1       2.869   6.212  -1.328  0.00  0.00    +0.128 A 
ATOM     24  C   UNL     1       2.784   7.154  -2.342  0.00  0.00    +0.049 A 
ATOM     25  C   UNL     1       1.868   6.992  -3.363  0.00  0.00    -0.044 A 
ATOM     26  C   UNL     1       1.778   8.023  -4.459  0.00  0.00    +0.044 C 
BRANCH  23  27
ATOM     27  O   UNL     1       3.764   6.373  -0.322  0.00  0.00    -0.506 OA
ATOM     28  H   UNL     1       4.423   7.254  -0.307  0.00  0.00    +0.292 HD
ENDBRANCH  23  27
ENDBRANCH  17  22
ENDBRANCH   1  17
BRANCH   5  29
ATOM     29  C   UNL     1      -2.183   1.178  -0.028  0.00  0.00    +0.090 C 
BRANCH  29  30
ATOM     30  C   UNL     1      -2.498   0.892   1.442  0.00  0.00    -0.060 C 
BRANCH  30  31
ATOM     31  N   UNL     1      -3.894   0.452   1.567  0.00  0.00    +0.377 N 
ATOM     32  C   UNL     1      -4.098  -0.845   0.908  0.00  0.00    -0.097 C 
ATOM     33  C   UNL     1      -4.303   0.397   2.977  0.00  0.00    -0.097 C 
ATOM     34  H   UNL     1      -4.529   1.193   1.060  0.00  0.00    -0.083 HD
ENDBRANCH  30  31
ENDBRANCH  29  30
ENDBRANCH   5  29
TORSDOF 8
