REMARK  Name = ZINC33568783
REMARK  7 active torsions:
REMARK  status: ('A' for Active; 'I' for Inactive)
REMARK    1  A    between atoms: C_4  and  C_7
REMARK    2  A    between atoms: C_10  and  C_26
REMARK    3  A    between atoms: N_12  and  C_13
REMARK    4  A    between atoms: C_16  and  C_19
REMARK    5  A    between atoms: C_20  and  C_21
REMARK    6  A    between atoms: C_20  and  C_23
REMARK    7  A    between atoms: C_23  and  N_25
REMARK                            x       y       z     vdW  Elec       q    Type
REMARK                         _______ _______ _______ _____ _____    ______ ____
ROOT
ATOM      1  C   UNL     1      -3.790   1.696  -0.246  0.00  0.00    +0.134 C 
ATOM      2  C   UNL     1      -4.735   0.478  -0.229  0.00  0.00    +0.087 C 
ATOM      3  C   UNL     1      -3.802  -0.704  -0.091  0.00  0.00    +0.069 C 
ATOM      4  N   UNL     1      -2.583  -0.288  -0.044  0.00  0.00    -0.183 NA
ATOM      5  N   UNL     1      -2.452   1.097  -0.120  0.00  0.00    -0.216 N 
ENDROOT
BRANCH   1   9
ATOM      6  C   UNL     1      -4.143   3.821  -3.935  0.00  0.00    +0.000 A 
ATOM      7  C   UNL     1      -4.720   4.329  -2.787  0.00  0.00    +0.000 A 
ATOM      8  C   UNL     1      -4.606   3.642  -1.593  0.00  0.00    +0.005 A 
ATOM      9  C   UNL     1      -3.915   2.446  -1.548  0.00  0.00    -0.025 A 
ATOM     10  C   UNL     1      -3.333   1.940  -2.695  0.00  0.00    +0.005 A 
ATOM     11  C   UNL     1      -3.451   2.625  -3.890  0.00  0.00    +0.000 A 
ENDBRANCH   1   9
BRANCH   5  12
ATOM     12  C   UNL     1      -1.254   1.797  -0.087  0.00  0.00    +0.052 A 
ATOM     13  C   UNL     1      -0.049   1.107   0.036  0.00  0.00    +0.025 A 
ATOM     14  C   UNL     1       1.132   1.791   0.063  0.00  0.00    +0.010 A 
ATOM     15  C   UNL     1       1.132   3.191  -0.029  0.00  0.00    -0.024 A 
ATOM     16  C   UNL     1      -0.084   3.881  -0.147  0.00  0.00    +0.010 A 
ATOM     17  C   UNL     1      -1.260   3.189  -0.173  0.00  0.00    +0.025 A 
BRANCH  15  18
ATOM     18  C   UNL     1       2.395   3.929  -0.001  0.00  0.00    +0.029 C 
ATOM     19  C   UNL     1       2.435   5.209   0.510  0.00  0.00    +0.080 C 
BRANCH  19  20
ATOM     20  C   UNL     1       1.277   5.763   1.145  0.00  0.00    +0.102 C 
ATOM     21  N   UNL     1       0.359   6.202   1.649  0.00  0.00    -0.191 NA
ENDBRANCH  19  20
BRANCH  19  22
ATOM     22  C   UNL     1       3.665   6.005   0.403  0.00  0.00    +0.087 C 
ATOM     23  S   UNL     1       5.049   5.343  -0.357  0.00  0.00    -0.034 S 
BRANCH  22  24
ATOM     24  N   UNL     1       3.704   7.256   0.902  0.00  0.00    -0.351 N 
ATOM     25  H   UNL     1       4.625   7.852   0.822  0.00  0.00    +0.143 HD
ATOM     26  H   UNL     1       2.815   7.681   1.390  0.00  0.00    +0.143 HD
ENDBRANCH  22  24
ENDBRANCH  19  22
ENDBRANCH  15  18
ENDBRANCH   5  12
BRANCH   3  27
ATOM     27  C   UNL     1      -4.222  -2.116  -0.026  0.00  0.00    -0.002 A 
ATOM     28  C   UNL     1      -5.578  -2.448  -0.087  0.00  0.00    +0.010 A 
ATOM     29  C   UNL     1      -5.963  -3.772  -0.031  0.00  0.00    +0.001 A 
ATOM     30  C   UNL     1      -5.011  -4.768   0.096  0.00  0.00    +0.000 A 
ATOM     31  C   UNL     1      -3.667  -4.446   0.162  0.00  0.00    +0.001 A 
ATOM     32  C   UNL     1      -3.267  -3.127   0.102  0.00  0.00    +0.010 A 
ENDBRANCH   3  27
TORSDOF 7
