REMARK  Name = ZINC39695369
REMARK  9 active torsions:
REMARK  status: ('A' for Active; 'I' for Inactive)
REMARK    1  A    between atoms: C_1  and  C_2
REMARK    2  A    between atoms: C_2  and  C_3
REMARK    3  A    between atoms: C_3  and  C_5
REMARK    4  A    between atoms: C_3  and  N_11
REMARK    5  A    between atoms: C_12  and  C_14
REMARK    6  A    between atoms: C_25  and  C_27
REMARK    7  A    between atoms: C_27  and  O_28
REMARK    8  A    between atoms: O_28  and  C_29
REMARK    9  A    between atoms: C_39  and  C_40
REMARK                            x       y       z     vdW  Elec       q    Type
REMARK                         _______ _______ _______ _____ _____    ______ ____
ROOT
ATOM      1  C   UNL     1      -3.330   1.430   2.696  0.00  0.00    +0.100 C 
ATOM      2  C   UNL     1      -2.322   1.351   3.864  0.00  0.00    +0.121 C 
ATOM      3  N   UNL     1      -1.808   2.733   4.010  0.00  0.00    -0.297 N 
ATOM      4  C   UNL     1      -2.997   3.592   3.795  0.00  0.00    +0.115 C 
ATOM      5  C   UNL     1      -3.774   2.902   2.656  0.00  0.00    -0.004 C 
ATOM      6  C   UNL     1      -3.408   3.527   1.314  0.00  0.00    -0.010 C 
ATOM      7  C   UNL     1      -3.909   4.974   1.277  0.00  0.00    -0.082 C 
ATOM      8  N   UNL     1      -5.364   4.994   1.469  0.00  0.00    +0.379 N 
ATOM      9  C   UNL     1      -5.702   4.476   2.800  0.00  0.00    -0.082 C 
ATOM     10  C   UNL     1      -5.276   3.009   2.901  0.00  0.00    -0.010 C 
ATOM     11  C   UNL     1      -0.545   3.121   4.277  0.00  0.00    +0.253 C 
ATOM     12  O   UNL     1      -0.280   4.301   4.366  0.00  0.00    -0.272 OA
ATOM     13  H   UNL     1      -5.700   5.942   1.383  0.00  0.00    -0.086 HD
ATOM     14  H   UNL     1      -5.803   4.420   0.764  0.00  0.00    -0.086 HD
ENDROOT
BRANCH   1  16
ATOM     15  N   UNL     1      -3.390   0.502   0.404  0.00  0.00    -0.308 N 
ATOM     16  C   UNL     1      -2.664   1.047   1.400  0.00  0.00    +0.219 C 
ATOM     17  O   UNL     1      -1.474   1.229   1.254  0.00  0.00    -0.275 OA
ATOM     18  H   UNL     1      -4.342   0.357   0.521  0.00  0.00    +0.149 HD
BRANCH  15  19
ATOM     19  C   UNL     1      -2.742   0.131  -0.856  0.00  0.00    +0.103 C 
BRANCH  19  20
ATOM     20  C   UNL     1      -3.760   0.139  -1.967  0.00  0.00    -0.027 A 
ATOM     21  C   UNL     1      -5.035  -0.344  -1.739  0.00  0.00    +0.005 A 
ATOM     22  C   UNL     1      -5.970  -0.336  -2.757  0.00  0.00    +0.000 A 
ATOM     23  C   UNL     1      -5.629   0.155  -4.004  0.00  0.00    +0.000 A 
ATOM     24  C   UNL     1      -4.354   0.639  -4.232  0.00  0.00    +0.000 A 
ATOM     25  C   UNL     1      -3.421   0.635  -3.212  0.00  0.00    +0.005 A 
ENDBRANCH  19  20
BRANCH  19  27
ATOM     26  C   UNL     1      -1.020  -1.250   0.315  0.00  0.00    +0.006 C 
ATOM     27  C   UNL     1      -2.140  -1.270  -0.726  0.00  0.00    +0.024 C 
ENDBRANCH  19  27
ENDBRANCH  15  19
ENDBRANCH   1  16
BRANCH  11  28
ATOM     28  C   UNL     1       0.537   2.089   4.464  0.00  0.00    +0.324 C 
BRANCH  28  29
ATOM     29  O   UNL     1       1.778   2.744   4.734  0.00  0.00    -0.479 OA
BRANCH  29  30
ATOM     30  C   UNL     1       2.864   1.951   4.930  0.00  0.00    +0.164 A 
ATOM     31  C   UNL     1       2.740   0.575   4.857  0.00  0.00    +0.049 A 
ATOM     32  C   UNL     1       3.841  -0.245   5.054  0.00  0.00    +0.004 A 
ATOM     33  C   UNL     1       5.076   0.300   5.326  0.00  0.00    +0.012 A 
ATOM     34  C   UNL     1       5.219   1.689   5.403  0.00  0.00    +0.024 A 
ATOM     35  C   UNL     1       4.107   2.522   5.198  0.00  0.00    +0.181 A 
ATOM     36  O   UNL     1       4.248   3.863   5.269  0.00  0.00    -0.418 OA
ATOM     37  C   UNL     1       5.437   4.430   5.526  0.00  0.00    +0.338 A 
ATOM     38  O   UNL     1       5.517   5.644   5.580  0.00  0.00    -0.245 OA
ATOM     39  C   UNL     1       6.598   3.654   5.736  0.00  0.00    +0.096 A 
ATOM     40  C   UNL     1       6.521   2.300   5.691  0.00  0.00    -0.033 A 
ATOM     41  C   UNL     1       7.744   1.447   5.913  0.00  0.00    +0.045 C 
ENDBRANCH  29  30
ENDBRANCH  28  29
ENDBRANCH  11  28
TORSDOF 7
