REMARK  Name = ZINC06504341
REMARK  8 active torsions:
REMARK  status: ('A' for Active; 'I' for Inactive)
REMARK    1  A    between atoms: C_1  and  C_2
REMARK    2  A    between atoms: C_2  and  C_3
REMARK    3  A    between atoms: C_11  and  S_12
REMARK    4  A    between atoms: S_12  and  C_13
REMARK    5  A    between atoms: C_13  and  C_14
REMARK    6  A    between atoms: C_22  and  C_26
REMARK    7  A    between atoms: C_26  and  O_28
REMARK    8  A    between atoms: O_28  and  C_29
REMARK                            x       y       z     vdW  Elec       q    Type
REMARK                         _______ _______ _______ _____ _____    ______ ____
ROOT
ATOM      1  C   UNL     1      -5.688  -2.084  -5.711  0.00  0.00    +0.121 A 
ATOM      2  N   UNL     1      -6.757  -2.471  -6.455  0.00  0.00    -0.310 N 
ATOM      3  H   UNL     1      -7.568  -2.768  -6.014  0.00  0.00    +0.170 HD
ATOM      4  C   UNL     1      -6.701  -2.444  -7.807  0.00  0.00    +0.259 A 
ATOM      5  O   UNL     1      -7.651  -2.786  -8.486  0.00  0.00    -0.267 OA
ATOM      6  C   UNL     1      -5.445  -1.983  -8.425  0.00  0.00    +0.065 A 
ATOM      7  C   UNL     1      -5.288  -1.919  -9.808  0.00  0.00    +0.016 A 
ATOM      8  C   UNL     1      -4.106  -1.485 -10.338  0.00  0.00    +0.016 A 
ATOM      9  C   UNL     1      -3.048  -1.104  -9.503  0.00  0.00    +0.061 A 
ATOM     10  C   UNL     1      -3.185  -1.161  -8.121  0.00  0.00    +0.043 A 
ATOM     11  C   UNL     1      -4.388  -1.603  -7.569  0.00  0.00    +0.079 A 
ATOM     12  N   UNL     1      -4.571  -1.670  -6.226  0.00  0.00    -0.233 NA
ENDROOT
BRANCH   9  13
ATOM     13  C   UNL     1      -1.776  -0.637 -10.097  0.00  0.00    +0.339 C 
ATOM     14  O   UNL     1      -0.856  -0.306  -9.377  0.00  0.00    -0.245 OA
BRANCH  13  15
ATOM     15  O   UNL     1      -1.638  -0.581 -11.435  0.00  0.00    -0.464 OA
ATOM     16  C   UNL     1      -0.382  -0.121 -11.939  0.00  0.00    +0.280 C 
ENDBRANCH  13  15
ENDBRANCH   9  13
BRANCH   1  17
ATOM     17  C   UNL     1      -5.808  -2.134  -4.209  0.00  0.00    +0.150 C 
BRANCH  17  18
ATOM     18  S   UNL     1      -4.258  -1.564  -3.460  0.00  0.00    -0.097 S 
BRANCH  18  27
ATOM     19  C   UNL     1      -1.412  -0.526   0.013  0.00  0.00    -0.008 A 
ATOM     20  C   UNL     1      -2.199  -0.813  -1.035  0.00  0.00    +0.024 A 
ATOM     21  C   UNL     1      -3.543  -1.309  -0.797  0.00  0.00    +0.040 A 
ATOM     22  C   UNL     1      -3.894  -1.443   0.564  0.00  0.00    +0.113 A 
ATOM     23  S   UNL     1      -2.434  -0.916   1.421  0.00  0.00    -0.074 S 
ATOM     24  N   UNL     1      -5.083  -1.883   0.927  0.00  0.00    -0.228 NA
ATOM     25  C   UNL     1      -5.980  -2.211   0.018  0.00  0.00    +0.223 A 
ATOM     26  N   UNL     1      -5.721  -2.111  -1.274  0.00  0.00    -0.229 NA
ATOM     27  C   UNL     1      -4.554  -1.679  -1.727  0.00  0.00    +0.109 A 
BRANCH  19  29
ATOM     28  C   UNL     1      -0.019   1.526   0.010  0.00  0.00    +0.009 C 
ATOM     29  C   UNL     1       0.002  -0.004   0.002  0.00  0.00    +0.039 C 
ENDBRANCH  19  29
ENDBRANCH  18  27
ENDBRANCH  17  18
ENDBRANCH   1  17
TORSDOF 6
