REMARK  Name = ZINC20837182
REMARK  4 active torsions:
REMARK  status: ('A' for Active; 'I' for Inactive)
REMARK    1  A    between atoms: C_1  and  N_2
REMARK    2  A    between atoms: N_2  and  C_3
REMARK    3  A    between atoms: C_6  and  C_12
REMARK    4  A    between atoms: C_8  and  N_9
REMARK                            x       y       z     vdW  Elec       q    Type
REMARK                         _______ _______ _______ _____ _____    ______ ____
ROOT
ATOM      1  C   UNL     1       1.010   3.472  -0.179  0.00  0.00    +0.058 A 
ATOM      2  C   UNL     1      -0.132   3.882   0.506  0.00  0.00    +0.026 A 
ATOM      3  C   UNL     1      -1.163   3.009   0.701  0.00  0.00    +0.010 A 
ATOM      4  C   UNL     1      -1.075   1.701   0.207  0.00  0.00    -0.022 A 
ATOM      5  C   UNL     1       0.078   1.291  -0.476  0.00  0.00    +0.042 A 
ATOM      6  C   UNL     1       1.105   2.171  -0.667  0.00  0.00    +0.147 A 
ENDROOT
BRANCH   4   7
ATOM      7  C   UNL     1      -2.184   0.761   0.409  0.00  0.00    +0.015 C 
ATOM      8  C   UNL     1      -3.462   1.185   0.281  0.00  0.00    +0.005 C 
ATOM      9  C   UNL     1      -3.918   2.605   0.039  0.00  0.00    +0.074 C 
ATOM     10  C   UNL     1      -5.425   2.557  -0.030  0.00  0.00    -0.032 A 
ATOM     11  C   UNL     1      -6.369   3.541  -0.232  0.00  0.00    +0.004 A 
ATOM     12  C   UNL     1      -7.715   3.220  -0.242  0.00  0.00    +0.000 A 
ATOM     13  C   UNL     1      -8.119   1.910  -0.051  0.00  0.00    +0.001 A 
ATOM     14  C   UNL     1      -7.184   0.918   0.151  0.00  0.00    +0.012 A 
ATOM     15  C   UNL     1      -5.821   1.234   0.164  0.00  0.00    +0.025 A 
ATOM     16  C   UNL     1      -4.627   0.384   0.355  0.00  0.00    +0.190 C 
ATOM     17  O   UNL     1      -4.644  -0.818   0.547  0.00  0.00    -0.287 OA
ENDBRANCH   4   7
BRANCH   1  19
ATOM     18  C   UNL     1       2.019   5.689   0.248  0.00  0.00    +0.125 C 
ATOM     19  N   UNL     1       2.058   4.365  -0.376  0.00  0.00    -0.345 N 
ATOM     20  H   UNL     1       2.916   4.076  -1.000  0.00  0.00    +0.146 HD
ENDBRANCH   1  19
BRANCH   6  21
ATOM     21  N   UNL     1       2.321   1.742  -1.394  0.00  0.00    +0.058 N 
ATOM     22  O   UNL     1       2.225   1.004  -2.358  0.00  0.00    -0.126 OA
ATOM     23  O   UNL     1       3.417   2.126  -1.028  0.00  0.00    -0.126 OA
ENDBRANCH   6  21
TORSDOF 3
