REMARK  Name = ZINC20081768
REMARK  9 active torsions:
REMARK  status: ('A' for Active; 'I' for Inactive)
REMARK    1  A    between atoms: C_1  and  C_2
REMARK    2  A    between atoms: C_6  and  C_14
REMARK    3  A    between atoms: C_11  and  C_12
REMARK    4  A    between atoms: C_14  and  N_15
REMARK    5  A    between atoms: N_15  and  C_16
REMARK    6  A    between atoms: N_15  and  C_28
REMARK    7  A    between atoms: C_16  and  C_17
REMARK    8  A    between atoms: N_21  and  C_22
REMARK    9  A    between atoms: C_28  and  C_29
REMARK                            x       y       z     vdW  Elec       q    Type
REMARK                         _______ _______ _______ _____ _____    ______ ____
ROOT
ATOM      1  N   UNL     1       1.471  -5.304  -3.915  0.00  0.00    +0.389 N 
ATOM      2  H   UNL     1       1.873  -5.827  -3.151  0.00  0.00    -0.081 HD
ENDROOT
BRANCH   1   3
ATOM      3  C   UNL     1       0.070  -4.986  -3.608  0.00  0.00    -0.037 C 
BRANCH   3   9
ATOM      4  C   UNL     1      -2.628 -10.219   0.969  0.00  0.00    +0.044 C 
ATOM      5  C   UNL     1      -2.442  -9.652  -0.415  0.00  0.00    -0.047 A 
ATOM      6  C   UNL     1      -1.742  -8.491  -0.583  0.00  0.00    +0.013 A 
ATOM      7  C   UNL     1      -1.570  -7.965  -1.867  0.00  0.00    -0.001 A 
ATOM      8  C   UNL     1      -0.825  -6.723  -2.083  0.00  0.00    +0.017 A 
ATOM      9  C   UNL     1      -0.690  -6.261  -3.351  0.00  0.00    +0.001 A 
ATOM     10  C   UNL     1      -1.259  -6.971  -4.431  0.00  0.00    +0.251 A 
ATOM     11  N   UNL     1      -1.944  -8.112  -4.242  0.00  0.00    -0.322 N 
ATOM     12  C   UNL     1      -2.117  -8.635  -2.978  0.00  0.00    +0.049 A 
ATOM     13  C   UNL     1      -2.825  -9.815  -2.783  0.00  0.00    +0.030 A 
ATOM     14  C   UNL     1      -2.978 -10.318  -1.508  0.00  0.00    -0.046 A 
ATOM     15  C   UNL     1      -3.740 -11.602  -1.300  0.00  0.00    +0.044 C 
ATOM     16  O   UNL     1      -1.126  -6.537  -5.562  0.00  0.00    -0.268 OA
ATOM     17  H   UNL     1      -2.322  -8.574  -5.006  0.00  0.00    +0.169 HD
ENDBRANCH   3   9
ENDBRANCH   1   3
BRANCH   1  18
ATOM     18  C   UNL     1       1.533  -6.107  -5.144  0.00  0.00    +0.001 C 
BRANCH  18  19
ATOM     19  C   UNL     1       2.956  -6.537  -5.392  0.00  0.00    +0.135 A 
ATOM     20  N   UNL     1       3.862  -5.885  -6.078  0.00  0.00    -0.115 NA
ATOM     21  N   UNL     1       4.949  -6.577  -6.060  0.00  0.00    -0.023 NA
ATOM     22  N   UNL     1       4.760  -7.653  -5.380  0.00  0.00    -0.044 NA
ATOM     23  N   UNL     1       3.545  -7.663  -4.947  0.00  0.00    -0.228 N 
BRANCH  23  24
ATOM     24  C   UNL     1       2.921  -8.705  -4.127  0.00  0.00    +0.111 C 
ATOM     25  C   UNL     1       3.684  -8.840  -2.807  0.00  0.00    +0.027 C 
ATOM     26  C   UNL     1       3.034  -9.928  -1.951  0.00  0.00    +0.002 C 
ATOM     27  C   UNL     1       3.074 -11.261  -2.703  0.00  0.00    +0.000 C 
ATOM     28  C   UNL     1       2.312 -11.126  -4.022  0.00  0.00    +0.002 C 
ATOM     29  C   UNL     1       2.962 -10.037  -4.878  0.00  0.00    +0.027 C 
ENDBRANCH  23  24
ENDBRANCH  18  19
ENDBRANCH   1  18
BRANCH   1  30
ATOM     30  C   UNL     1       2.226  -4.058  -4.107  0.00  0.00    -0.046 C 
BRANCH  30  31
ATOM     31  C   UNL     1       2.317  -3.308  -2.776  0.00  0.00    +0.102 C 
ATOM     32  C   UNL     1       3.191  -2.038  -2.934  0.00  0.00    +0.032 C 
ATOM     33  C   UNL     1       2.639  -1.155  -1.782  0.00  0.00    +0.030 C 
ATOM     34  C   UNL     1       1.145  -1.545  -1.757  0.00  0.00    +0.160 C 
ATOM     35  O   UNL     1       1.021  -2.828  -2.385  0.00  0.00    -0.378 OA
ENDBRANCH  30  31
ENDBRANCH   1  30
TORSDOF 7
