REMARK  Name = ZINC14880625
REMARK  6 active torsions:
REMARK  status: ('A' for Active; 'I' for Inactive)
REMARK    1  A    between atoms: C_4  and  C_7
REMARK    2  A    between atoms: C_7  and  C_8
REMARK    3  A    between atoms: C_8  and  C_10
REMARK    4  A    between atoms: C_8  and  O_30
REMARK    5  A    between atoms: C_20  and  C_21
REMARK    6  A    between atoms: C_20  and  N_55
REMARK                            x       y       z     vdW  Elec       q    Type
REMARK                         _______ _______ _______ _____ _____    ______ ____
ROOT
ATOM      1  C   UNL     1       9.797   0.782  -0.692  0.00  0.00    -0.018 A 
ATOM      2  C   UNL     1      10.005  -0.203  -1.640  0.00  0.00    +0.010 A 
ATOM      3  C   UNL     1       9.374  -1.427  -1.521  0.00  0.00    +0.046 A 
ATOM      4  C   UNL     1       8.529  -1.663  -0.445  0.00  0.00    +0.122 A 
ATOM      5  C   UNL     1       8.338  -0.680   0.508  0.00  0.00    -0.022 A 
ATOM      6  C   UNL     1       8.962   0.544   0.386  0.00  0.00    +0.011 A 
ATOM      7  C   UNL     1       7.438  -0.962   1.696  0.00  0.00    -0.039 C 
ATOM      8  C   UNL     1       5.735  -2.412   0.733  0.00  0.00    -0.036 C 
ATOM      9  C   UNL     1       6.448  -2.772  -0.552  0.00  0.00    +0.210 C 
ATOM     10  O   UNL     1       7.864  -2.846  -0.344  0.00  0.00    -0.494 OA
ATOM     11  N   UNL     1       6.044  -1.043   1.199  0.00  0.00    +0.387 N 
ATOM     12  H   UNL     1       5.937  -0.394   0.411  0.00  0.00    -0.081 HD
ENDROOT
BRANCH   1  13
ATOM     13  C   UNL     1      10.480   2.118  -0.834  0.00  0.00    +0.149 C 
BRANCH  13  14
ATOM     14  O   UNL     1      11.777   1.932  -1.404  0.00  0.00    -0.387 OA
ATOM     15  H   UNL     1      11.766   1.523  -2.280  0.00  0.00    +0.210 HD
ENDBRANCH  13  14
BRANCH  13  16
ATOM     16  C   UNL     1       9.648   3.023  -1.744  0.00  0.00    +0.071 C 
BRANCH  16  20
ATOM     17  C   UNL     1      11.398   6.918  -1.867  0.00  0.00    +0.000 A 
ATOM     18  C   UNL     1      11.782   5.958  -2.785  0.00  0.00    +0.000 A 
ATOM     19  C   UNL     1      11.216   4.698  -2.745  0.00  0.00    +0.004 A 
ATOM     20  C   UNL     1      10.265   4.397  -1.787  0.00  0.00    -0.045 A 
ATOM     21  C   UNL     1       9.877   5.358  -0.873  0.00  0.00    +0.004 A 
ATOM     22  C   UNL     1      10.447   6.617  -0.909  0.00  0.00    +0.000 A 
ENDBRANCH  16  20
ENDBRANCH  13  16
ENDBRANCH   1  13
BRANCH  11  23
ATOM     23  C   UNL     1       5.107  -0.655   2.265  0.00  0.00    -0.042 C 
BRANCH  23  24
ATOM     24  C   UNL     1       3.725  -0.548   1.674  0.00  0.00    -0.060 A 
ATOM     25  C   UNL     1       2.885  -1.646   1.677  0.00  0.00    +0.005 A 
ATOM     26  C   UNL     1       1.617  -1.553   1.135  0.00  0.00    +0.050 A 
ATOM     27  C   UNL     1       1.183  -0.356   0.589  0.00  0.00    +0.166 A 
ATOM     28  C   UNL     1       2.028   0.751   0.586  0.00  0.00    +0.166 A 
ATOM     29  C   UNL     1       3.298   0.650   1.131  0.00  0.00    +0.051 A 
ATOM     30  O   UNL     1       1.376   1.797  -0.001  0.00  0.00    -0.453 OA
ATOM     31  C   UNL     1      -0.018   1.436   0.010  0.00  0.00    +0.466 C 
ATOM     32  O   UNL     1       0.002  -0.004   0.002  0.00  0.00    -0.453 OA
ENDBRANCH  23  24
ENDBRANCH  11  23
TORSDOF 6
