REMARK  Name = ZINC09338644
REMARK  7 active torsions:
REMARK  status: ('A' for Active; 'I' for Inactive)
REMARK    1  A    between atoms: C_1  and  C_2
REMARK    2  A    between atoms: C_2  and  C_4
REMARK    3  A    between atoms: C_2  and  N_64
REMARK    4  A    between atoms: C_7  and  S_15
REMARK    5  A    between atoms: N_8  and  C_9
REMARK    6  A    between atoms: S_15  and  C_16
REMARK    7  A    between atoms: C_16  and  C_17
REMARK                            x       y       z     vdW  Elec       q    Type
REMARK                         _______ _______ _______ _____ _____    ______ ____
ROOT
ATOM      1  C   UNL     1       0.610   0.210   4.941  0.00  0.00    +0.125 A 
ATOM      2  N   UNL     1       1.325   0.356   3.861  0.00  0.00    -0.135 NA
ATOM      3  N   UNL     1       0.596   0.813   2.906  0.00  0.00    -0.122 NA
ATOM      4  C   UNL     1      -0.635   0.986   3.327  0.00  0.00    +0.196 A 
ATOM      5  N   UNL     1      -0.665   0.612   4.642  0.00  0.00    -0.275 N 
ENDROOT
BRANCH   5   6
ATOM      6  C   UNL     1      -1.772   0.632   5.504  0.00  0.00    +0.050 A 
ATOM      7  C   UNL     1      -1.779   1.477   6.606  0.00  0.00    +0.026 A 
ATOM      8  C   UNL     1      -2.873   1.499   7.450  0.00  0.00    +0.002 A 
ATOM      9  C   UNL     1      -3.954   0.673   7.205  0.00  0.00    +0.000 A 
ATOM     10  C   UNL     1      -3.947  -0.173   6.111  0.00  0.00    +0.002 A 
ATOM     11  C   UNL     1      -2.859  -0.196   5.260  0.00  0.00    +0.026 A 
ENDBRANCH   5   6
BRANCH   1  13
ATOM     12  C   UNL     1       1.274  -1.818   6.204  0.00  0.00    -0.005 C 
ATOM     13  C   UNL     1       1.096  -0.300   6.273  0.00  0.00    -0.002 C 
BRANCH  13  19
ATOM     14  C   UNL     1       2.820  -0.032   7.952  0.00  0.00    -0.078 C 
ATOM     15  C   UNL     1       4.225   0.519   8.201  0.00  0.00    -0.019 C 
ATOM     16  C   UNL     1       4.207   2.042   8.040  0.00  0.00    -0.004 C 
ATOM     17  C   UNL     1       3.704   2.392   6.637  0.00  0.00    -0.019 C 
ATOM     18  C   UNL     1       2.313   1.787   6.433  0.00  0.00    -0.078 C 
ATOM     19  N   UNL     1       2.403   0.318   6.577  0.00  0.00    +0.386 N 
ATOM     20  H   UNL     1       3.103  -0.039   5.917  0.00  0.00    -0.081 HD
ENDBRANCH  13  19
ENDBRANCH   1  13
BRANCH   4  21
ATOM     21  S   UNL     1      -1.991   1.593   2.379  0.00  0.00    -0.081 S 
BRANCH  21  22
ATOM     22  C   UNL     1      -1.167   1.862   0.789  0.00  0.00    +0.113 C 
BRANCH  22  23
ATOM     23  C   UNL     1      -2.162   2.396  -0.208  0.00  0.00    -0.019 A 
ATOM     24  C   UNL     1      -2.950   1.492  -0.865  0.00  0.00    +0.097 A 
ATOM     25  C   UNL     1      -4.026   1.944  -1.652  0.00  0.00    +0.338 A 
ATOM     26  O   UNL     1      -4.709   1.143  -2.263  0.00  0.00    -0.245 OA
ATOM     27  O   UNL     1      -4.303   3.255  -1.730  0.00  0.00    -0.422 OA
ATOM     28  C   UNL     1      -3.476   4.171  -1.186  0.00  0.00    +0.140 A 
ATOM     29  C   UNL     1      -2.321   3.768  -0.490  0.00  0.00    +0.029 A 
ATOM     30  C   UNL     1      -1.339   4.802  -0.166  0.00  0.00    -0.007 A 
ATOM     31  C   UNL     1      -0.008   4.542   0.162  0.00  0.00    +0.009 A 
ATOM     32  C   UNL     1       0.809   5.547   0.597  0.00  0.00    +0.001 A 
ATOM     33  C   UNL     1       0.336   6.849   0.722  0.00  0.00    +0.001 A 
ATOM     34  C   UNL     1      -0.934   7.158   0.340  0.00  0.00    +0.008 A 
ATOM     35  C   UNL     1      -1.764   6.157  -0.190  0.00  0.00    -0.017 A 
ATOM     36  C   UNL     1      -3.012   6.488  -0.750  0.00  0.00    +0.012 A 
ATOM     37  C   UNL     1      -3.815   5.526  -1.263  0.00  0.00    +0.047 A 
ENDBRANCH  22  23
ENDBRANCH  21  22
ENDBRANCH   4  21
TORSDOF 6
