REMARK  Name = ZINC47297366
REMARK  9 active torsions:
REMARK  status: ('A' for Active; 'I' for Inactive)
REMARK    1  A    between atoms: C_1  and  C_2
REMARK    2  A    between atoms: C_2  and  N_3
REMARK    3  A    between atoms: N_3  and  C_4
REMARK    4  A    between atoms: N_3  and  C_6
REMARK    5  A    between atoms: C_4  and  C_5
REMARK    6  A    between atoms: C_6  and  C_7
REMARK    7  A    between atoms: C_7  and  N_8
REMARK    8  A    between atoms: N_17  and  C_18
REMARK    9  A    between atoms: C_18  and  C_20
REMARK                            x       y       z     vdW  Elec       q    Type
REMARK                         _______ _______ _______ _____ _____    ______ ____
ROOT
ATOM      1  N   UNL     1       1.764  -3.954   1.748  0.00  0.00    -0.314 N 
ATOM      2  C   UNL     1       0.834  -4.904   2.159  0.00  0.00    +0.068 A 
ATOM      3  C   UNL     1      -0.350  -4.819   2.878  0.00  0.00    +0.028 A 
ATOM      4  C   UNL     1      -1.079  -5.963   3.140  0.00  0.00    +0.002 A 
ATOM      5  C   UNL     1      -0.633  -7.193   2.689  0.00  0.00    +0.002 A 
ATOM      6  C   UNL     1       0.543  -7.288   1.973  0.00  0.00    +0.028 A 
ATOM      7  C   UNL     1       1.283  -6.145   1.704  0.00  0.00    +0.066 A 
ATOM      8  N   UNL     1       2.477  -5.926   1.024  0.00  0.00    -0.326 N 
ATOM      9  C   UNL     1       2.749  -4.592   1.058  0.00  0.00    +0.201 A 
ATOM     10  N   UNL     1       3.805  -4.008   0.509  0.00  0.00    -0.141 NA
ATOM     11  H   UNL     1       3.021  -6.606   0.597  0.00  0.00    +0.169 HD
ENDROOT
BRANCH  10  12
ATOM     12  C   UNL     1       4.647  -4.725  -0.253  0.00  0.00    +0.290 C 
ATOM     13  O   UNL     1       4.393  -5.889  -0.515  0.00  0.00    -0.266 OA
BRANCH  12  14
ATOM     14  C   UNL     1       5.871  -4.108  -0.770  0.00  0.00    +0.149 A 
ATOM     15  C   UNL     1       6.829  -4.710  -1.569  0.00  0.00    +0.160 A 
ATOM     16  N   UNL     1       7.778  -3.819  -1.819  0.00  0.00    -0.216 NA
ATOM     17  C   UNL     1       7.483  -2.666  -1.222  0.00  0.00    +0.140 A 
ATOM     18  N   UNL     1       6.295  -2.809  -0.562  0.00  0.00    -0.294 N 
ATOM     19  C   UNL     1       5.758  -1.769   0.132  0.00  0.00    +0.093 A 
ATOM     20  C   UNL     1       6.389  -0.574   0.179  0.00  0.00    +0.018 A 
ATOM     21  C   UNL     1       7.607  -0.394  -0.490  0.00  0.00    +0.005 A 
ATOM     22  C   UNL     1       8.157  -1.432  -1.181  0.00  0.00    +0.047 A 
ATOM     23 CL   UNL     1       6.794  -6.348  -2.142  0.00  0.00    -0.060 Cl
ENDBRANCH  12  14
ENDBRANCH  10  12
BRANCH   1  24
ATOM     24  C   UNL     1       1.692  -2.514   2.008  0.00  0.00    +0.106 C 
BRANCH  24  25
ATOM     25  C   UNL     1       0.928  -1.828   0.873  0.00  0.00    -0.057 C 
BRANCH  25  26
ATOM     26  N   UNL     1       0.747  -0.406   1.194  0.00  0.00    +0.380 N 
ATOM     27  H   UNL     1       0.283  -0.319   2.085  0.00  0.00    -0.082 HD
BRANCH  26  29
ATOM     28  C   UNL     1       1.880   1.702   1.714  0.00  0.00    -0.017 C 
ATOM     29  C   UNL     1       2.059   0.252   1.258  0.00  0.00    -0.082 C 
ENDBRANCH  26  29
BRANCH  26  30
ATOM     30  C   UNL     1      -0.069   0.231   0.152  0.00  0.00    -0.082 C 
ATOM     31  C   UNL     1      -1.474  -0.374   0.164  0.00  0.00    -0.017 C 
ENDBRANCH  26  30
ENDBRANCH  25  26
ENDBRANCH  24  25
ENDBRANCH   1  24
TORSDOF 7
