REMARK  Name = ZINC36534591
REMARK  13 active torsions:
REMARK  status: ('A' for Active; 'I' for Inactive)
REMARK    1  A    between atoms: C_1  and  C_2
REMARK    2  A    between atoms: C_2  and  C_3
REMARK    3  A    between atoms: C_3  and  C_4
REMARK    4  A    between atoms: C_4  and  N_5
REMARK    5  A    between atoms: C_6  and  C_8
REMARK    6  A    between atoms: C_8  and  C_10
REMARK    7  A    between atoms: C_8  and  N_20
REMARK    8  A    between atoms: C_13  and  C_16
REMARK    9  A    between atoms: N_20  and  C_21
REMARK   10  A    between atoms: C_22  and  C_24
REMARK   11  A    between atoms: C_24  and  C_25
REMARK   12  A    between atoms: C_24  and  C_31
REMARK   13  A    between atoms: C_24  and  O_37
REMARK                            x       y       z     vdW  Elec       q    Type
REMARK                         _______ _______ _______ _____ _____    ______ ____
ROOT
ATOM      1  C   UNL     1       2.237  -4.383   3.628  0.00  0.00    +0.192 C 
ENDROOT
BRANCH   1   2
ATOM      2  C   UNL     1       1.321  -4.285   4.821  0.00  0.00    -0.018 A 
ATOM      3  C   UNL     1       1.743  -3.630   5.964  0.00  0.00    +0.006 A 
ATOM      4  C   UNL     1       0.903  -3.540   7.058  0.00  0.00    +0.013 A 
ATOM      5  C   UNL     1      -0.358  -4.104   7.010  0.00  0.00    +0.055 A 
ATOM      6  C   UNL     1      -0.780  -4.758   5.867  0.00  0.00    +0.013 A 
ATOM      7  C   UNL     1       0.058  -4.844   4.771  0.00  0.00    +0.006 A 
BRANCH   5   8
ATOM      8  C   UNL     1      -1.273  -4.007   8.203  0.00  0.00    +0.417 C 
ATOM      9  F   UNL     1      -2.045  -2.844   8.105  0.00  0.00    -0.166 F 
ATOM     10  F   UNL     1      -2.115  -5.124   8.237  0.00  0.00    -0.166 F 
ATOM     11  F   UNL     1      -0.509  -3.963   9.374  0.00  0.00    -0.166 F 
ENDBRANCH   5   8
ENDBRANCH   1   2
BRANCH   1  13
ATOM     12  N   UNL     1       0.907  -2.812   2.255  0.00  0.00    -0.313 N 
ATOM     13  C   UNL     1       1.473  -4.029   2.378  0.00  0.00    +0.238 C 
ATOM     14  O   UNL     1       1.367  -4.840   1.483  0.00  0.00    -0.273 OA
ATOM     15  H   UNL     1       0.992  -2.164   2.972  0.00  0.00    +0.149 HD
BRANCH  12  16
ATOM     16  C   UNL     1       0.164  -2.469   1.040  0.00  0.00    +0.104 C 
BRANCH  16  17
ATOM     17  C   UNL     1      -0.371  -1.040   1.156  0.00  0.00    +0.018 C 
BRANCH  17  19
ATOM     18  C   UNL     1      -1.682   0.747   0.003  0.00  0.00    +0.004 C 
ATOM     19  C   UNL     1      -1.147  -0.682  -0.113  0.00  0.00    -0.002 C 
ENDBRANCH  17  19
ENDBRANCH  16  17
ENDBRANCH  12  16
ENDBRANCH   1  13
BRANCH   1  20
ATOM     20  N   UNL     1       2.749  -5.751   3.517  0.00  0.00    -0.286 N 
ATOM     21  C   UNL     1       1.823  -6.864   3.298  0.00  0.00    +0.133 C 
ATOM     22  C   UNL     1       4.073  -5.984   3.616  0.00  0.00    +0.257 C 
ATOM     23  O   UNL     1       4.848  -5.056   3.702  0.00  0.00    -0.272 OA
BRANCH  22  24
ATOM     24  C   UNL     1       4.590  -7.400   3.620  0.00  0.00    +0.192 C 
BRANCH  24  25
ATOM     25  C   UNL     1       6.058  -7.400   3.279  0.00  0.00    -0.003 A 
ATOM     26  C   UNL     1       7.001  -7.281   4.282  0.00  0.00    +0.007 A 
ATOM     27  C   UNL     1       8.347  -7.281   3.969  0.00  0.00    +0.000 A 
ATOM     28  C   UNL     1       8.750  -7.400   2.652  0.00  0.00    +0.000 A 
ATOM     29  C   UNL     1       7.807  -7.520   1.648  0.00  0.00    +0.000 A 
ATOM     30  C   UNL     1       6.461  -7.524   1.962  0.00  0.00    +0.007 A 
ENDBRANCH  24  25
BRANCH  24  31
ATOM     31  C   UNL     1       4.392  -8.003   4.987  0.00  0.00    -0.003 A 
ATOM     32  C   UNL     1       4.420  -7.196   6.109  0.00  0.00    +0.007 A 
ATOM     33  C   UNL     1       4.238  -7.749   7.363  0.00  0.00    +0.000 A 
ATOM     34  C   UNL     1       4.030  -9.109   7.495  0.00  0.00    +0.000 A 
ATOM     35  C   UNL     1       4.002  -9.916   6.373  0.00  0.00    +0.000 A 
ATOM     36  C   UNL     1       4.178  -9.362   5.119  0.00  0.00    +0.007 A 
ENDBRANCH  24  31
BRANCH  24  37
ATOM     37  O   UNL     1       3.875  -8.171   2.652  0.00  0.00    -0.371 OA
ATOM     38  H   UNL     1       3.958  -7.840   1.747  0.00  0.00    +0.212 HD
ENDBRANCH  24  37
ENDBRANCH  22  24
ENDBRANCH   1  20
TORSDOF 11
