REMARK  Name = ZINC63384667
REMARK  7 active torsions:
REMARK  status: ('A' for Active; 'I' for Inactive)
REMARK    1  A    between atoms: C_1  and  C_2
REMARK    2  A    between atoms: C_2  and  C_3
REMARK    3  A    between atoms: C_3  and  C_5
REMARK    4  A    between atoms: C_3  and  N_6
REMARK    5  A    between atoms: C_7  and  O_32
REMARK    6  A    between atoms: C_9  and  C_16
REMARK    7  A    between atoms: N_30  and  C_31
REMARK                            x       y       z     vdW  Elec       q    Type
REMARK                         _______ _______ _______ _____ _____    ______ ____
ROOT
ATOM      1  N   UNL     1       1.643   2.191  -0.214  0.00  0.00    -0.256 N 
ATOM      2  C   UNL     1       2.647   2.852  -1.049  0.00  0.00    +0.220 C 
ATOM      3  C   UNL     1       3.614   1.807  -1.610  0.00  0.00    +0.142 C 
ATOM      4  C   UNL     1       2.824   0.644  -2.157  0.00  0.00    +0.229 C 
ATOM      5  O   UNL     1       3.224   0.044  -3.132  0.00  0.00    -0.275 OA
ATOM      6  N   UNL     1       1.677   0.272  -1.561  0.00  0.00    -0.240 N 
ATOM      7  C   UNL     1       1.175   0.973  -0.531  0.00  0.00    +0.311 C 
ATOM      8  O   UNL     1       0.271   0.495   0.126  0.00  0.00    -0.252 OA
ATOM      9  H   UNL     1       1.208  -0.516  -1.878  0.00  0.00    +0.159 HD
ENDROOT
BRANCH   3  10
ATOM     10  C   UNL     1       4.448   2.431  -2.731  0.00  0.00    +0.099 C 
ATOM     11  C   UNL     1       5.371   3.505  -2.150  0.00  0.00    +0.124 C 
ATOM     12  C   UNL     1       6.034   4.188  -3.341  0.00  0.00    -0.036 C 
ATOM     13  C   UNL     1       7.341   4.122  -3.131  0.00  0.00    -0.001 A 
ATOM     14  C   UNL     1       8.483   4.674  -3.877  0.00  0.00    +0.010 A 
ATOM     15  C   UNL     1       9.717   4.396  -3.378  0.00  0.00    +0.001 A 
ATOM     16  C   UNL     1       9.925   3.634  -2.224  0.00  0.00    +0.002 A 
ATOM     17  C   UNL     1       8.934   3.093  -1.473  0.00  0.00    +0.026 A 
ATOM     18  C   UNL     1       7.592   3.321  -1.895  0.00  0.00    +0.043 A 
ATOM     19  N   UNL     1       6.454   2.941  -1.345  0.00  0.00    -0.376 N 
ATOM     20  C   UNL     1       5.226   4.700  -4.509  0.00  0.00    +0.049 C 
ATOM     21  C   UNL     1       4.266   3.562  -4.900  0.00  0.00    +0.089 C 
ATOM     22  N   UNL     1       3.559   3.068  -3.715  0.00  0.00    -0.299 NA
ATOM     23  C   UNL     1       2.462   2.167  -4.093  0.00  0.00    +0.105 C 
ATOM     24  H   UNL     1       6.346   2.386  -0.557  0.00  0.00    +0.160 HD
ENDBRANCH   3  10
BRANCH   1  25
ATOM     25  C   UNL     1       1.147   2.865   0.988  0.00  0.00    +0.077 C 
ATOM     26  C   UNL     1      -0.366   3.062   0.875  0.00  0.00    +0.028 C 
BRANCH  25  28
ATOM     27  C   UNL     1       2.974   1.916   2.403  0.00  0.00    +0.006 C 
ATOM     28  C   UNL     1       1.459   2.010   2.218  0.00  0.00    +0.019 C 
ENDBRANCH  25  28
ENDBRANCH   1  25
BRANCH   2  29
ATOM     29  O   UNL     1       1.999   3.528  -2.128  0.00  0.00    -0.373 OA
ATOM     30  H   UNL     1       1.371   4.207  -1.846  0.00  0.00    +0.212 HD
ENDBRANCH   2  29
TORSDOF 4
