REMARK  Name = ZINC23126618
REMARK  4 active torsions:
REMARK  status: ('A' for Active; 'I' for Inactive)
REMARK    1  A    between atoms: C_6  and  C_7
REMARK    2  A    between atoms: C_9  and  C_12
REMARK    3  A    between atoms: C_12  and  N_13
REMARK    4  A    between atoms: N_20  and  C_23
REMARK                            x       y       z     vdW  Elec       q    Type
REMARK                         _______ _______ _______ _____ _____    ______ ____
ROOT
ATOM      1  N   UNL     1      -5.389  -0.902  -1.343  0.00  0.00    -0.214 N 
ATOM      2  C   UNL     1      -5.850  -1.995  -2.183  0.00  0.00    +0.216 C 
ATOM      3  C   UNL     1      -6.956  -1.154  -2.925  0.00  0.00    +0.246 C 
ATOM      4  C   UNL     1      -7.748  -2.190  -3.544  0.00  0.00    +0.255 C 
ATOM      5  O   UNL     1      -8.334  -2.136  -4.603  0.00  0.00    -0.272 OA
ATOM      6  N   UNL     1      -7.692  -3.251  -2.674  0.00  0.00    -0.207 N 
ATOM      7  C   UNL     1      -6.749  -3.078  -1.677  0.00  0.00    +0.251 C 
ATOM      8  O   UNL     1      -6.666  -3.666  -0.620  0.00  0.00    -0.273 OA
ATOM      9  N   UNL     1      -6.359   0.088  -3.111  0.00  0.00    -0.156 NA
ATOM     10  N   UNL     1      -5.532   0.248  -2.164  0.00  0.00    -0.082 NA
ENDROOT
BRANCH   6  11
ATOM     11  C   UNL     1      -8.495  -4.395  -2.787  0.00  0.00    +0.044 A 
ATOM     12  C   UNL     1      -8.380  -5.421  -1.860  0.00  0.00    +0.024 A 
ATOM     13  C   UNL     1      -9.173  -6.545  -1.976  0.00  0.00    +0.006 A 
ATOM     14  C   UNL     1     -10.084  -6.653  -3.015  0.00  0.00    -0.044 A 
ATOM     15  C   UNL     1     -10.200  -5.633  -3.940  0.00  0.00    -0.042 A 
ATOM     16  C   UNL     1      -9.411  -4.502  -3.823  0.00  0.00    +0.028 A 
ATOM     17  C   UNL     1     -11.254  -5.990  -4.966  0.00  0.00    +0.036 C 
ATOM     18  C   UNL     1     -11.455  -7.514  -4.824  0.00  0.00    +0.009 C 
ATOM     19  C   UNL     1     -11.051  -7.766  -3.356  0.00  0.00    +0.036 C 
ENDBRANCH   6  11
BRANCH   1  20
ATOM     20  C   UNL     1      -4.895  -0.970   0.035  0.00  0.00    +0.227 C 
BRANCH  20  23
ATOM     21  C   UNL     1      -1.272  -0.764   0.010  0.00  0.00    +0.202 A 
ATOM     22  N   UNL     1      -2.506  -0.229   0.019  0.00  0.00    -0.190 NA
ATOM     23  C   UNL     1      -3.402  -1.173   0.024  0.00  0.00    +0.247 A 
ATOM     24  O   UNL     1      -2.773  -2.356   0.018  0.00  0.00    -0.336 OA
ATOM     25  N   UNL     1      -1.383  -2.070   0.004  0.00  0.00    -0.056 NA
BRANCH  21  31
ATOM     26  C   UNL     1      -0.017   1.389   0.010  0.00  0.00    +0.015 A 
ATOM     27  C   UNL     1       1.168   2.096   0.002  0.00  0.00    +0.050 A 
ATOM     28  C   UNL     1       2.381   1.423  -0.013  0.00  0.00    +0.166 A 
ATOM     29  C   UNL     1       2.405   0.029  -0.021  0.00  0.00    +0.167 A 
ATOM     30  C   UNL     1       1.220  -0.682  -0.014  0.00  0.00    +0.061 A 
ATOM     31  C   UNL     1       0.002  -0.004   0.002  0.00  0.00    +0.026 A 
ATOM     32  O   UNL     1       3.707  -0.384  -0.036  0.00  0.00    -0.453 OA
ATOM     33  C   UNL     1       4.470   0.765  -0.450  0.00  0.00    +0.466 C 
ATOM     34  O   UNL     1       3.667   1.881  -0.023  0.00  0.00    -0.453 OA
ENDBRANCH  21  31
ENDBRANCH  20  23
ENDBRANCH   1  20
TORSDOF 4
