REMARK  Name = ZINC12205945
REMARK  14 active torsions:
REMARK  status: ('A' for Active; 'I' for Inactive)
REMARK    1  A    between atoms: C_1  and  C_2
REMARK    2  A    between atoms: C_2  and  N_62
REMARK    3  A    between atoms: C_3  and  C_25
REMARK    4  A    between atoms: C_5  and  C_12
REMARK    5  A    between atoms: C_8  and  C_9
REMARK    6  A    between atoms: C_8  and  C_10
REMARK    7  A    between atoms: C_10  and  O_11
REMARK    8  A    between atoms: C_12  and  N_64
REMARK    9  A    between atoms: C_13  and  C_14
REMARK   10  A    between atoms: C_13  and  N_64
REMARK   11  A    between atoms: C_17  and  C_20
REMARK   12  A    between atoms: C_21  and  C_22
REMARK   13  A    between atoms: C_22  and  C_23
REMARK   14  A    between atoms: C_23  and  O_24
REMARK                            x       y       z     vdW  Elec       q    Type
REMARK                         _______ _______ _______ _____ _____    ______ ____
ROOT
ATOM      1  C   UNL     1       7.094   4.171  -2.988  0.00  0.00    -0.035 C 
ATOM      2  C   UNL     1       5.727   3.457  -2.914  0.00  0.00    -0.039 C 
ATOM      3  C   UNL     1       4.728   4.428  -3.577  0.00  0.00    -0.010 C 
ATOM      4  C   UNL     1       5.578   5.650  -3.995  0.00  0.00    -0.044 C 
ATOM      5  C   UNL     1       6.019   5.518  -5.454  0.00  0.00    -0.007 C 
ATOM      6  N   UNL     1       6.738   5.584  -3.099  0.00  0.00    +0.389 N 
ATOM      7  H   UNL     1       6.489   5.956  -2.175  0.00  0.00    -0.080 HD
ENDROOT
BRANCH   1   8
ATOM      8  C   UNL     1       7.894   3.907  -1.739  0.00  0.00    -0.061 A 
ATOM      9  C   UNL     1       7.637   4.628  -0.588  0.00  0.00    +0.003 A 
ATOM     10  C   UNL     1       8.366   4.382   0.560  0.00  0.00    +0.020 A 
ATOM     11  C   UNL     1       9.361   3.421   0.554  0.00  0.00    +0.041 A 
ATOM     12  C   UNL     1       9.621   2.703  -0.600  0.00  0.00    +0.020 A 
ATOM     13  C   UNL     1       8.888   2.946  -1.745  0.00  0.00    +0.003 A 
ATOM     14 CL   UNL     1      10.282   3.116   1.993  0.00  0.00    -0.084 Cl
ENDBRANCH   1   8
BRANCH   6  16
ATOM     15  C   UNL     1       9.023   6.428  -2.645  0.00  0.00    -0.017 C 
ATOM     16  C   UNL     1       7.877   6.377  -3.658  0.00  0.00    -0.081 C 
ENDBRANCH   6  16
BRANCH   4  17
ATOM     17  C   UNL     1       4.790   6.946  -3.793  0.00  0.00    +0.143 C 
BRANCH  17  18
ATOM     18  O   UNL     1       3.662   6.959  -4.670  0.00  0.00    -0.396 OA
ATOM     19  H   UNL     1       3.115   7.753  -4.596  0.00  0.00    +0.209 HD
ENDBRANCH  17  18
ENDBRANCH   4  17
BRANCH   2  20
ATOM     20  C   UNL     1       5.337   3.207  -1.456  0.00  0.00    -0.080 C 
BRANCH  20  21
ATOM     21  N   UNL     1       4.072   2.449  -1.417  0.00  0.00    +0.382 N 
ATOM     22  H   UNL     1       4.199   1.553  -1.903  0.00  0.00    -0.085 HD
ATOM     23  H   UNL     1       3.337   2.992  -1.887  0.00  0.00    -0.085 HD
BRANCH  21  24
ATOM     24  C   UNL     1       3.670   2.193  -0.021  0.00  0.00    -0.047 C 
BRANCH  24  25
ATOM     25  C   UNL     1       2.378   1.419  -0.013  0.00  0.00    -0.064 A 
ATOM     26  C   UNL     1       1.170   2.094   0.002  0.00  0.00    +0.003 A 
ATOM     27  C   UNL     1      -0.017   1.391   0.010  0.00  0.00    +0.017 A 
ATOM     28  C   UNL     1       0.002  -0.004   0.002  0.00  0.00    +0.025 A 
ATOM     29  C   UNL     1       1.223  -0.679  -0.013  0.00  0.00    +0.017 A 
ATOM     30  C   UNL     1       2.403   0.036  -0.021  0.00  0.00    +0.003 A 
BRANCH  28  31
ATOM     31  C   UNL     1      -1.226  -0.740   0.010  0.00  0.00    -0.066 C 
ATOM     32  C   UNL     1      -2.233  -1.343   0.017  0.00  0.00    -0.095 C 
BRANCH  32  33
ATOM     33  C   UNL     1      -3.496  -2.100   0.025  0.00  0.00    +0.117 C 
BRANCH  33  34
ATOM     34  C   UNL     1      -4.317  -1.736  -1.214  0.00  0.00    +0.168 C 
BRANCH  34  35
ATOM     35  O   UNL     1      -5.543  -2.470  -1.206  0.00  0.00    -0.394 OA
ATOM     36  H   UNL     1      -6.115  -2.290  -1.964  0.00  0.00    +0.209 HD
ENDBRANCH  34  35
ENDBRANCH  33  34
ENDBRANCH  32  33
ENDBRANCH  28  31
ENDBRANCH  24  25
ENDBRANCH  21  24
ENDBRANCH  20  21
ENDBRANCH   2  20
TORSDOF 12
