REMARK  Name = ZINC12772329
REMARK  6 active torsions:
REMARK  status: ('A' for Active; 'I' for Inactive)
REMARK    1  A    between atoms: N_9  and  C_25
REMARK    2  A    between atoms: C_10  and  C_12
REMARK    3  A    between atoms: C_12  and  N_13
REMARK    4  A    between atoms: C_15  and  N_22
REMARK    5  A    between atoms: C_17  and  C_20
REMARK    6  A    between atoms: C_25  and  C_26
REMARK                            x       y       z     vdW  Elec       q    Type
REMARK                         _______ _______ _______ _____ _____    ______ ____
ROOT
ATOM      1  C   UNL     1      -3.985  -0.347   5.470  0.00  0.00    +0.001 A 
ATOM      2  C   UNL     1      -3.397  -1.475   6.028  0.00  0.00    +0.002 A 
ATOM      3  C   UNL     1      -2.516  -2.244   5.303  0.00  0.00    +0.028 A 
ATOM      4  C   UNL     1      -2.208  -1.888   3.988  0.00  0.00    +0.078 A 
ATOM      5  C   UNL     1      -2.807  -0.741   3.423  0.00  0.00    +0.065 A 
ATOM      6  C   UNL     1      -3.696   0.024   4.175  0.00  0.00    +0.015 A 
ATOM      7  C   UNL     1      -2.461  -0.393   2.037  0.00  0.00    +0.262 A 
ATOM      8  O   UNL     1      -2.942   0.583   1.490  0.00  0.00    -0.267 OA
ATOM      9  N   UNL     1      -1.587  -1.201   1.391  0.00  0.00    -0.287 N 
ATOM     10  C   UNL     1      -1.063  -2.289   2.013  0.00  0.00    +0.133 A 
ATOM     11  N   UNL     1      -1.345  -2.617   3.237  0.00  0.00    -0.232 NA
ENDROOT
BRANCH  10  12
ATOM     12  C   UNL     1      -0.100  -3.156   1.244  0.00  0.00    +0.199 C 
BRANCH  12  13
ATOM     13  N   UNL     1       0.343  -4.266   2.093  0.00  0.00    -0.305 N 
ATOM     14  C   UNL     1       1.448  -4.117   2.863  0.00  0.00    +0.122 A 
ATOM     15  C   UNL     1       1.885  -5.119   3.666  0.00  0.00    +0.144 A 
ATOM     16  C   UNL     1       1.203  -6.336   3.703  0.00  0.00    +0.058 A 
ATOM     17  C   UNL     1       0.070  -6.498   2.910  0.00  0.00    +0.118 A 
ATOM     18  C   UNL     1      -0.352  -5.419   2.090  0.00  0.00    +0.269 A 
ATOM     19  O   UNL     1      -1.340  -5.536   1.386  0.00  0.00    -0.266 OA
BRANCH  15  20
ATOM     20  N   UNL     1       3.092  -4.923   4.500  0.00  0.00    +0.058 N 
ATOM     21  O   UNL     1       3.688  -3.861   4.469  0.00  0.00    -0.126 OA
ATOM     22  O   UNL     1       3.489  -5.824   5.218  0.00  0.00    -0.126 OA
ENDBRANCH  15  20
BRANCH  17  23
ATOM     23  C   UNL     1      -0.656  -7.733   2.921  0.00  0.00    +0.105 C 
ATOM     24  N   UNL     1      -1.232  -8.712   2.929  0.00  0.00    -0.191 NA
ENDBRANCH  17  23
ENDBRANCH  12  13
ENDBRANCH  10  12
BRANCH   9  25
ATOM     25  C   UNL     1      -1.208  -0.902   0.008  0.00  0.00    +0.200 C 
BRANCH  25  26
ATOM     26  C   UNL     1       0.002  -0.004   0.002  0.00  0.00    +0.125 A 
ATOM     27  C   UNL     1       1.284  -0.412  -0.012  0.00  0.00    +0.046 A 
ATOM     28  C   UNL     1       2.084   0.754  -0.014  0.00  0.00    +0.041 A 
ATOM     29  C   UNL     1       1.244   1.804  -0.000  0.00  0.00    +0.195 A 
ATOM     30  O   UNL     1      -0.016   1.339   0.009  0.00  0.00    -0.466 OA
ENDBRANCH  25  26
ENDBRANCH   9  25
TORSDOF 6
