REMARK  Name = ZINC23805006
REMARK  8 active torsions:
REMARK  status: ('A' for Active; 'I' for Inactive)
REMARK    1  A    between atoms: C_1  and  N_2
REMARK    2  A    between atoms: N_7  and  C_10
REMARK    3  A    between atoms: N_11  and  C_14
REMARK    4  A    between atoms: C_14  and  C_15
REMARK    5  A    between atoms: C_15  and  C_16
REMARK    6  A    between atoms: C_16  and  C_17
REMARK    7  A    between atoms: N_22  and  C_25
REMARK    8  A    between atoms: C_25  and  C_26
REMARK                            x       y       z     vdW  Elec       q    Type
REMARK                         _______ _______ _______ _____ _____    ______ ____
ROOT
ATOM      1  C   UNL     1      -0.175   6.027  -3.297  0.00  0.00    +0.031 C 
ENDROOT
BRANCH   1   2
ATOM      2  C   UNL     1      -0.328   7.544  -3.167  0.00  0.00    +0.124 C 
BRANCH   2  13
ATOM      3  C   UNL     1       0.673  10.049  -8.652  0.00  0.00    +0.155 C 
ATOM      4  N   UNL     1      -0.206   9.374  -7.694  0.00  0.00    -0.280 N 
ATOM      5  C   UNL     1       0.269   9.038  -6.437  0.00  0.00    +0.168 A 
ATOM      6  C   UNL     1      -0.583   8.393  -5.549  0.00  0.00    +0.151 A 
ATOM      7  C   UNL     1      -1.907   8.111  -5.948  0.00  0.00    +0.282 A 
ATOM      8  O   UNL     1      -2.674   7.551  -5.185  0.00  0.00    -0.265 OA
ATOM      9  N   UNL     1      -2.311   8.463  -7.186  0.00  0.00    -0.262 N 
ATOM     10  C   UNL     1      -1.475   9.082  -8.037  0.00  0.00    +0.333 A 
ATOM     11  O   UNL     1      -1.874   9.385  -9.145  0.00  0.00    -0.246 OA
ATOM     12  C   UNL     1      -3.682   8.167  -7.608  0.00  0.00    +0.157 C 
ATOM     13  N   UNL     1       0.146   8.189  -4.394  0.00  0.00    -0.325 N 
ATOM     14  C   UNL     1       1.377   8.690  -4.612  0.00  0.00    +0.202 A 
ATOM     15  N   UNL     1       1.443   9.190  -5.820  0.00  0.00    -0.218 NA
ENDBRANCH   2  13
ENDBRANCH   1   2
BRANCH   1  16
ATOM     16  C   UNL     1      -0.670   5.353  -2.015  0.00  0.00    +0.098 C 
BRANCH  16  17
ATOM     17  C   UNL     1      -0.519   3.859  -2.143  0.00  0.00    +0.216 C 
ATOM     18  O   UNL     1      -0.061   3.380  -3.159  0.00  0.00    -0.276 OA
ATOM     19  N   UNL     1      -0.893   3.055  -1.129  0.00  0.00    -0.299 N 
ATOM     20  C   UNL     1      -0.755   1.594  -1.233  0.00  0.00    +0.123 C 
ATOM     21  C   UNL     1      -0.013   1.086   0.008  0.00  0.00    +0.103 C 
ATOM     22  N   UNL     1      -0.701   1.560   1.216  0.00  0.00    -0.295 NA
ATOM     23  C   UNL     1      -0.681   3.026   1.300  0.00  0.00    +0.103 C 
ATOM     24  C   UNL     1      -1.450   3.614   0.112  0.00  0.00    +0.123 C 
BRANCH  22  25
ATOM     25  C   UNL     1      -0.123   0.955   2.423  0.00  0.00    +0.120 C 
BRANCH  25  26
ATOM     26  C   UNL     1      -0.680   1.641   3.644  0.00  0.00    -0.026 A 
ATOM     27  C   UNL     1      -0.042   2.743   4.182  0.00  0.00    +0.012 A 
ATOM     28  C   UNL     1      -0.572   3.339   5.278  0.00  0.00    +0.045 A 
ATOM     29  S   UNL     1      -2.009   2.327   5.590  0.00  0.00    -0.105 S 
ATOM     30  C   UNL     1      -1.810   1.182   4.235  0.00  0.00    +0.050 A 
ENDBRANCH  25  26
ENDBRANCH  22  25
ENDBRANCH  16  17
ENDBRANCH   1  16
TORSDOF 6
