REMARK  Name = ZINC05295055
REMARK  7 active torsions:
REMARK  status: ('A' for Active; 'I' for Inactive)
REMARK    1  A    between atoms: C_1  and  C_2
REMARK    2  A    between atoms: C_2  and  C_26
REMARK    3  A    between atoms: N_3  and  N_4
REMARK    4  A    between atoms: N_9  and  C_10
REMARK    5  A    between atoms: C_10  and  C_11
REMARK    6  A    between atoms: N_24  and  C_25
REMARK    7  A    between atoms: C_30  and  N_32
REMARK                            x       y       z     vdW  Elec       q    Type
REMARK                         _______ _______ _______ _____ _____    ______ ____
ROOT
ATOM      1  N   UNL     1      -1.321  -3.899  -1.469  0.00  0.00    -0.206 N 
ATOM      2  C   UNL     1      -2.608  -3.437  -1.630  0.00  0.00    +0.218 A 
ATOM      3  N   UNL     1      -3.345  -3.597  -2.710  0.00  0.00    -0.195 NA
ATOM      4  C   UNL     1      -4.538  -3.029  -2.535  0.00  0.00    +0.170 A 
ATOM      5  C   UNL     1      -4.558  -2.478  -1.258  0.00  0.00    +0.153 A 
ATOM      6  N   UNL     1      -3.317  -2.744  -0.698  0.00  0.00    -0.301 N 
ATOM      7  C   UNL     1      -5.713  -1.806  -0.818  0.00  0.00    +0.280 A 
ATOM      8  O   UNL     1      -5.751  -1.312   0.296  0.00  0.00    -0.265 OA
ATOM      9  N   UNL     1      -6.779  -1.719  -1.639  0.00  0.00    -0.273 N 
ATOM     10  H   UNL     1      -7.604  -1.246  -1.327  0.00  0.00    +0.173 HD
ATOM     11  C   UNL     1      -6.752  -2.259  -2.870  0.00  0.00    +0.331 A 
ATOM     12  O   UNL     1      -7.732  -2.160  -3.583  0.00  0.00    -0.246 OA
ATOM     13  N   UNL     1      -5.665  -2.906  -3.333  0.00  0.00    -0.280 N 
ATOM     14  C   UNL     1      -5.675  -3.480  -4.680  0.00  0.00    +0.155 C 
ATOM     15  H   UNL     1      -0.848  -3.737  -0.638  0.00  0.00    +0.177 HD
ENDROOT
BRANCH   1  18
ATOM     16  C   UNL     1       1.229  -5.731  -3.475  0.00  0.00    +0.068 C 
ATOM     17  C   UNL     1       0.472  -5.138  -2.314  0.00  0.00    +0.063 C 
ATOM     18  N   UNL     1      -0.695  -4.603  -2.506  0.00  0.00    -0.184 NA
BRANCH  17  19
ATOM     19  C   UNL     1       1.058  -5.165  -0.961  0.00  0.00    -0.000 A 
ATOM     20  C   UNL     1       0.241  -5.366   0.154  0.00  0.00    +0.010 A 
ATOM     21  C   UNL     1       0.796  -5.390   1.416  0.00  0.00    +0.003 A 
ATOM     22  C   UNL     1       2.159  -5.215   1.580  0.00  0.00    +0.033 A 
ATOM     23  C   UNL     1       2.974  -5.016   0.480  0.00  0.00    +0.127 A 
ATOM     24  C   UNL     1       2.434  -4.995  -0.789  0.00  0.00    +0.042 A 
BRANCH  23  25
ATOM     25  N   UNL     1       4.431  -4.831   0.665  0.00  0.00    +0.056 N 
ATOM     26  O   UNL     1       4.911  -4.854   1.785  0.00  0.00    -0.126 OA
ATOM     27  O   UNL     1       5.151  -4.656  -0.301  0.00  0.00    -0.126 OA
ENDBRANCH  23  25
ENDBRANCH  17  19
ENDBRANCH   1  18
BRANCH   6  28
ATOM     28  C   UNL     1      -2.860  -2.360   0.640  0.00  0.00    +0.160 C 
BRANCH  28  29
ATOM     29  C   UNL     1      -2.199  -1.007   0.575  0.00  0.00    -0.027 A 
ATOM     30  C   UNL     1      -0.841  -0.912   0.336  0.00  0.00    +0.005 A 
ATOM     31  C   UNL     1      -0.234   0.329   0.277  0.00  0.00    +0.001 A 
ATOM     32  C   UNL     1      -0.985   1.475   0.456  0.00  0.00    +0.015 A 
ATOM     33  C   UNL     1      -2.344   1.381   0.695  0.00  0.00    +0.018 A 
ATOM     34  C   UNL     1      -2.951   0.139   0.754  0.00  0.00    +0.020 A 
ATOM     35 BR   UNL     1      -3.373   2.949   0.940  0.00  0.00    -0.050 Br
ENDBRANCH  28  29
ENDBRANCH   6  28
TORSDOF 5
