REMARK  Name = ZINC59386263
REMARK  10 active torsions:
REMARK  status: ('A' for Active; 'I' for Inactive)
REMARK    1  A    between atoms: C_1  and  C_2
REMARK    2  A    between atoms: C_3  and  C_19
REMARK    3  A    between atoms: C_4  and  C_10
REMARK    4  A    between atoms: C_13  and  N_16
REMARK    5  A    between atoms: N_16  and  C_17
REMARK    6  A    between atoms: N_16  and  C_18
REMARK    7  A    between atoms: N_21  and  N_22
REMARK    8  A    between atoms: C_23  and  C_24
REMARK    9  A    between atoms: C_27  and  O_30
REMARK   10  A    between atoms: O_30  and  C_31
REMARK                            x       y       z     vdW  Elec       q    Type
REMARK                         _______ _______ _______ _____ _____    ______ ____
ROOT
ATOM      1  C   UNL     1       0.289   1.371  -0.021  0.00  0.00    +0.061 C 
ATOM      2  C   UNL     1       0.188  -0.132  -0.012  0.00  0.00    +0.017 C 
ATOM      3  C   UNL     1      -1.030  -0.716  -0.033  0.00  0.00    +0.057 C 
ATOM      4  C   UNL     1      -1.087  -2.230  -0.023  0.00  0.00    +0.139 C 
ATOM      5  N   UNL     1       0.200  -2.946   0.009  0.00  0.00    -0.315 N 
ATOM      6  C   UNL     1       1.337  -2.222   0.027  0.00  0.00    +0.135 C 
ATOM      7  S   UNL     1       2.840  -3.041   0.063  0.00  0.00    -0.019 S 
ATOM      8  N   UNL     1       1.329  -0.883   0.011  0.00  0.00    -0.300 N 
ATOM      9  H   UNL     1       0.229  -3.915   0.017  0.00  0.00    +0.149 HD
ATOM     10  H   UNL     1       2.181  -0.420   0.021  0.00  0.00    +0.154 HD
ENDROOT
BRANCH   4  11
ATOM     11  C   UNL     1      -1.835  -2.675  -1.253  0.00  0.00    -0.023 A 
ATOM     12  C   UNL     1      -1.190  -2.715  -2.475  0.00  0.00    +0.007 A 
ATOM     13  C   UNL     1      -1.873  -3.123  -3.605  0.00  0.00    +0.023 A 
ATOM     14  C   UNL     1      -3.209  -3.492  -3.511  0.00  0.00    +0.029 A 
ATOM     15  C   UNL     1      -3.853  -3.450  -2.281  0.00  0.00    +0.023 A 
ATOM     16  C   UNL     1      -3.163  -3.047  -1.155  0.00  0.00    +0.007 A 
BRANCH  14  17
ATOM     17  N   UNL     1      -3.902  -3.904  -4.651  0.00  0.00    -0.336 N 
ATOM     18  C   UNL     1      -3.192  -4.068  -5.922  0.00  0.00    +0.129 C 
ATOM     19  C   UNL     1      -5.341  -4.172  -4.577  0.00  0.00    +0.129 C 
ENDBRANCH  14  17
ENDBRANCH   4  11
BRANCH   3  20
ATOM     20  C   UNL     1      -2.213   0.061  -0.062  0.00  0.00    +0.263 C 
ATOM     21  O   UNL     1      -2.883   0.190   0.947  0.00  0.00    -0.269 OA
ATOM     22  N   UNL     1      -2.599   0.658  -1.207  0.00  0.00    -0.203 N 
ATOM     23  H   UNL     1      -2.109   0.495  -2.028  0.00  0.00    +0.178 HD
BRANCH  22  24
ATOM     24  N   UNL     1      -3.708   1.515  -1.212  0.00  0.00    -0.187 NA
ATOM     25  C   UNL     1      -4.080   2.090  -2.314  0.00  0.00    +0.138 C 
BRANCH  25  26
ATOM     26  C   UNL     1      -5.246   2.991  -2.319  0.00  0.00    -0.005 A 
ATOM     27  C   UNL     1      -5.950   3.232  -1.136  0.00  0.00    +0.013 A 
ATOM     28  C   UNL     1      -7.041   4.075  -1.145  0.00  0.00    +0.046 A 
ATOM     29  C   UNL     1      -7.440   4.684  -2.328  0.00  0.00    +0.120 A 
ATOM     30  C   UNL     1      -6.743   4.448  -3.506  0.00  0.00    +0.046 A 
ATOM     31  C   UNL     1      -5.648   3.611  -3.505  0.00  0.00    +0.013 A 
BRANCH  29  32
ATOM     32  O   UNL     1      -8.516   5.514  -2.332  0.00  0.00    -0.495 OA
ATOM     33  C   UNL     1      -8.872   6.107  -3.582  0.00  0.00    +0.277 C 
ENDBRANCH  29  32
ENDBRANCH  25  26
ENDBRANCH  22  24
ENDBRANCH   3  20
TORSDOF 6
