REMARK  Name = ZINC02969671
REMARK  11 active torsions:
REMARK  status: ('A' for Active; 'I' for Inactive)
REMARK    1  A    between atoms: C_1  and  C_2
REMARK    2  A    between atoms: C_5  and  N_9
REMARK    3  A    between atoms: C_6  and  C_8
REMARK    4  A    between atoms: C_10  and  C_12
REMARK    5  A    between atoms: C_12  and  S_13
REMARK    6  A    between atoms: S_13  and  C_14
REMARK    7  A    between atoms: C_25  and  C_27
REMARK    8  A    between atoms: C_27  and  C_28
REMARK    9  A    between atoms: C_28  and  C_29
REMARK   10  A    between atoms: C_30  and  C_36
REMARK   11  A    between atoms: C_34  and  C_35
REMARK                            x       y       z     vdW  Elec       q    Type
REMARK                         _______ _______ _______ _____ _____    ______ ____
ROOT
ATOM      1  C   UNL     1      -0.356  -8.692  -2.728  0.00  0.00    +0.192 A 
ATOM      2  N   UNL     1      -0.334  -9.209  -1.526  0.00  0.00    -0.222 NA
ATOM      3  C   UNL     1      -0.408 -10.545  -1.318  0.00  0.00    +0.077 A 
ATOM      4  C   UNL     1      -0.384 -11.085  -0.029  0.00  0.00    +0.028 A 
ATOM      5  C   UNL     1      -0.461 -12.448   0.143  0.00  0.00    +0.002 A 
ATOM      6  C   UNL     1      -0.562 -13.298  -0.951  0.00  0.00    +0.001 A 
ATOM      7  C   UNL     1      -0.587 -12.791  -2.232  0.00  0.00    +0.014 A 
ATOM      8  C   UNL     1      -0.511 -11.414  -2.429  0.00  0.00    +0.045 A 
ATOM      9  C   UNL     1      -0.533 -10.817  -3.769  0.00  0.00    +0.168 A 
ATOM     10  N   UNL     1      -0.459  -9.454  -3.860  0.00  0.00    -0.188 N 
ATOM     11  N   UNL     1      -0.508  -9.156  -5.228  0.00  0.00    -0.148 NA
ATOM     12  C   UNL     1      -0.610 -10.295  -5.867  0.00  0.00    +0.152 A 
ATOM     13  N   UNL     1      -0.617 -11.297  -4.992  0.00  0.00    -0.211 NA
ENDROOT
BRANCH   1  14
ATOM     14  S   UNL     1      -0.255  -6.941  -2.895  0.00  0.00    -0.077 S 
BRANCH  14  15
ATOM     15  C   UNL     1      -0.134  -6.343  -1.187  0.00  0.00    +0.173 C 
BRANCH  15  17
ATOM     16  N   UNL     1       0.059  -4.170  -0.021  0.00  0.00    -0.285 N 
ATOM     17  C   UNL     1      -0.040  -4.839  -1.187  0.00  0.00    +0.227 C 
ATOM     18  O   UNL     1      -0.054  -4.230  -2.236  0.00  0.00    -0.275 OA
ATOM     19  H   UNL     1       0.135  -4.658   0.814  0.00  0.00    +0.155 HD
BRANCH  16  24
ATOM     20  C   UNL     1       0.025   1.503   0.005  0.00  0.00    +0.044 C 
ATOM     21  C   UNL     1       0.034  -0.004  -0.002  0.00  0.00    -0.050 A 
ATOM     22  C   UNL     1       0.632  -0.685  -1.046  0.00  0.00    +0.005 A 
ATOM     23  C   UNL     1       0.641  -2.066  -1.055  0.00  0.00    +0.024 A 
ATOM     24  C   UNL     1       0.051  -2.771  -0.014  0.00  0.00    +0.036 A 
ATOM     25  C   UNL     1      -0.548  -2.083   1.033  0.00  0.00    -0.029 A 
ATOM     26  C   UNL     1      -0.550  -0.702   1.039  0.00  0.00    +0.008 A 
ATOM     27  C   UNL     1      -1.190  -2.843   2.165  0.00  0.00    +0.045 C 
ENDBRANCH  16  24
ENDBRANCH  15  17
ENDBRANCH  14  15
ENDBRANCH   1  14
BRANCH  12  28
ATOM     28  C   UNL     1      -0.694 -10.449  -7.364  0.00  0.00    +0.083 C 
BRANCH  28  29
ATOM     29  C   UNL     1       0.716 -10.590  -7.941  0.00  0.00    +0.046 C 
BRANCH  29  30
ATOM     30  C   UNL     1       0.632 -10.743  -9.438  0.00  0.00    -0.004 A 
ATOM     31  C   UNL     1       0.520 -11.910 -10.114  0.00  0.00    +0.036 A 
ATOM     32  N   UNL     1       0.476 -11.620 -11.431  0.00  0.00    -0.281 N 
ATOM     33  H   UNL     1       0.397 -12.262 -12.155  0.00  0.00    +0.189 HD
ATOM     34  N   UNL     1       0.563 -10.229 -11.569  0.00  0.00    -0.179 NA
ATOM     35  C   UNL     1       0.650  -9.704 -10.374  0.00  0.00    +0.063 A 
ATOM     36  C   UNL     1       0.757  -8.234 -10.060  0.00  0.00    +0.068 C 
ATOM     37  C   UNL     1       0.458 -13.287  -9.505  0.00  0.00    +0.065 C 
ENDBRANCH  29  30
ENDBRANCH  28  29
ENDBRANCH  12  28
TORSDOF 7
