REMARK  Name = ZINC35544525
REMARK  8 active torsions:
REMARK  status: ('A' for Active; 'I' for Inactive)
REMARK    1  A    between atoms: C_1  and  C_2
REMARK    2  A    between atoms: C_2  and  O_3
REMARK    3  A    between atoms: O_3  and  C_4
REMARK    4  A    between atoms: C_4  and  C_6
REMARK    5  A    between atoms: C_13  and  C_15
REMARK    6  A    between atoms: C_20  and  N_38
REMARK    7  A    between atoms: N_28  and  C_31
REMARK    8  A    between atoms: C_31  and  C_32
REMARK                            x       y       z     vdW  Elec       q    Type
REMARK                         _______ _______ _______ _____ _____    ______ ____
ROOT
ATOM      1  C   UNL     1       3.513  -5.920  -5.000  0.00  0.00    +0.098 C 
ATOM      2  C   UNL     1       2.342  -6.580  -5.726  0.00  0.00    +0.051 C 
ATOM      3  C   UNL     1       1.833  -7.737  -4.907  0.00  0.00    -0.023 A 
ATOM      4  C   UNL     1       0.518  -8.142  -5.052  0.00  0.00    +0.038 A 
ATOM      5  C   UNL     1       0.030  -9.198  -4.306  0.00  0.00    +0.127 A 
ATOM      6  C   UNL     1       0.856  -9.855  -3.412  0.00  0.00    +0.034 A 
ATOM      7  C   UNL     1       2.169  -9.459  -3.265  0.00  0.00    +0.025 A 
ATOM      8  C   UNL     1       2.663  -8.396  -4.017  0.00  0.00    +0.033 A 
ATOM      9  N   UNL     1       4.007  -8.023  -3.853  0.00  0.00    -0.329 N 
ATOM     10  C   UNL     1       4.579  -6.975  -4.684  0.00  0.00    +0.069 C 
ATOM     11  C   UNL     1       5.780  -6.289  -4.052  0.00  0.00    -0.055 C 
ATOM     12  N   UNL     1       6.632  -7.234  -3.332  0.00  0.00    +0.385 N 
ATOM     13  C   UNL     1       5.855  -7.841  -2.241  0.00  0.00    -0.059 C 
ATOM     14  C   UNL     1       4.792  -8.750  -2.853  0.00  0.00    +0.087 C 
ATOM     15  H   UNL     1       6.947  -7.955  -3.965  0.00  0.00    -0.081 HD
ENDROOT
BRANCH   1  22
ATOM     16  C   UNL     1       2.466  -2.120  -2.288  0.00  0.00    +0.115 C 
ATOM     17  C   UNL     1       2.248  -1.270  -3.542  0.00  0.00    +0.018 C 
ATOM     18  C   UNL     1       2.959  -1.919  -4.731  0.00  0.00    +0.020 C 
ATOM     19  C   UNL     1       2.365  -3.309  -4.980  0.00  0.00    +0.108 C 
ATOM     20  N   UNL     1       2.440  -4.085  -3.735  0.00  0.00    -0.300 N 
ATOM     21  C   UNL     1       1.867  -3.512  -2.509  0.00  0.00    +0.122 C 
ATOM     22  C   UNL     1       3.024  -5.300  -3.717  0.00  0.00    +0.221 C 
ATOM     23  O   UNL     1       3.155  -5.894  -2.668  0.00  0.00    -0.275 OA
BRANCH  16  24
ATOM     24  C   UNL     1       1.792  -1.463  -1.111  0.00  0.00    +0.312 C 
ATOM     25  O   UNL     1       0.923  -2.047  -0.509  0.00  0.00    -0.250 OA
BRANCH  24  26
ATOM     26  O   UNL     1       2.158  -0.228  -0.732  0.00  0.00    -0.465 OA
BRANCH  26  28
ATOM     27  C   UNL     1       2.025   1.734   0.673  0.00  0.00    +0.048 C 
ATOM     28  C   UNL     1       1.477   0.333   0.392  0.00  0.00    +0.229 C 
ENDBRANCH  26  28
ENDBRANCH  24  26
ENDBRANCH  16  24
ENDBRANCH   1  22
BRANCH   5  29
ATOM     29  N   UNL     1      -1.377  -9.627  -4.465  0.00  0.00    +0.056 N 
ATOM     30  O   UNL     1      -2.100  -9.054  -5.247  0.00  0.00    -0.126 OA
ATOM     31  O   UNL     1      -1.805 -10.551  -3.813  0.00  0.00    -0.126 OA
ENDBRANCH   5  29
BRANCH  12  32
ATOM     32  C   UNL     1       7.792  -6.525  -2.775  0.00  0.00    -0.043 C 
BRANCH  32  33
ATOM     33  C   UNL     1       8.731  -7.519  -2.140  0.00  0.00    -0.064 A 
ATOM     34  C   UNL     1       8.582  -7.856  -0.808  0.00  0.00    +0.002 A 
ATOM     35  C   UNL     1       9.443  -8.767  -0.226  0.00  0.00    +0.000 A 
ATOM     36  C   UNL     1      10.453  -9.341  -0.975  0.00  0.00    +0.000 A 
ATOM     37  C   UNL     1      10.601  -9.004  -2.308  0.00  0.00    +0.000 A 
ATOM     38  C   UNL     1       9.737  -8.097  -2.892  0.00  0.00    +0.002 A 
ENDBRANCH  32  33
ENDBRANCH  12  32
TORSDOF 7
