REMARK  Name = ZINC11972604
REMARK  6 active torsions:
REMARK  status: ('A' for Active; 'I' for Inactive)
REMARK    1  A    between atoms: N_11  and  C_12
REMARK    2  A    between atoms: C_12  and  C_13
REMARK    3  A    between atoms: C_13  and  C_14
REMARK    4  A    between atoms: N_16  and  C_17
REMARK    5  A    between atoms: C_17  and  C_18
REMARK    6  A    between atoms: C_25  and  C_28
REMARK                            x       y       z     vdW  Elec       q    Type
REMARK                         _______ _______ _______ _____ _____    ______ ____
ROOT
ATOM      1  C   UNL     1       3.669   4.524   1.392  0.00  0.00    +0.215 C 
ATOM      2  O   UNL     1       2.933   5.180   2.098  0.00  0.00    -0.276 OA
ATOM      3  N   UNL     1       3.188   3.457   0.724  0.00  0.00    -0.312 N 
ATOM      4  H   UNL     1       3.776   2.932   0.160  0.00  0.00    +0.149 HD
ENDROOT
BRANCH   1   5
ATOM      5  C   UNL     1       5.123   4.901   1.262  0.00  0.00    +0.117 C 
BRANCH   5   6
ATOM      6  C   UNL     1       5.407   6.138   2.115  0.00  0.00    +0.136 C 
BRANCH   6  17
ATOM      7  C   UNL     1      10.279   5.505   4.025  0.00  0.00    +0.002 A 
ATOM      8  C   UNL     1       9.118   4.913   4.489  0.00  0.00    +0.002 A 
ATOM      9  C   UNL     1       7.908   5.180   3.879  0.00  0.00    +0.028 A 
ATOM     10  C   UNL     1       7.856   6.050   2.800  0.00  0.00    +0.070 A 
ATOM     11  C   UNL     1       9.028   6.643   2.328  0.00  0.00    +0.067 A 
ATOM     12  C   UNL     1      10.238   6.369   2.947  0.00  0.00    +0.028 A 
ATOM     13  N   UNL     1       8.667   7.448   1.251  0.00  0.00    -0.306 N 
ATOM     14  H   UNL     1       9.271   7.990   0.719  0.00  0.00    +0.170 HD
ATOM     15  C   UNL     1       7.336   7.344   1.071  0.00  0.00    +0.328 A 
ATOM     16  O   UNL     1       6.698   7.921   0.211  0.00  0.00    -0.247 OA
ATOM     17  N   UNL     1       6.819   6.505   1.989  0.00  0.00    -0.292 N 
ENDBRANCH   6  17
ENDBRANCH   5   6
ENDBRANCH   1   5
BRANCH   3  18
ATOM     18  C   UNL     1       1.775   3.090   0.851  0.00  0.00    +0.149 C 
BRANCH  18  19
ATOM     19  C   UNL     1       1.491   1.852  -0.002  0.00  0.00    +0.195 C 
ATOM     20  C   UNL     1      -0.018   1.512   0.010  0.00  0.00    +0.085 C 
ATOM     21  C   UNL     1       0.002  -0.004   0.002  0.00  0.00    -0.000 A 
ATOM     22  C   UNL     1      -0.973  -0.940  -0.266  0.00  0.00    +0.027 A 
ATOM     23  C   UNL     1      -0.678  -2.292  -0.207  0.00  0.00    +0.042 A 
ATOM     24  C   UNL     1       0.599  -2.705   0.120  0.00  0.00    +0.035 A 
ATOM     25  C   UNL     1       1.589  -1.766   0.395  0.00  0.00    +0.062 A 
ATOM     26  C   UNL     1       1.290  -0.395   0.340  0.00  0.00    +0.135 A 
ATOM     27  O   UNL     1       2.085   0.682   0.584  0.00  0.00    -0.486 OA
ATOM     28 CL   UNL     1      -1.911  -3.467  -0.545  0.00  0.00    -0.084 Cl
BRANCH  25  29
ATOM     29  C   UNL     1       2.957  -2.212   0.745  0.00  0.00    +0.163 A 
ATOM     30  N   UNL     1       3.890  -1.304   0.999  0.00  0.00    -0.236 NA
ATOM     31  C   UNL     1       5.119  -1.669   1.319  0.00  0.00    +0.114 A 
ATOM     32  C   UNL     1       5.430  -3.020   1.378  0.00  0.00    +0.039 A 
ATOM     33  C   UNL     1       4.433  -3.943   1.102  0.00  0.00    +0.114 A 
ATOM     34  N   UNL     1       3.222  -3.511   0.793  0.00  0.00    -0.236 NA
ENDBRANCH  25  29
ENDBRANCH  18  19
ENDBRANCH   3  18
TORSDOF 6
