REMARK  Name = ZINC36580955
REMARK  15 active torsions:
REMARK  status: ('A' for Active; 'I' for Inactive)
REMARK    1  A    between atoms: C_1  and  C_2
REMARK    2  A    between atoms: C_5  and  S_8
REMARK    3  A    between atoms: S_8  and  C_11
REMARK    4  A    between atoms: C_11  and  N_12
REMARK    5  A    between atoms: C_13  and  C_15
REMARK    6  A    between atoms: C_15  and  C_17
REMARK    7  A    between atoms: C_15  and  N_23
REMARK    8  A    between atoms: N_23  and  C_36
REMARK    9  A    between atoms: C_24  and  C_26
REMARK   10  A    between atoms: C_26  and  C_28
REMARK   11  A    between atoms: C_26  and  O_34
REMARK   12  A    between atoms: O_34  and  C_35
REMARK   13  A    between atoms: C_36  and  C_37
REMARK   14  A    between atoms: C_36  and  C_38
REMARK   15  A    between atoms: C_36  and  C_39
REMARK                            x       y       z     vdW  Elec       q    Type
REMARK                         _______ _______ _______ _____ _____    ______ ____
ROOT
ATOM      1  C   UNL     1       1.853  -4.661   2.912  0.00  0.00    +0.193 C 
ENDROOT
BRANCH   1   2
ATOM      2  C   UNL     1       1.654  -3.307   3.543  0.00  0.00    -0.018 A 
ATOM      3  C   UNL     1       1.186  -3.211   4.840  0.00  0.00    +0.006 A 
ATOM      4  C   UNL     1       1.003  -1.969   5.419  0.00  0.00    +0.000 A 
ATOM      5  C   UNL     1       1.290  -0.823   4.701  0.00  0.00    +0.000 A 
ATOM      6  C   UNL     1       1.759  -0.919   3.404  0.00  0.00    +0.000 A 
ATOM      7  C   UNL     1       1.945  -2.161   2.827  0.00  0.00    +0.006 A 
ENDBRANCH   1   2
BRANCH   1   9
ATOM      8  N   UNL     1       0.148  -4.158   1.192  0.00  0.00    -0.294 N 
ATOM      9  C   UNL     1       0.633  -5.023   2.104  0.00  0.00    +0.239 C 
ATOM     10  O   UNL     1       0.088  -6.093   2.275  0.00  0.00    -0.273 OA
ATOM     11  H   UNL     1       0.584  -3.302   1.055  0.00  0.00    +0.150 HD
BRANCH   8  12
ATOM     12  C   UNL     1      -1.038  -4.509   0.407  0.00  0.00    +0.278 C 
BRANCH  12  13
ATOM     13  S   UNL     1      -2.516  -3.825   1.204  0.00  0.00    +0.013 S 
ATOM     14  O   UNL     1      -2.499  -4.112   2.596  0.00  0.00    -0.168 OA
ATOM     15  O   UNL     1      -3.668  -4.104   0.421  0.00  0.00    -0.168 OA
BRANCH  13  20
ATOM     16  C   UNL     1      -1.835   2.161   0.862  0.00  0.00    +0.044 C 
ATOM     17  C   UNL     1      -2.005   0.666   0.948  0.00  0.00    -0.050 A 
ATOM     18  C   UNL     1      -2.649  -0.016  -0.068  0.00  0.00    +0.005 A 
ATOM     19  C   UNL     1      -2.805  -1.387   0.010  0.00  0.00    +0.027 A 
ATOM     20  C   UNL     1      -2.316  -2.077   1.104  0.00  0.00    +0.090 A 
ATOM     21  C   UNL     1      -1.671  -1.395   2.119  0.00  0.00    +0.027 A 
ATOM     22  C   UNL     1      -1.512  -0.025   2.039  0.00  0.00    +0.005 A 
ENDBRANCH  13  20
ENDBRANCH  12  13
ENDBRANCH   8  12
ENDBRANCH   1   9
BRANCH   1  23
ATOM     23  N   UNL     1       2.059  -5.663   3.960  0.00  0.00    -0.278 N 
ATOM     24  C   UNL     1       1.011  -6.115   4.676  0.00  0.00    +0.250 C 
ATOM     25  O   UNL     1      -0.090  -5.634   4.510  0.00  0.00    -0.272 OA
BRANCH  23  26
ATOM     26  C   UNL     1       3.406  -6.173   4.231  0.00  0.00    +0.030 C 
ATOM     27  C   UNL     1       4.442  -5.139   3.786  0.00  0.00    +0.031 C 
ATOM     28  C   UNL     1       3.559  -6.437   5.730  0.00  0.00    +0.031 C 
ATOM     29  C   UNL     1       3.622  -7.477   3.459  0.00  0.00    +0.031 C 
ENDBRANCH  23  26
BRANCH  24  30
ATOM     30  C   UNL     1       1.206  -7.220   5.683  0.00  0.00    +0.233 C 
BRANCH  30  31
ATOM     31  C   UNL     1       1.562  -8.496   4.966  0.00  0.00    -0.010 A 
ATOM     32  C   UNL     1       0.854  -8.878   3.842  0.00  0.00    +0.006 A 
ATOM     33  C   UNL     1       1.181 -10.049   3.184  0.00  0.00    +0.000 A 
ATOM     34  C   UNL     1       2.216 -10.838   3.650  0.00  0.00    +0.000 A 
ATOM     35  C   UNL     1       2.925 -10.456   4.774  0.00  0.00    +0.000 A 
ATOM     36  C   UNL     1       2.600  -9.282   5.429  0.00  0.00    +0.006 A 
ENDBRANCH  30  31
BRANCH  30  37
ATOM     37  O   UNL     1      -0.003  -7.409   6.422  0.00  0.00    -0.366 OA
ATOM     38  C   UNL     1      -0.093  -6.612   7.604  0.00  0.00    +0.195 C 
ENDBRANCH  30  37
ENDBRANCH  24  30
ENDBRANCH   1  23
TORSDOF 10
