REMARK  Name = ZINC21579598
REMARK  15 active torsions:
REMARK  status: ('A' for Active; 'I' for Inactive)
REMARK    1  A    between atoms: C_1  and  C_2
REMARK    2  A    between atoms: C_6  and  C_37
REMARK    3  A    between atoms: C_7  and  N_8
REMARK    4  A    between atoms: C_9  and  C_11
REMARK    5  A    between atoms: C_11  and  N_12
REMARK    6  A    between atoms: N_12  and  C_13
REMARK    7  A    between atoms: N_12  and  C_25
REMARK    8  A    between atoms: C_13  and  C_14
REMARK    9  A    between atoms: N_16  and  C_17
REMARK   10  A    between atoms: C_18  and  C_24
REMARK   11  A    between atoms: C_22  and  C_23
REMARK   12  A    between atoms: C_25  and  C_26
REMARK   13  A    between atoms: N_28  and  C_29
REMARK   14  A    between atoms: C_29  and  C_31
REMARK   15  A    between atoms: C_29  and  C_32
REMARK                            x       y       z     vdW  Elec       q    Type
REMARK                         _______ _______ _______ _____ _____    ______ ____
ROOT
ATOM      1  N   UNL     1      -2.051  -6.082   4.157  0.00  0.00    +0.397 N 
ATOM      2  H   UNL     1      -2.884  -6.425   3.526  0.00  0.00    -0.080 HD
ENDROOT
BRANCH   1   3
ATOM      3  C   UNL     1      -0.802  -6.585   3.568  0.00  0.00    +0.020 C 
BRANCH   3   5
ATOM      4  N   UNL     1       0.180  -6.840   1.312  0.00  0.00    -0.287 N 
ATOM      5  C   UNL     1      -0.834  -6.384   2.075  0.00  0.00    +0.201 C 
ATOM      6  O   UNL     1      -1.771  -5.811   1.560  0.00  0.00    -0.278 OA
ATOM      7  H   UNL     1       0.994  -7.420   1.770  0.00  0.00    +0.155 HD
BRANCH   4  14
ATOM      8  C   UNL     1      -2.062  -7.654  -0.240  0.00  0.00    +0.045 C 
ATOM      9  C   UNL     1      -0.878  -6.955  -0.856  0.00  0.00    -0.029 A 
ATOM     10  C   UNL     1      -0.862  -6.687  -2.211  0.00  0.00    +0.005 A 
ATOM     11  C   UNL     1       0.227  -6.050  -2.778  0.00  0.00    +0.001 A 
ATOM     12  C   UNL     1       1.300  -5.675  -1.990  0.00  0.00    +0.005 A 
ATOM     13  C   UNL     1       1.287  -5.935  -0.634  0.00  0.00    -0.029 A 
ATOM     14  C   UNL     1       0.195  -6.574  -0.061  0.00  0.00    +0.039 A 
ATOM     15  C   UNL     1       2.456  -5.524   0.224  0.00  0.00    +0.045 C 
ENDBRANCH   4  14
ENDBRANCH   3   5
ENDBRANCH   1   3
BRANCH   1  16
ATOM     16  C   UNL     1      -2.071  -4.613   4.171  0.00  0.00    +0.020 C 
BRANCH  16  17
ATOM     17  C   UNL     1      -3.483  -4.132   4.389  0.00  0.00    +0.201 C 
ATOM     18  O   UNL     1      -4.381  -4.934   4.535  0.00  0.00    -0.278 OA
ATOM     19  N   UNL     1      -3.748  -2.811   4.420  0.00  0.00    -0.287 N 
ATOM     20  H   UNL     1      -2.946  -2.084   4.221  0.00  0.00    +0.155 HD
BRANCH  19  21
ATOM     21  C   UNL     1      -5.042  -2.364   4.706  0.00  0.00    +0.039 A 
ATOM     22  C   UNL     1      -5.953  -2.164   3.677  0.00  0.00    -0.029 A 
ATOM     23  C   UNL     1      -7.231  -1.727   3.963  0.00  0.00    +0.005 A 
ATOM     24  C   UNL     1      -7.602  -1.479   5.272  0.00  0.00    +0.001 A 
ATOM     25  C   UNL     1      -6.696  -1.672   6.299  0.00  0.00    +0.005 A 
ATOM     26  C   UNL     1      -5.418  -2.114   6.020  0.00  0.00    -0.029 A 
ATOM     27  C   UNL     1      -4.431  -2.324   7.139  0.00  0.00    +0.045 C 
ATOM     28  C   UNL     1      -5.548  -2.429   2.250  0.00  0.00    +0.045 C 
ENDBRANCH  19  21
ENDBRANCH  16  17
ENDBRANCH   1  16
BRANCH   1  29
ATOM     29  C   UNL     1      -2.253  -6.624   5.507  0.00  0.00    +0.020 C 
BRANCH  29  30
ATOM     30  C   UNL     1      -2.471  -8.113   5.423  0.00  0.00    +0.197 C 
ATOM     31  O   UNL     1      -2.459  -8.667   4.344  0.00  0.00    -0.278 OA
ATOM     32  N   UNL     1      -2.679  -8.828   6.546  0.00  0.00    -0.307 N 
ATOM     33  H   UNL     1      -2.689  -8.325   7.524  0.00  0.00    +0.149 HD
BRANCH  32  34
ATOM     34  C   UNL     1      -2.891 -10.275   6.464  0.00  0.00    +0.136 C 
ATOM     35  C   UNL     1      -1.537 -10.988   6.436  0.00  0.00    +0.036 C 
BRANCH  34  36
ATOM     36  C   UNL     1      -3.677 -10.736   7.665  0.00  0.00    +0.125 A 
ATOM     37  C   UNL     1      -4.659 -11.655   7.656  0.00  0.00    +0.046 A 
ATOM     38  C   UNL     1      -5.116 -11.779   8.988  0.00  0.00    +0.041 A 
ATOM     39  C   UNL     1      -4.385 -10.928   9.731  0.00  0.00    +0.195 A 
ATOM     40  O   UNL     1      -3.511 -10.304   8.925  0.00  0.00    -0.466 OA
ENDBRANCH  34  36
ENDBRANCH  32  34
ENDBRANCH  29  30
ENDBRANCH   1  29
TORSDOF 10
