REMARK  Name = ZINC22981511
REMARK  4 active torsions:
REMARK  status: ('A' for Active; 'I' for Inactive)
REMARK    1  A    between atoms: C_1  and  C_2
REMARK    2  A    between atoms: C_8  and  N_10
REMARK    3  A    between atoms: C_14  and  C_16
REMARK    4  A    between atoms: C_16  and  N_17
REMARK                            x       y       z     vdW  Elec       q    Type
REMARK                         _______ _______ _______ _____ _____    ______ ____
ROOT
ATOM      1  N   UNL     1       0.056  -0.038   2.447  0.00  0.00    -0.296 N 
ATOM      2  C   UNL     1       0.738   0.093   3.602  0.00  0.00    +0.306 C 
ATOM      3  O   UNL     1       1.921  -0.180   3.644  0.00  0.00    -0.252 OA
ATOM      4  N   UNL     1       0.107   0.528   4.711  0.00  0.00    -0.239 N 
ATOM      5  C   UNL     1       0.789   0.659   5.866  0.00  0.00    +0.240 C 
ATOM      6  O   UNL     1       1.969   0.387   5.908  0.00  0.00    -0.273 OA
ATOM      7  H   UNL     1      -0.888   0.180   2.413  0.00  0.00    +0.151 HD
ATOM      8  H   UNL     1      -0.838   0.746   4.678  0.00  0.00    +0.159 HD
ENDROOT
BRANCH   1  15
ATOM      9  C   UNL     1      -0.019   1.526   0.010  0.00  0.00    +0.009 C 
ATOM     10  C   UNL     1       0.002  -0.004   0.002  0.00  0.00    +0.006 C 
ATOM     11  C   UNL     1      -1.433  -0.534   0.013  0.00  0.00    +0.005 C 
ATOM     12  C   UNL     1      -1.413  -2.063   0.004  0.00  0.00    +0.000 C 
ATOM     13  C   UNL     1      -0.673  -2.570   1.244  0.00  0.00    +0.002 C 
ATOM     14  C   UNL     1       0.763  -2.041   1.233  0.00  0.00    +0.022 C 
ATOM     15  C   UNL     1       0.742  -0.511   1.242  0.00  0.00    +0.077 C 
ENDBRANCH   1  15
BRANCH   5  16
ATOM     16  C   UNL     1       0.083   1.145   7.106  0.00  0.00    +0.222 C 
BRANCH  16  17
ATOM     17  N   UNL     1       1.035   1.202   8.219  0.00  0.00    -0.290 N 
ATOM     18  C   UNL     1       1.209   0.111   9.011  0.00  0.00    +0.203 A 
ATOM     19  N   UNL     1       2.032   0.083  10.015  0.00  0.00    -0.235 NA
ATOM     20  C   UNL     1       2.788   1.159  10.346  0.00  0.00    +0.096 A 
ATOM     21  C   UNL     1       2.674   2.339   9.578  0.00  0.00    +0.068 A 
ATOM     22  C   UNL     1       1.736   2.337   8.445  0.00  0.00    +0.262 A 
ATOM     23  O   UNL     1       1.594   3.319   7.740  0.00  0.00    -0.267 OA
ATOM     24  C   UNL     1       3.440   3.458   9.898  0.00  0.00    +0.035 A 
ATOM     25  C   UNL     1       4.308   3.403  10.968  0.00  0.00    +0.043 A 
ATOM     26  C   UNL     1       4.423   2.245  11.726  0.00  0.00    +0.042 A 
ATOM     27  C   UNL     1       3.674   1.128  11.426  0.00  0.00    +0.068 A 
ATOM     28 CL   UNL     1       3.830  -0.311  12.385  0.00  0.00    -0.081 Cl
ATOM     29 CL   UNL     1       5.266   4.794  11.371  0.00  0.00    -0.083 Cl
ENDBRANCH  16  17
ENDBRANCH   5  16
TORSDOF 3
