REMARK  Name = ZINC35934619
REMARK  5 active torsions:
REMARK  status: ('A' for Active; 'I' for Inactive)
REMARK    1  A    between atoms: C_1  and  N_2
REMARK    2  A    between atoms: C_5  and  C_10
REMARK    3  A    between atoms: N_20  and  C_22
REMARK    4  A    between atoms: C_22  and  C_23
REMARK    5  A    between atoms: C_23  and  C_24
REMARK                            x       y       z     vdW  Elec       q    Type
REMARK                         _______ _______ _______ _____ _____    ______ ____
ROOT
ATOM      1  C   UNL     1      -0.493   1.424   0.029  0.00  0.00    +0.139 C 
ATOM      2  N   UNL     1      -0.308  -0.029   0.015  0.00  0.00    -0.260 N 
ATOM      3  C   UNL     1      -1.416  -0.821   0.113  0.00  0.00    +0.042 C 
ATOM      4  C   UNL     1      -1.317  -2.166   0.106  0.00  0.00    +0.058 C 
ATOM      5  C   UNL     1       0.068  -2.769  -0.014  0.00  0.00    +0.143 C 
ATOM      6  N   UNL     1       1.198  -1.830  -0.114  0.00  0.00    -0.288 N 
ATOM      7  C   UNL     1       0.938  -0.508  -0.098  0.00  0.00    +0.307 C 
ATOM      8  O   UNL     1       1.863   0.275  -0.184  0.00  0.00    -0.252 OA
ATOM      9  C   UNL     1      -2.594  -2.753   0.218  0.00  0.00    +0.247 C 
ATOM     10  O   UNL     1      -2.801  -3.953   0.238  0.00  0.00    -0.270 OA
ATOM     11  N   UNL     1      -3.554  -1.815   0.301  0.00  0.00    -0.292 N 
ATOM     12  C   UNL     1      -2.889  -0.504   0.241  0.00  0.00    +0.159 C 
ATOM     13  H   UNL     1       2.108  -2.156  -0.193  0.00  0.00    +0.151 HD
ENDROOT
BRANCH   5  14
ATOM     14  C   UNL     1       0.087  -3.650  -1.237  0.00  0.00    -0.003 A 
ATOM     15  C   UNL     1      -0.886  -3.504  -2.209  0.00  0.00    +0.007 A 
ATOM     16  C   UNL     1      -0.869  -4.311  -3.331  0.00  0.00    +0.002 A 
ATOM     17  C   UNL     1       0.120  -5.265  -3.483  0.00  0.00    +0.021 A 
ATOM     18  C   UNL     1       1.094  -5.412  -2.512  0.00  0.00    +0.060 A 
ATOM     19  C   UNL     1       1.081  -4.599  -1.391  0.00  0.00    +0.064 A 
ATOM     20 CL   UNL     1       2.308  -4.777  -0.175  0.00  0.00    -0.082 Cl
ATOM     21 CL   UNL     1       2.337  -6.609  -2.702  0.00  0.00    -0.082 Cl
ENDBRANCH   5  14
BRANCH  11  22
ATOM     22  C   UNL     1      -4.994  -2.053   0.427  0.00  0.00    +0.117 C 
BRANCH  22  23
ATOM     23  C   UNL     1      -5.370  -2.135   1.907  0.00  0.00    +0.115 C 
BRANCH  23  24
ATOM     24  C   UNL     1      -6.851  -2.380   2.037  0.00  0.00    +0.217 C 
ATOM     25  O   UNL     1      -7.539  -2.481   1.043  0.00  0.00    -0.276 OA
ATOM     26  N   UNL     1      -7.412  -2.488   3.257  0.00  0.00    -0.301 N 
ATOM     27  C   UNL     1      -6.594  -2.363   4.471  0.00  0.00    +0.113 C 
ATOM     28  C   UNL     1      -6.821  -3.599   5.348  0.00  0.00    +0.084 C 
ATOM     29  C   UNL     1      -8.319  -3.766   5.610  0.00  0.00    +0.173 C 
ATOM     30  C   UNL     1      -9.060  -3.966   4.287  0.00  0.00    +0.084 C 
ATOM     31  C   UNL     1      -8.855  -2.728   3.400  0.00  0.00    +0.113 C 
ATOM     32  O   UNL     1      -8.824  -2.602   6.275  0.00  0.00    -0.346 OA
ATOM     33  C   UNL     1      -9.341  -3.029   7.552  0.00  0.00    +0.191 C 
ATOM     34  C   UNL     1      -8.610  -4.373   7.795  0.00  0.00    +0.191 C 
ATOM     35  O   UNL     1      -8.530  -4.911   6.453  0.00  0.00    -0.346 OA
ENDBRANCH  23  24
ENDBRANCH  22  23
ENDBRANCH  11  22
TORSDOF 4
