REMARK  Name = ZINC08425104
REMARK  3 active torsions:
REMARK  status: ('A' for Active; 'I' for Inactive)
REMARK    1  A    between atoms: C_7  and  C_12
REMARK    2  A    between atoms: N_14  and  C_15
REMARK    3  A    between atoms: C_19  and  C_21
REMARK                            x       y       z     vdW  Elec       q    Type
REMARK                         _______ _______ _______ _____ _____    ______ ____
ROOT
ATOM      1  C   UNL     1      -5.385  -4.810  -0.747  0.00  0.00    +0.249 C 
ATOM      2  O   UNL     1      -4.573  -5.699  -0.915  0.00  0.00    -0.270 OA
ATOM      3  N   UNL     1      -4.981  -3.604  -0.300  0.00  0.00    -0.281 N 
ATOM      4  H   UNL     1      -5.635  -2.916  -0.103  0.00  0.00    +0.155 HD
ENDROOT
BRANCH   1  11
ATOM      5  C   UNL     1      -6.795  -8.432  -2.522  0.00  0.00    +0.001 A 
ATOM      6  C   UNL     1      -8.153  -8.621  -2.768  0.00  0.00    +0.002 A 
ATOM      7  C   UNL     1      -9.064  -7.661  -2.449  0.00  0.00    +0.026 A 
ATOM      8  C   UNL     1      -8.633  -6.458  -1.860  0.00  0.00    +0.050 A 
ATOM      9  C   UNL     1      -7.251  -6.269  -1.616  0.00  0.00    +0.011 A 
ATOM     10  C   UNL     1      -6.342  -7.280  -1.953  0.00  0.00    +0.011 A 
ATOM     11  C   UNL     1      -6.816  -5.051  -1.031  0.00  0.00    +0.051 A 
ATOM     12  C   UNL     1      -7.775  -4.095  -0.735  0.00  0.00    +0.083 A 
ATOM     13  C   UNL     1      -9.121  -4.357  -1.018  0.00  0.00    +0.250 A 
ATOM     14  N   UNL     1      -9.506  -5.495  -1.550  0.00  0.00    -0.322 N 
ATOM     15  O   UNL     1     -10.053  -3.416  -0.725  0.00  0.00    -0.268 OA
ATOM     16  H   UNL     1     -10.479  -5.644  -1.729  0.00  0.00    +0.169 HD
ENDBRANCH   1  11
BRANCH   3  17
ATOM     17  C   UNL     1      -3.618  -3.346  -0.122  0.00  0.00    +0.034 A 
ATOM     18  C   UNL     1      -2.772  -4.354   0.328  0.00  0.00    +0.023 A 
ATOM     19  C   UNL     1      -1.425  -4.103   0.505  0.00  0.00    +0.002 A 
ATOM     20  C   UNL     1      -0.910  -2.850   0.238  0.00  0.00    +0.012 A 
ATOM     21  C   UNL     1      -1.751  -1.832  -0.213  0.00  0.00    +0.021 A 
ATOM     22  C   UNL     1      -3.111  -2.083  -0.387  0.00  0.00    +0.035 A 
BRANCH  21  23
ATOM     23  C   UNL     1      -1.201  -0.488  -0.500  0.00  0.00    +0.164 A 
ATOM     24  N   UNL     1      -0.053  -0.003  -0.078  0.00  0.00    -0.129 NA
ATOM     25  N   UNL     1       0.104   1.193  -0.525  0.00  0.00    -0.134 NA
ATOM     26  C   UNL     1      -0.921   1.533  -1.255  0.00  0.00    +0.134 A 
ATOM     27  N   UNL     1      -1.787   0.486  -1.255  0.00  0.00    -0.311 N 
ATOM     28  C   UNL     1      -3.087   0.430  -1.924  0.00  0.00    +0.125 C 
ATOM     29  C   UNL     1      -3.067   1.350  -3.148  0.00  0.00    +0.022 C 
ATOM     30  C   UNL     1      -3.507   2.756  -2.743  0.00  0.00    +0.002 C 
ATOM     31  C   UNL     1      -2.548   3.341  -1.711  0.00  0.00    +0.008 C 
ATOM     32  C   UNL     1      -1.128   2.836  -1.983  0.00  0.00    +0.076 C 
ENDBRANCH  21  23
ENDBRANCH   3  17
TORSDOF 3
