REMARK  Name = ZINC06193740
REMARK  10 active torsions:
REMARK  status: ('A' for Active; 'I' for Inactive)
REMARK    1  A    between atoms: C_1  and  C_2
REMARK    2  A    between atoms: C_4  and  C_40
REMARK    3  A    between atoms: C_7  and  C_14
REMARK    4  A    between atoms: C_14  and  C_16
REMARK    5  A    between atoms: C_14  and  N_72
REMARK    6  A    between atoms: N_20  and  C_21
REMARK    7  A    between atoms: C_27  and  C_28
REMARK    8  A    between atoms: C_27  and  N_72
REMARK    9  A    between atoms: C_34  and  C_35
REMARK   10  A    between atoms: C_34  and  N_72
REMARK                            x       y       z     vdW  Elec       q    Type
REMARK                         _______ _______ _______ _____ _____    ______ ____
ROOT
ATOM      1  C   UNL     1       0.546  -3.718  -1.252  0.00  0.00    +0.040 C 
ENDROOT
BRANCH   1   8
ATOM      2  C   UNL     1       1.781  -8.659  -7.390  0.00  0.00    +0.044 C 
ATOM      3  C   UNL     1       1.672  -7.879  -6.105  0.00  0.00    -0.048 A 
ATOM      4  C   UNL     1       2.274  -8.366  -4.953  0.00  0.00    +0.007 A 
ATOM      5  C   UNL     1       2.188  -7.673  -3.778  0.00  0.00    -0.041 A 
ATOM      6  C   UNL     1       1.486  -6.464  -3.736  0.00  0.00    +0.002 A 
ATOM      7  C   UNL     1       1.377  -5.695  -2.495  0.00  0.00    +0.018 A 
ATOM      8  C   UNL     1       0.680  -4.532  -2.513  0.00  0.00    +0.011 A 
ATOM      9  C   UNL     1       0.085  -4.079  -3.709  0.00  0.00    +0.251 A 
ATOM     10  O   UNL     1      -0.534  -3.029  -3.704  0.00  0.00    -0.268 OA
ATOM     11  N   UNL     1       0.183  -4.776  -4.854  0.00  0.00    -0.322 N 
ATOM     12  H   UNL     1      -0.239  -4.436  -5.659  0.00  0.00    +0.169 HD
ATOM     13  C   UNL     1       0.874  -5.968  -4.902  0.00  0.00    +0.050 A 
ATOM     14  C   UNL     1       0.975  -6.690  -6.087  0.00  0.00    +0.029 A 
ATOM     15  C   UNL     1       2.845  -8.211  -2.533  0.00  0.00    +0.044 C 
ENDBRANCH   1   8
BRANCH   1  16
ATOM     16  C   UNL     1      -0.865  -3.825  -0.732  0.00  0.00    +0.143 A 
ATOM     17  N   UNL     1      -1.926  -3.228  -1.219  0.00  0.00    -0.115 NA
ATOM     18  N   UNL     1      -2.940  -3.573  -0.503  0.00  0.00    -0.023 NA
ATOM     19  N   UNL     1      -2.553  -4.368   0.432  0.00  0.00    -0.044 NA
ATOM     20  N   UNL     1      -1.280  -4.548   0.325  0.00  0.00    -0.227 N 
BRANCH  20  21
ATOM     21  C   UNL     1      -0.442  -5.382   1.191  0.00  0.00    +0.111 C 
ATOM     22  C   UNL     1      -0.933  -6.830   1.133  0.00  0.00    +0.027 C 
ATOM     23  C   UNL     1      -0.059  -7.701   2.037  0.00  0.00    +0.002 C 
ATOM     24  C   UNL     1      -0.146  -7.190   3.477  0.00  0.00    +0.000 C 
ATOM     25  C   UNL     1       0.345  -5.742   3.534  0.00  0.00    +0.002 C 
ATOM     26  C   UNL     1      -0.529  -4.871   2.630  0.00  0.00    +0.027 C 
ENDBRANCH  20  21
ENDBRANCH   1  16
BRANCH   1  27
ATOM     27  N   UNL     1       0.841  -2.304  -1.565  0.00  0.00    +0.397 N 
ATOM     28  H   UNL     1       0.339  -2.040  -2.421  0.00  0.00    -0.079 HD
BRANCH  27  29
ATOM     29  C   UNL     1       0.391  -1.436  -0.457  0.00  0.00    -0.039 C 
BRANCH  29  30
ATOM     30  C   UNL     1       0.499   0.003  -0.892  0.00  0.00    -0.046 A 
ATOM     31  C   UNL     1       1.662   0.722  -0.656  0.00  0.00    +0.005 A 
ATOM     32  C   UNL     1       1.717   2.042  -1.073  0.00  0.00    +0.020 A 
ATOM     33  C   UNL     1       0.619   2.596  -1.705  0.00  0.00    +0.111 A 
ATOM     34  N   UNL     1      -0.470   1.882  -1.913  0.00  0.00    -0.263 NA
ATOM     35  C   UNL     1      -0.558   0.623  -1.530  0.00  0.00    +0.112 A 
ENDBRANCH  29  30
ENDBRANCH  27  29
BRANCH  27  36
ATOM     36  C   UNL     1       2.292  -2.128  -1.787  0.00  0.00    -0.001 C 
BRANCH  36  37
ATOM     37  C   UNL     1       2.641  -2.666  -3.151  0.00  0.00    +0.089 A 
ATOM     38  C   UNL     1       2.494  -2.010  -4.316  0.00  0.00    +0.042 A 
ATOM     39  C   UNL     1       2.942  -2.880  -5.336  0.00  0.00    +0.041 A 
ATOM     40  C   UNL     1       3.337  -4.016  -4.733  0.00  0.00    +0.195 A 
ATOM     41  O   UNL     1       3.157  -3.878  -3.409  0.00  0.00    -0.470 OA
ENDBRANCH  36  37
ENDBRANCH  27  36
ENDBRANCH   1  27
TORSDOF 8
