REMARK  Name = ZINC65460926
REMARK  5 active torsions:
REMARK  status: ('A' for Active; 'I' for Inactive)
REMARK    1  A    between atoms: C_1  and  C_2
REMARK    2  A    between atoms: C_2  and  C_26
REMARK    3  A    between atoms: C_6  and  C_14
REMARK    4  A    between atoms: N_20  and  C_25
REMARK    5  A    between atoms: N_23  and  C_24
REMARK                            x       y       z     vdW  Elec       q    Type
REMARK                         _______ _______ _______ _____ _____    ______ ____
ROOT
ATOM      1  C   UNL     1      -0.019   1.526   0.010  0.00  0.00    +0.013 C 
ATOM      2  C   UNL     1       0.002  -0.004   0.002  0.00  0.00    -0.014 C 
ATOM      3  C   UNL     1      -1.415  -0.504  -0.091  0.00  0.00    +0.063 C 
ATOM      4  C   UNL     1      -1.504  -1.952  -0.454  0.00  0.00    +0.049 A 
ATOM      5  N   UNL     1      -2.509  -2.507  -1.193  0.00  0.00    -0.341 N 
ATOM      6  C   UNL     1      -2.253  -3.843  -1.295  0.00  0.00    +0.139 A 
ATOM      7  N   UNL     1      -1.140  -4.104  -0.660  0.00  0.00    -0.223 NA
ATOM      8  C   UNL     1      -0.641  -2.954  -0.133  0.00  0.00    +0.147 A 
ATOM      9  H   UNL     1      -3.267  -2.037  -1.575  0.00  0.00    +0.167 HD
ATOM     10  C   UNL     1       0.612  -2.887   0.616  0.00  0.00    +0.264 C 
ATOM     11  O   UNL     1       1.192  -3.946   0.764  0.00  0.00    -0.268 OA
ATOM     12  N   UNL     1       1.197  -1.841   1.152  0.00  0.00    -0.310 N 
ATOM     13  C   UNL     1       0.733  -0.482   1.227  0.00  0.00    +0.111 C 
ATOM     14  C   UNL     1       0.766  -0.475  -1.238  0.00  0.00    +0.013 C 
ATOM     15  H   UNL     1       2.064  -2.009   1.553  0.00  0.00    +0.149 HD
ENDROOT
BRANCH   6  16
ATOM     16  C   UNL     1      -3.094  -4.831  -2.005  0.00  0.00    +0.019 A 
ATOM     17  C   UNL     1      -4.262  -4.419  -2.651  0.00  0.00    +0.013 A 
ATOM     18  C   UNL     1      -5.047  -5.337  -3.313  0.00  0.00    +0.029 A 
ATOM     19  C   UNL     1      -4.679  -6.676  -3.341  0.00  0.00    +0.070 A 
ATOM     20  C   UNL     1      -3.511  -7.094  -2.696  0.00  0.00    +0.070 A 
ATOM     21  C   UNL     1      -2.717  -6.173  -2.035  0.00  0.00    +0.039 A 
ATOM     22  N   UNL     1      -3.412  -8.470  -2.897  0.00  0.00    -0.295 N 
ATOM     23  C   UNL     1      -4.470  -8.868  -3.629  0.00  0.00    +0.330 A 
ATOM     24  O   UNL     1      -4.686 -10.012  -3.982  0.00  0.00    -0.246 OA
ATOM     25  N   UNL     1      -5.251  -7.809  -3.911  0.00  0.00    -0.295 N 
ATOM     26  C   UNL     1      -6.493  -7.843  -4.688  0.00  0.00    +0.154 C 
ATOM     27  C   UNL     1      -2.340  -9.334  -2.398  0.00  0.00    +0.154 C 
ENDBRANCH   6  16
TORSDOF 1
