REMARK  Name = ZINC39669181
REMARK  5 active torsions:
REMARK  status: ('A' for Active; 'I' for Inactive)
REMARK    1  A    between atoms: C_10  and  C_12
REMARK    2  A    between atoms: C_12  and  N_13
REMARK    3  A    between atoms: C_14  and  C_16
REMARK    4  A    between atoms: C_27  and  C_29
REMARK    5  A    between atoms: C_32  and  C_34
REMARK                            x       y       z     vdW  Elec       q    Type
REMARK                         _______ _______ _______ _____ _____    ______ ____
ROOT
ATOM      1  C   UNL     1       8.275  -0.944  -1.852  0.00  0.00    +0.100 C 
ATOM      2  C   UNL     1       9.006  -0.731  -0.508  0.00  0.00    +0.121 C 
ATOM      3  N   UNL     1      10.434  -0.586  -0.877  0.00  0.00    -0.294 N 
ATOM      4  C   UNL     1      10.413   0.218  -2.122  0.00  0.00    +0.115 C 
ATOM      5  C   UNL     1       9.201  -0.319  -2.909  0.00  0.00    -0.004 C 
ATOM      6  C   UNL     1       8.489   0.824  -3.626  0.00  0.00    -0.010 C 
ATOM      7  C   UNL     1       9.408   1.391  -4.711  0.00  0.00    -0.082 C 
ATOM      8  N   UNL     1       9.755   0.331  -5.664  0.00  0.00    +0.379 N 
ATOM      9  C   UNL     1      10.521  -0.722  -4.985  0.00  0.00    -0.082 C 
ATOM     10  C   UNL     1       9.649  -1.378  -3.911  0.00  0.00    -0.010 C 
ATOM     11  C   UNL     1      11.509  -1.076  -0.228  0.00  0.00    +0.282 C 
ATOM     12  O   UNL     1      12.627  -0.869  -0.661  0.00  0.00    -0.267 OA
ATOM     13  H   UNL     1       8.910  -0.065  -6.048  0.00  0.00    -0.086 HD
ATOM     14  H   UNL     1      10.310   0.720  -6.412  0.00  0.00    -0.086 HD
ENDROOT
BRANCH  11  15
ATOM     15  C   UNL     1      11.331  -1.856   0.998  0.00  0.00    +0.190 A 
ATOM     16  C   UNL     1      12.338  -2.407   1.760  0.00  0.00    +0.055 A 
ATOM     17  C   UNL     1      11.722  -3.061   2.832  0.00  0.00    +0.051 A 
ATOM     18  C   UNL     1      10.376  -2.888   2.687  0.00  0.00    +0.139 A 
ATOM     19  O   UNL     1      10.152  -2.156   1.583  0.00  0.00    -0.450 OA
BRANCH  18  20
ATOM     20  C   UNL     1       9.338  -3.413   3.597  0.00  0.00    +0.052 A 
ATOM     21  C   UNL     1       9.352  -4.756   3.978  0.00  0.00    +0.014 A 
ATOM     22  C   UNL     1       8.380  -5.240   4.828  0.00  0.00    +0.001 A 
ATOM     23  C   UNL     1       7.391  -4.398   5.305  0.00  0.00    +0.003 A 
ATOM     24  C   UNL     1       7.368  -3.066   4.933  0.00  0.00    +0.039 A 
ATOM     25  C   UNL     1       8.339  -2.565   4.087  0.00  0.00    +0.134 A 
ATOM     26  F   UNL     1       8.320  -1.263   3.729  0.00  0.00    -0.205 F 
ENDBRANCH  18  20
ENDBRANCH  11  15
BRANCH   1  28
ATOM     27  N   UNL     1       5.924  -0.716  -2.587  0.00  0.00    -0.312 N 
ATOM     28  C   UNL     1       6.941  -0.242  -1.841  0.00  0.00    +0.218 C 
ATOM     29  O   UNL     1       6.784   0.750  -1.161  0.00  0.00    -0.275 OA
ATOM     30  H   UNL     1       6.050  -1.509  -3.131  0.00  0.00    +0.149 HD
BRANCH  27  31
ATOM     31  C   UNL     1       4.628  -0.033  -2.577  0.00  0.00    +0.140 C 
BRANCH  31  41
ATOM     32  C   UNL     1      -0.123   1.226  -3.388  0.00  0.00    +0.000 A 
ATOM     33  C   UNL     1       0.588   1.004  -2.223  0.00  0.00    +0.000 A 
ATOM     34  C   UNL     1       1.807   0.360  -2.273  0.00  0.00    +0.006 A 
ATOM     35  C   UNL     1       2.324  -0.065  -3.488  0.00  0.00    -0.014 A 
ATOM     36  C   UNL     1       1.617   0.160  -4.650  0.00  0.00    -0.040 A 
ATOM     37  C   UNL     1       0.390   0.804  -4.598  0.00  0.00    +0.004 A 
ATOM     38  C   UNL     1       2.151  -0.275  -5.990  0.00  0.00    +0.063 C 
ATOM     39  C   UNL     1       3.266  -1.304  -5.794  0.00  0.00    +0.165 C 
ATOM     40  O   UNL     1       4.189  -0.794  -4.825  0.00  0.00    -0.370 OA
ATOM     41  C   UNL     1       3.656  -0.769  -3.501  0.00  0.00    +0.165 C 
ENDBRANCH  31  41
ENDBRANCH  27  31
ENDBRANCH   1  28
TORSDOF 5
