REMARK  Name = ZINC12037125
REMARK  10 active torsions:
REMARK  status: ('A' for Active; 'I' for Inactive)
REMARK    1  A    between atoms: C_1  and  C_2
REMARK    2  A    between atoms: C_7  and  C_8
REMARK    3  A    between atoms: N_10  and  C_11
REMARK    4  A    between atoms: C_11  and  C_13
REMARK    5  A    between atoms: C_11  and  C_14
REMARK    6  A    between atoms: C_23  and  C_24
REMARK    7  A    between atoms: C_23  and  N_70
REMARK    8  A    between atoms: C_27  and  O_30
REMARK    9  A    between atoms: O_30  and  C_31
REMARK   10  A    between atoms: C_31  and  C_32
REMARK                            x       y       z     vdW  Elec       q    Type
REMARK                         _______ _______ _______ _____ _____    ______ ____
ROOT
ATOM      1  C   UNL     1       1.397  -0.748   5.864  0.00  0.00    +0.154 A 
ATOM      2  N   UNL     1       1.283  -2.030   6.092  0.00  0.00    -0.132 NA
ATOM      3  N   UNL     1       2.150  -2.393   6.973  0.00  0.00    -0.134 NA
ATOM      4  C   UNL     1       2.855  -1.363   7.340  0.00  0.00    +0.132 A 
ATOM      5  N   UNL     1       2.391  -0.289   6.654  0.00  0.00    -0.315 N 
ATOM      6  C   UNL     1       2.863   1.089   6.792  0.00  0.00    +0.106 C 
ATOM      7  C   UNL     1       4.331   1.074   7.230  0.00  0.00    -0.056 C 
ATOM      8  C   UNL     1       3.794  -0.139   9.271  0.00  0.00    -0.071 C 
ATOM      9  C   UNL     1       3.993  -1.329   8.327  0.00  0.00    +0.058 C 
ATOM     10  N   UNL     1       4.447   1.062   8.707  0.00  0.00    +0.384 N 
ATOM     11  H   UNL     1       5.442   1.046   8.960  0.00  0.00    -0.081 HD
ENDROOT
BRANCH   1  12
ATOM     12  C   UNL     1       0.578   0.065   4.894  0.00  0.00    +0.138 C 
ATOM     13  C   UNL     1      -0.818   0.296   5.476  0.00  0.00    +0.036 C 
BRANCH  12  16
ATOM     14  C   UNL     1       0.242   0.021   2.481  0.00  0.00    +0.245 C 
ATOM     15  O   UNL     1       0.135   1.231   2.503  0.00  0.00    -0.270 OA
ATOM     16  N   UNL     1       0.465  -0.657   3.625  0.00  0.00    -0.302 N 
ATOM     17  H   UNL     1       0.551  -1.623   3.607  0.00  0.00    +0.150 HD
BRANCH  14  24
ATOM     18  C   UNL     1      -0.502   1.454   0.081  0.00  0.00    +0.044 C 
ATOM     19  C   UNL     1      -0.230  -0.027   0.036  0.00  0.00    -0.038 A 
ATOM     20  C   UNL     1      -0.340  -0.715  -1.155  0.00  0.00    +0.004 A 
ATOM     21  C   UNL     1      -0.086  -2.074  -1.199  0.00  0.00    +0.000 A 
ATOM     22  C   UNL     1       0.269  -2.755  -0.049  0.00  0.00    +0.001 A 
ATOM     23  C   UNL     1       0.378  -2.081   1.150  0.00  0.00    +0.013 A 
ATOM     24  C   UNL     1       0.128  -0.708   1.200  0.00  0.00    +0.040 A 
ENDBRANCH  14  24
ENDBRANCH  12  16
ENDBRANCH   1  12
BRANCH  10  25
ATOM     25  C   UNL     1       3.832   2.278   9.268  0.00  0.00    -0.043 C 
BRANCH  25  26
ATOM     26  C   UNL     1       4.183   2.362  10.731  0.00  0.00    -0.064 A 
ATOM     27  C   UNL     1       3.343   1.802  11.676  0.00  0.00    +0.005 A 
ATOM     28  C   UNL     1       3.666   1.873  13.018  0.00  0.00    +0.046 A 
ATOM     29  C   UNL     1       4.829   2.517  13.417  0.00  0.00    +0.121 A 
ATOM     30  C   UNL     1       5.667   3.082  12.467  0.00  0.00    +0.046 A 
ATOM     31  C   UNL     1       5.343   3.004  11.127  0.00  0.00    +0.005 A 
BRANCH  29  32
ATOM     32  O   UNL     1       5.146   2.592  14.736  0.00  0.00    -0.487 OA
BRANCH  32  33
ATOM     33  C   UNL     1       4.237   1.987  15.658  0.00  0.00    +0.264 C 
BRANCH  33  34
ATOM     34  C   UNL     1       4.750   2.169  17.063  0.00  0.00    -0.010 A 
ATOM     35  C   UNL     1       5.581   1.218  17.624  0.00  0.00    +0.007 A 
ATOM     36  C   UNL     1       6.056   1.387  18.911  0.00  0.00    +0.000 A 
ATOM     37  C   UNL     1       5.691   2.503  19.641  0.00  0.00    +0.000 A 
ATOM     38  C   UNL     1       4.856   3.452  19.082  0.00  0.00    +0.000 A 
ATOM     39  C   UNL     1       4.385   3.285  17.793  0.00  0.00    +0.007 A 
ENDBRANCH  33  34
ENDBRANCH  32  33
ENDBRANCH  29  32
ENDBRANCH  25  26
ENDBRANCH  10  25
TORSDOF 8
