REMARK  Name = ZINC39949627
REMARK  7 active torsions:
REMARK  status: ('A' for Active; 'I' for Inactive)
REMARK    1  A    between atoms: C_4  and  C_7
REMARK    2  A    between atoms: C_8  and  C_9
REMARK    3  A    between atoms: C_8  and  N_24
REMARK    4  A    between atoms: N_11  and  C_12
REMARK    5  A    between atoms: C_12  and  C_13
REMARK    6  A    between atoms: C_13  and  C_14
REMARK    7  A    between atoms: C_25  and  C_27
REMARK                            x       y       z     vdW  Elec       q    Type
REMARK                         _______ _______ _______ _____ _____    ______ ____
ROOT
ATOM      1  C   UNL     1       3.687  -0.677  -0.103  0.00  0.00    +0.036 C 
ATOM      2  C   UNL     1       3.712  -2.019   0.063  0.00  0.00    +0.097 C 
ENDROOT
BRANCH   1   6
ATOM      3  C   UNL     1      -0.020   1.383  -0.164  0.00  0.00    +0.000 A 
ATOM      4  C   UNL     1       0.066   0.139   0.435  0.00  0.00    +0.001 A 
ATOM      5  C   UNL     1       1.268  -0.537   0.459  0.00  0.00    +0.008 A 
ATOM      6  C   UNL     1       2.401   0.037  -0.125  0.00  0.00    -0.023 A 
ATOM      7  C   UNL     1       2.306   1.296  -0.729  0.00  0.00    +0.008 A 
ATOM      8  C   UNL     1       1.097   1.959  -0.744  0.00  0.00    +0.001 A 
ENDBRANCH   1   6
BRANCH   2   9
ATOM      9  C   UNL     1       4.996  -2.715   0.238  0.00  0.00    +0.258 C 
ATOM     10  O   UNL     1       5.018  -3.922   0.388  0.00  0.00    -0.269 OA
ATOM     11  N   UNL     1       6.147  -2.015   0.233  0.00  0.00    -0.310 N 
ATOM     12  H   UNL     1       6.129  -1.052   0.113  0.00  0.00    +0.149 HD
BRANCH  11  13
ATOM     13  C   UNL     1       7.426  -2.707   0.407  0.00  0.00    +0.112 C 
BRANCH  13  14
ATOM     14  C   UNL     1       8.568  -1.690   0.362  0.00  0.00    +0.094 C 
BRANCH  14  15
ATOM     15  C   UNL     1       9.884  -2.402   0.542  0.00  0.00    +0.127 C 
ATOM     16  N   UNL     1       9.984  -3.692   0.702  0.00  0.00    -0.256 NA
ATOM     17  C   UNL     1      11.413  -3.983   0.770  0.00  0.00    +0.178 C 
ATOM     18  C   UNL     1      11.846  -4.710   2.010  0.00  0.00    +0.006 C 
ATOM     19  C   UNL     1      13.011  -4.382   2.580  0.00  0.00    -0.002 C 
ATOM     20  C   UNL     1      13.848  -3.343   2.109  0.00  0.00    +0.002 C 
ATOM     21  C   UNL     1      13.365  -2.401   1.239  0.00  0.00    +0.026 C 
ATOM     22  C   UNL     1      12.039  -2.598   0.803  0.00  0.00    +0.072 C 
ATOM     23  N   UNL     1      11.067  -1.773   0.547  0.00  0.00    -0.235 NA
ENDBRANCH  14  15
ENDBRANCH  13  14
ENDBRANCH  11  13
ENDBRANCH   2   9
BRANCH   2  24
ATOM     24  N   UNL     1       2.518  -2.745   0.069  0.00  0.00    -0.277 N 
ATOM     25  C   UNL     1       2.209  -3.528   1.122  0.00  0.00    +0.249 C 
ATOM     26  O   UNL     1       3.011  -3.677   2.024  0.00  0.00    -0.270 OA
ATOM     27  H   UNL     1       1.910  -2.686  -0.685  0.00  0.00    +0.155 HD
BRANCH  25  28
ATOM     28  C   UNL     1       0.897  -4.204   1.181  0.00  0.00    +0.051 A 
ATOM     29  C   UNL     1       0.021  -4.132   0.096  0.00  0.00    +0.014 A 
ATOM     30  C   UNL     1      -1.202  -4.766   0.158  0.00  0.00    +0.001 A 
ATOM     31  C   UNL     1      -1.562  -5.474   1.291  0.00  0.00    +0.001 A 
ATOM     32  C   UNL     1      -0.701  -5.550   2.370  0.00  0.00    +0.016 A 
ATOM     33  C   UNL     1       0.530  -4.924   2.320  0.00  0.00    +0.030 A 
ATOM     34 BR   UNL     1       1.710  -5.036   3.793  0.00  0.00    -0.050 Br
ENDBRANCH  25  28
ENDBRANCH   2  24
TORSDOF 7
