REMARK  Name = ZINC43736021
REMARK  7 active torsions:
REMARK  status: ('A' for Active; 'I' for Inactive)
REMARK    1  A    between atoms: C_1  and  C_2
REMARK    2  A    between atoms: N_6  and  C_12
REMARK    3  A    between atoms: C_8  and  C_10
REMARK    4  A    between atoms: C_8  and  C_11
REMARK    5  A    between atoms: C_12  and  C_13
REMARK    6  A    between atoms: C_19  and  C_32
REMARK    7  A    between atoms: C_24  and  C_31
REMARK                            x       y       z     vdW  Elec       q    Type
REMARK                         _______ _______ _______ _____ _____    ______ ____
ROOT
ATOM      1  C   UNL     1      -2.887  -4.475  -0.617  0.00  0.00    +0.092 C 
ATOM      2  C   UNL     1      -3.020  -5.760  -1.460  0.00  0.00    +0.064 C 
ATOM      3  C   UNL     1      -3.287  -6.956  -0.624  0.00  0.00    -0.019 C 
ATOM      4  C   UNL     1      -4.458  -7.477  -0.406  0.00  0.00    -0.064 C 
ATOM      5  C   UNL     1      -4.539  -8.740   0.430  0.00  0.00    +0.012 C 
ATOM      6  C   UNL     1      -5.636  -8.571   1.483  0.00  0.00    +0.007 C 
ATOM      7  C   UNL     1      -6.947  -8.203   0.783  0.00  0.00    +0.001 C 
ATOM      8  C   UNL     1      -6.797  -6.835   0.119  0.00  0.00    +0.011 C 
ATOM      9  C   UNL     1      -5.723  -6.901  -0.973  0.00  0.00    -0.007 C 
ATOM     10  C   UNL     1      -5.513  -5.513  -1.549  0.00  0.00    +0.056 C 
ATOM     11  C   UNL     1      -4.216  -5.401  -2.371  0.00  0.00    +0.185 C 
ATOM     12  O   UNL     1      -3.981  -3.991  -2.621  0.00  0.00    -0.461 OA
ATOM     13  C   UNL     1      -3.590  -3.422  -1.457  0.00  0.00    +0.309 C 
ATOM     14  O   UNL     1      -3.769  -2.271  -1.137  0.00  0.00    -0.251 OA
ATOM     15  C   UNL     1      -6.219  -7.813  -2.097  0.00  0.00    +0.016 C 
ATOM     16  C   UNL     1      -3.196  -8.982   1.122  0.00  0.00    +0.012 C 
ENDROOT
BRANCH   1  17
ATOM     17  C   UNL     1      -1.414  -4.111  -0.419  0.00  0.00    -0.063 C 
BRANCH  17  22
ATOM     18  C   UNL     1       0.734  -6.022   4.670  0.00  0.00    +0.007 C 
ATOM     19  C   UNL     1       0.554  -5.577   3.217  0.00  0.00    -0.015 C 
ATOM     20  C   UNL     1      -0.812  -6.001   2.743  0.00  0.00    -0.015 C 
ATOM     21  C   UNL     1      -1.351  -4.947   1.753  0.00  0.00    -0.079 C 
ATOM     22  N   UNL     1      -0.785  -5.084   0.484  0.00  0.00    +0.381 N 
ATOM     23  C   UNL     1       0.675  -4.870   0.468  0.00  0.00    -0.072 C 
ATOM     24  C   UNL     1       1.346  -6.162   0.863  0.00  0.00    -0.049 C 
ATOM     25  C   UNL     1       1.686  -6.185   2.365  0.00  0.00    +0.007 C 
ATOM     26  C   UNL     1       2.636  -6.323   0.055  0.00  0.00    +0.009 C 
ATOM     27  C   UNL     1       0.410  -7.330   0.546  0.00  0.00    +0.009 C 
ATOM     28  H   UNL     1      -0.981  -6.013   0.141  0.00  0.00    -0.082 HD
ENDBRANCH  17  22
ENDBRANCH   1  17
TORSDOF 2
