REMARK  Name = ZINC38705866
REMARK  13 active torsions:
REMARK  status: ('A' for Active; 'I' for Inactive)
REMARK    1  A    between atoms: C_1  and  C_2
REMARK    2  A    between atoms: C_2  and  O_3
REMARK    3  A    between atoms: O_3  and  C_4
REMARK    4  A    between atoms: C_6  and  C_14
REMARK    5  A    between atoms: C_9  and  O_10
REMARK    6  A    between atoms: O_10  and  C_11
REMARK    7  A    between atoms: C_11  and  C_12
REMARK    8  A    between atoms: C_17  and  C_32
REMARK    9  A    between atoms: N_24  and  C_25
REMARK   10  A    between atoms: C_25  and  C_26
REMARK   11  A    between atoms: C_33  and  C_40
REMARK   12  A    between atoms: C_35  and  C_39
REMARK   13  A    between atoms: C_37  and  O_38
REMARK                            x       y       z     vdW  Elec       q    Type
REMARK                         _______ _______ _______ _____ _____    ______ ____
ROOT
ATOM      1  C   UNL     1      -0.228  -4.964  -0.563  0.00  0.00    +0.142 C 
ATOM      2  C   UNL     1      -1.473  -5.607  -0.016  0.00  0.00    +0.035 A 
ATOM      3  C   UNL     1      -2.765  -5.434   0.489  0.00  0.00    +0.102 A 
ATOM      4  N   UNL     1      -3.244  -6.630   0.769  0.00  0.00    -0.173 NA
ATOM      5  N   UNL     1      -2.381  -7.542   0.490  0.00  0.00    -0.272 N 
ATOM      6  H   UNL     1      -2.518  -8.494   0.614  0.00  0.00    +0.189 HD
ATOM      7  C   UNL     1      -1.245  -6.970  -0.008  0.00  0.00    +0.126 A 
ATOM      8  C   UNL     1       0.103  -7.221  -0.530  0.00  0.00    +0.266 C 
ATOM      9  O   UNL     1       0.607  -8.322  -0.651  0.00  0.00    -0.268 OA
ATOM     10  N   UNL     1       0.703  -6.061  -0.857  0.00  0.00    -0.281 N 
ENDROOT
BRANCH   3  11
ATOM     11  C   UNL     1      -3.469  -4.140   0.677  0.00  0.00    +0.047 A 
ATOM     12  C   UNL     1      -4.082  -3.848   1.893  0.00  0.00    -0.037 A 
ATOM     13  C   UNL     1      -4.735  -2.644   2.062  0.00  0.00    +0.007 A 
ATOM     14  C   UNL     1      -4.783  -1.725   1.029  0.00  0.00    -0.047 A 
ATOM     15  C   UNL     1      -4.177  -2.006  -0.181  0.00  0.00    +0.049 A 
ATOM     16  C   UNL     1      -3.513  -3.208  -0.363  0.00  0.00    +0.127 A 
ATOM     17  C   UNL     1      -5.498  -0.413   1.223  0.00  0.00    +0.044 C 
ATOM     18  C   UNL     1      -4.034  -4.846   3.021  0.00  0.00    +0.044 C 
BRANCH  16  19
ATOM     19  O   UNL     1      -2.912  -3.482  -1.550  0.00  0.00    -0.506 OA
ATOM     20  H   UNL     1      -3.506  -3.856  -2.215  0.00  0.00    +0.292 HD
ENDBRANCH  16  19
ENDBRANCH   3  11
BRANCH   1  23
ATOM     21  C   UNL     1       0.937  -1.820   1.178  0.00  0.00    +0.162 A 
ATOM     22  C   UNL     1       0.387  -2.674   0.235  0.00  0.00    +0.055 A 
ATOM     23  C   UNL     1       0.371  -4.037   0.463  0.00  0.00    -0.019 A 
ATOM     24  C   UNL     1       0.902  -4.552   1.631  0.00  0.00    +0.009 A 
ATOM     25  C   UNL     1       1.451  -3.706   2.576  0.00  0.00    +0.050 A 
ATOM     26  C   UNL     1       1.476  -2.339   2.351  0.00  0.00    +0.162 A 
BRANCH  21  27
ATOM     27  O   UNL     1       0.954  -0.479   0.955  0.00  0.00    -0.489 OA
BRANCH  27  29
ATOM     28  C   UNL     1       0.493   1.507  -0.344  0.00  0.00    +0.048 C 
ATOM     29  C   UNL     1       0.383  -0.018  -0.271  0.00  0.00    +0.226 C 
ENDBRANCH  27  29
ENDBRANCH  21  27
BRANCH  26  30
ATOM     30  O   UNL     1       2.022  -1.505   3.277  0.00  0.00    -0.484 OA
BRANCH  30  31
ATOM     31  C   UNL     1       2.557  -2.108   4.457  0.00  0.00    +0.256 C 
BRANCH  31  32
ATOM     32  C   UNL     1       3.114  -1.037   5.359  0.00  0.00    +0.006 C 
ATOM     33  C   UNL     1       2.856  -1.063   6.644  0.00  0.00    +0.007 C 
ENDBRANCH  31  32
ENDBRANCH  30  31
ENDBRANCH  26  30
ENDBRANCH   1  23
BRANCH  10  34
ATOM     34  C   UNL     1       2.052  -5.918  -1.410  0.00  0.00    +0.145 C 
BRANCH  34  35
ATOM     35  C   UNL     1       3.044  -5.772  -0.284  0.00  0.00    -0.012 A 
ATOM     36  C   UNL     1       3.362  -4.517   0.213  0.00  0.00    +0.008 A 
ATOM     37  C   UNL     1       4.279  -4.431   1.249  0.00  0.00    +0.020 A 
ATOM     38  C   UNL     1       4.842  -5.590   1.748  0.00  0.00    +0.111 A 
ATOM     39  N   UNL     1       4.516  -6.767   1.251  0.00  0.00    -0.263 NA
ATOM     40  C   UNL     1       3.643  -6.887   0.270  0.00  0.00    +0.115 A 
ENDBRANCH  34  35
ENDBRANCH  10  34
TORSDOF 10
