REMARK  Name = ZINC15067374
REMARK  5 active torsions:
REMARK  status: ('A' for Active; 'I' for Inactive)
REMARK    1  A    between atoms: C_1  and  C_2
REMARK    2  A    between atoms: C_3  and  C_15
REMARK    3  A    between atoms: C_5  and  C_7
REMARK    4  A    between atoms: C_15  and  N_16
REMARK    5  A    between atoms: C_21  and  C_23
REMARK                            x       y       z     vdW  Elec       q    Type
REMARK                         _______ _______ _______ _____ _____    ______ ____
ROOT
ATOM      1  N   UNL     1      -2.989  -0.231  -1.369  0.00  0.00    +0.390 N 
ATOM      2  C   UNL     1      -2.974  -1.539  -2.035  0.00  0.00    -0.077 C 
ATOM      3  C   UNL     1      -3.391  -1.376  -3.498  0.00  0.00    -0.019 C 
ATOM      4  C   UNL     1      -4.803  -0.788  -3.558  0.00  0.00    -0.003 C 
ATOM      5  C   UNL     1      -4.825   0.541  -2.797  0.00  0.00    -0.008 C 
ATOM      6  C   UNL     1      -4.354   0.307  -1.360  0.00  0.00    -0.001 C 
ATOM      7  H   UNL     1      -2.382   0.404  -1.866  0.00  0.00    -0.080 HD
ENDROOT
BRANCH   6   8
ATOM      8  C   UNL     1      -4.374   1.612  -0.606  0.00  0.00    +0.095 A 
ATOM      9  N   UNL     1      -5.464   2.135   0.017  0.00  0.00    -0.343 N 
ATOM     10  H   UNL     1      -6.349   1.741   0.054  0.00  0.00    +0.167 HD
ATOM     11  C   UNL     1      -5.075   3.332   0.587  0.00  0.00    +0.066 A 
ATOM     12  C   UNL     1      -5.729   4.302   1.335  0.00  0.00    +0.030 A 
ATOM     13  C   UNL     1      -5.041   5.415   1.768  0.00  0.00    +0.040 A 
ATOM     14  C   UNL     1      -3.695   5.574   1.459  0.00  0.00    +0.126 A 
ATOM     15  C   UNL     1      -3.031   4.622   0.718  0.00  0.00    +0.068 A 
ATOM     16  C   UNL     1      -3.715   3.488   0.272  0.00  0.00    +0.092 A 
ATOM     17  N   UNL     1      -3.350   2.399  -0.453  0.00  0.00    -0.234 NA
ATOM     18  F   UNL     1      -3.034   6.671   1.889  0.00  0.00    -0.205 F 
ENDBRANCH   6   8
BRANCH   1  19
ATOM     19  C   UNL     1      -2.513  -0.381   0.012  0.00  0.00    -0.018 C 
BRANCH  19  22
ATOM     20  C   UNL     1      -0.018   1.503   0.010  0.00  0.00    +0.088 C 
ATOM     21  C   UNL     1       0.002  -0.004   0.002  0.00  0.00    +0.124 A 
ATOM     22  C   UNL     1      -1.070  -0.816   0.003  0.00  0.00    +0.066 A 
ATOM     23  N   UNL     1      -0.627  -2.083  -0.007  0.00  0.00    -0.216 NA
ATOM     24  C   UNL     1       0.685  -2.068  -0.013  0.00  0.00    +0.230 A 
ATOM     25  O   UNL     1       1.098  -0.788  -0.013  0.00  0.00    -0.440 OA
BRANCH  24  26
ATOM     26  C   UNL     1       1.562  -3.257  -0.024  0.00  0.00    +0.075 A 
ATOM     27  C   UNL     1       1.006  -4.538  -0.035  0.00  0.00    +0.054 A 
ATOM     28  C   UNL     1       1.831  -5.646  -0.045  0.00  0.00    +0.124 A 
ATOM     29  C   UNL     1       3.208  -5.488  -0.044  0.00  0.00    +0.041 A 
ATOM     30  C   UNL     1       3.765  -4.223  -0.034  0.00  0.00    +0.042 A 
ATOM     31  C   UNL     1       2.951  -3.106  -0.030  0.00  0.00    +0.136 A 
ATOM     32  F   UNL     1       3.497  -1.870  -0.026  0.00  0.00    -0.205 F 
ATOM     33  F   UNL     1       1.294  -6.885  -0.055  0.00  0.00    -0.205 F 
ENDBRANCH  24  26
ENDBRANCH  19  22
ENDBRANCH   1  19
TORSDOF 4
