REMARK  Name = ZINC40080551
REMARK  10 active torsions:
REMARK  status: ('A' for Active; 'I' for Inactive)
REMARK    1  A    between atoms: C_1  and  C_2
REMARK    2  A    between atoms: C_2  and  C_4
REMARK    3  A    between atoms: C_2  and  N_21
REMARK    4  A    between atoms: N_6  and  C_7
REMARK    5  A    between atoms: C_7  and  C_8
REMARK    6  A    between atoms: C_8  and  C_9
REMARK    7  A    between atoms: C_8  and  C_10
REMARK    8  A    between atoms: C_8  and  N_11
REMARK    9  A    between atoms: C_22  and  C_24
REMARK   10  A    between atoms: C_28  and  N_30
REMARK                            x       y       z     vdW  Elec       q    Type
REMARK                         _______ _______ _______ _____ _____    ______ ____
ROOT
ATOM      1  C   UNL     1      -2.074  -1.261  -0.471  0.00  0.00    +0.233 C 
ATOM      2  O   UNL     1      -2.762  -1.967  -1.177  0.00  0.00    -0.274 OA
ATOM      3  N   UNL     1      -2.594  -0.711   0.644  0.00  0.00    -0.315 N 
ATOM      4  H   UNL     1      -2.044  -0.146   1.209  0.00  0.00    +0.149 HD
ENDROOT
BRANCH   1   6
ATOM      5  C   UNL     1      -0.427   0.505  -1.037  0.00  0.00    +0.038 C 
ATOM      6  C   UNL     1      -0.637  -0.998  -0.840  0.00  0.00    +0.156 C 
BRANCH   6   7
ATOM      7  N   UNL     1      -0.316  -1.702  -2.084  0.00  0.00    -0.300 N 
ATOM      8  C   UNL     1       0.959  -2.046  -2.354  0.00  0.00    +0.245 C 
ATOM      9  O   UNL     1       1.843  -1.772  -1.565  0.00  0.00    -0.270 OA
ATOM     10  H   UNL     1      -1.020  -1.921  -2.713  0.00  0.00    +0.150 HD
BRANCH   8  11
ATOM     11  C   UNL     1       1.284  -2.757  -3.609  0.00  0.00    +0.039 A 
ATOM     12  C   UNL     1       0.272  -3.069  -4.519  0.00  0.00    +0.013 A 
ATOM     13  C   UNL     1       0.581  -3.732  -5.689  0.00  0.00    +0.003 A 
ATOM     14  C   UNL     1       1.891  -4.089  -5.960  0.00  0.00    +0.033 A 
ATOM     15  C   UNL     1       2.897  -3.784  -5.062  0.00  0.00    +0.127 A 
ATOM     16  C   UNL     1       2.603  -3.115  -3.891  0.00  0.00    +0.045 A 
BRANCH  15  17
ATOM     17  N   UNL     1       4.295  -4.170  -5.360  0.00  0.00    +0.056 N 
ATOM     18  O   UNL     1       4.555  -4.751  -6.387  0.00  0.00    -0.126 OA
ATOM     19  O   UNL     1       5.176  -3.904  -4.575  0.00  0.00    -0.126 OA
ENDBRANCH  15  17
ENDBRANCH   8  11
ENDBRANCH   6   7
ENDBRANCH   1   6
BRANCH   3  20
ATOM     20  C   UNL     1      -3.991  -0.966   1.004  0.00  0.00    +0.092 C 
BRANCH  20  21
ATOM     21  C   UNL     1      -4.327  -0.231   2.302  0.00  0.00    -0.055 C 
ATOM     22  C   UNL     1      -5.786  -0.497   2.678  0.00  0.00    -0.008 C 
ATOM     23  C   UNL     1      -3.413  -0.731   3.422  0.00  0.00    -0.008 C 
BRANCH  21  24
ATOM     24  N   UNL     1      -4.126   1.212   2.114  0.00  0.00    +0.387 N 
ATOM     25  C   UNL     1      -4.549   1.931   3.325  0.00  0.00    -0.073 C 
ATOM     26  C   UNL     1      -4.053   3.375   3.234  0.00  0.00    +0.017 C 
ATOM     27  C   UNL     1      -4.457   3.970   1.909  0.00  0.00    -0.048 A 
ATOM     28  C   UNL     1      -4.416   5.347   1.759  0.00  0.00    +0.004 A 
ATOM     29  C   UNL     1      -4.775   5.928   0.559  0.00  0.00    +0.000 A 
ATOM     30  C   UNL     1      -5.177   5.131  -0.497  0.00  0.00    +0.000 A 
ATOM     31  C   UNL     1      -5.219   3.760  -0.348  0.00  0.00    +0.002 A 
ATOM     32  C   UNL     1      -4.860   3.175   0.858  0.00  0.00    -0.061 A 
ATOM     33  C   UNL     1      -4.930   1.675   0.979  0.00  0.00    -0.042 C 
ATOM     34  H   UNL     1      -3.150   1.397   1.934  0.00  0.00    -0.080 HD
ENDBRANCH  21  24
ENDBRANCH  20  21
ENDBRANCH   3  20
TORSDOF 7
