REMARK  Name = ZINC65260166
REMARK  7 active torsions:
REMARK  status: ('A' for Active; 'I' for Inactive)
REMARK    1  A    between atoms: C_1  and  C_2
REMARK    2  A    between atoms: C_2  and  C_3
REMARK    3  A    between atoms: C_2  and  C_4
REMARK    4  A    between atoms: C_2  and  N_5
REMARK    5  A    between atoms: N_19  and  S_21
REMARK    6  A    between atoms: S_21  and  C_24
REMARK    7  A    between atoms: C_28  and  C_30
REMARK                            x       y       z     vdW  Elec       q    Type
REMARK                         _______ _______ _______ _____ _____    ______ ____
ROOT
ATOM      1  N   UNL     1       0.719  -0.442  -1.210  0.00  0.00    -0.370 N 
ATOM      2  C   UNL     1       1.967  -0.143  -1.376  0.00  0.00    +0.098 C 
ATOM      3  N   UNL     1       2.700   0.495  -0.391  0.00  0.00    -0.301 N 
ATOM      4  C   UNL     1       3.640   1.457  -0.797  0.00  0.00    +0.053 A 
ATOM      5  C   UNL     1       4.220   2.295   0.142  0.00  0.00    +0.025 A 
ATOM      6  C   UNL     1       5.152   3.236  -0.255  0.00  0.00    +0.002 A 
ATOM      7  C   UNL     1       5.507   3.345  -1.587  0.00  0.00    +0.002 A 
ATOM      8  C   UNL     1       4.929   2.516  -2.531  0.00  0.00    +0.025 A 
ATOM      9  C   UNL     1       3.992   1.571  -2.141  0.00  0.00    +0.049 A 
ATOM     10  N   UNL     1       3.394   0.743  -3.103  0.00  0.00    -0.329 N 
ATOM     11  C   UNL     1       2.704  -0.479  -2.655  0.00  0.00    +0.100 C 
ATOM     12  C   UNL     1       3.720  -1.587  -2.390  0.00  0.00    +0.036 C 
ATOM     13  C   UNL     1       4.487  -1.899  -3.678  0.00  0.00    +0.020 C 
ATOM     14  C   UNL     1       3.504  -2.379  -4.749  0.00  0.00    +0.109 C 
ATOM     15  N   UNL     1       2.447  -1.371  -4.910  0.00  0.00    -0.174 NA
ATOM     16  C   UNL     1       1.705  -0.931  -3.720  0.00  0.00    +0.142 C 
ATOM     17  H   UNL     1       0.207  -0.812  -1.947  0.00  0.00    +0.161 HD
ATOM     18  H   UNL     1       3.438   0.970  -4.045  0.00  0.00    +0.147 HD
ATOM     19  H   UNL     1       2.568   0.285   0.547  0.00  0.00    +0.153 HD
ENDROOT
BRANCH   1  21
ATOM     20  C   UNL     1       0.261   1.238   0.507  0.00  0.00    +0.033 C 
ATOM     21  C   UNL     1       0.080  -0.223   0.089  0.00  0.00    +0.031 C 
ATOM     22  C   UNL     1       0.723  -1.135   1.135  0.00  0.00    +0.033 C 
ATOM     23  C   UNL     1      -1.413  -0.542  -0.017  0.00  0.00    +0.033 C 
ENDBRANCH   1  21
BRANCH  15  24
ATOM     24  S   UNL     1       2.100  -0.742  -6.402  0.00  0.00    +0.061 S 
ATOM     25  O   UNL     1       1.498   0.526  -6.178  0.00  0.00    -0.153 OA
ATOM     26  O   UNL     1       3.270  -0.901  -7.192  0.00  0.00    -0.153 OA
BRANCH  24  27
ATOM     27  C   UNL     1       0.862  -1.767  -7.124  0.00  0.00    +0.107 A 
ATOM     28  C   UNL     1       1.230  -2.859  -7.890  0.00  0.00    +0.028 A 
ATOM     29  C   UNL     1       0.265  -3.669  -8.461  0.00  0.00    +0.003 A 
ATOM     30  C   UNL     1      -1.073  -3.393  -8.268  0.00  0.00    +0.019 A 
ATOM     31  C   UNL     1      -1.452  -2.294  -7.496  0.00  0.00    +0.054 A 
ATOM     32  C   UNL     1      -0.472  -1.483  -6.919  0.00  0.00    +0.047 A 
BRANCH  31  33
ATOM     33  C   UNL     1      -2.839  -2.001  -7.293  0.00  0.00    +0.099 C 
ATOM     34  N   UNL     1      -3.939  -1.769  -7.131  0.00  0.00    -0.191 NA
ENDBRANCH  31  33
ENDBRANCH  24  27
ENDBRANCH  15  24
TORSDOF 4
