REMARK  Name = ZINC19941540
REMARK  10 active torsions:
REMARK  status: ('A' for Active; 'I' for Inactive)
REMARK    1  A    between atoms: C_1  and  C_2
REMARK    2  A    between atoms: C_2  and  C_3
REMARK    3  A    between atoms: C_3  and  C_4
REMARK    4  A    between atoms: C_3  and  C_5
REMARK    5  A    between atoms: C_3  and  N_6
REMARK    6  A    between atoms: C_7  and  C_11
REMARK    7  A    between atoms: C_11  and  C_13
REMARK    8  A    between atoms: C_11  and  N_26
REMARK    9  A    between atoms: C_19  and  C_25
REMARK   10  A    between atoms: N_29  and  C_32
REMARK                            x       y       z     vdW  Elec       q    Type
REMARK                         _______ _______ _______ _____ _____    ______ ____
ROOT
ATOM      1  C   UNL     1       0.242  -2.821   4.541  0.00  0.00    +0.162 C 
ENDROOT
BRANCH   1   2
ATOM      2  C   UNL     1       0.431  -2.118   3.221  0.00  0.00    +0.042 A 
ATOM      3  C   UNL     1       0.584  -2.843   2.085  0.00  0.00    +0.021 A 
ATOM      4  C   UNL     1       0.765  -2.131   0.819  0.00  0.00    -0.001 A 
ATOM      5  C   UNL     1       0.928  -2.824  -0.385  0.00  0.00    +0.010 A 
ATOM      6  C   UNL     1       1.095  -2.129  -1.549  0.00  0.00    +0.001 A 
ATOM      7  C   UNL     1       1.097  -0.741  -1.549  0.00  0.00    +0.005 A 
ATOM      8  C   UNL     1       0.945  -0.037  -0.374  0.00  0.00    -0.026 A 
ATOM      9  C   UNL     1       0.774  -0.723   0.824  0.00  0.00    +0.052 A 
ATOM     10  N   UNL     1       0.613  -0.044   2.014  0.00  0.00    -0.322 N 
ATOM     11  H   UNL     1       0.619   1.055   2.024  0.00  0.00    +0.169 HD
ATOM     12  C   UNL     1       0.447  -0.708   3.171  0.00  0.00    +0.254 A 
ATOM     13  O   UNL     1       0.307  -0.075   4.204  0.00  0.00    -0.268 OA
ATOM     14  C   UNL     1       0.957   1.470  -0.388  0.00  0.00    +0.046 C 
ENDBRANCH   1   2
BRANCH   1  15
ATOM     15  N   UNL     1      -0.989  -2.339   5.181  0.00  0.00    -0.292 NA
ATOM     16  C   UNL     1      -1.159  -2.936   6.512  0.00  0.00    +0.067 C 
ATOM     17  C   UNL     1      -2.407  -2.350   7.176  0.00  0.00    -0.063 C 
ATOM     18  N   UNL     1      -3.579  -2.614   6.330  0.00  0.00    +0.383 N 
ATOM     19  C   UNL     1      -3.409  -2.017   4.998  0.00  0.00    -0.063 C 
ATOM     20  C   UNL     1      -2.161  -2.603   4.334  0.00  0.00    +0.067 C 
ATOM     21  H   UNL     1      -3.669  -3.704   6.205  0.00  0.00    -0.081 HD
BRANCH  18  22
ATOM     22  C   UNL     1      -4.810  -2.132   6.970  0.00  0.00    -0.068 C 
ATOM     23  C   UNL     1      -4.694  -0.629   7.233  0.00  0.00    -0.015 C 
ATOM     24  C   UNL     1      -5.976  -0.127   7.899  0.00  0.00    -0.002 C 
ATOM     25  C   UNL     1      -6.183  -0.862   9.225  0.00  0.00    -0.000 C 
ATOM     26  C   UNL     1      -6.300  -2.365   8.962  0.00  0.00    -0.002 C 
ATOM     27  C   UNL     1      -5.017  -2.867   8.296  0.00  0.00    -0.015 C 
ENDBRANCH  18  22
ENDBRANCH   1  15
BRANCH   1  29
ATOM     28  N   UNL     1       2.371  -3.405   5.818  0.00  0.00    -0.222 N 
ATOM     29  C   UNL     1       1.420  -2.533   5.436  0.00  0.00    +0.174 A 
ATOM     30  N   UNL     1       1.720  -1.383   5.988  0.00  0.00    -0.111 NA
ATOM     31  N   UNL     1       2.795  -1.542   6.681  0.00  0.00    -0.023 NA
ATOM     32  N   UNL     1       3.192  -2.762   6.578  0.00  0.00    -0.043 NA
BRANCH  28  33
ATOM     33  C   UNL     1       2.458  -4.818   5.442  0.00  0.00    +0.062 C 
ATOM     34  C   UNL     1       1.236  -5.565   5.982  0.00  0.00    +0.036 C 
ATOM     35  C   UNL     1       2.497  -4.939   3.918  0.00  0.00    +0.036 C 
BRANCH  33  37
ATOM     36  C   UNL     1       3.820  -6.903   5.643  0.00  0.00    +0.006 C 
ATOM     37  C   UNL     1       3.730  -5.427   6.036  0.00  0.00    +0.026 C 
ENDBRANCH  33  37
ENDBRANCH  28  33
ENDBRANCH   1  29
TORSDOF 6
