REMARK  Name = ZINC09183514
REMARK  9 active torsions:
REMARK  status: ('A' for Active; 'I' for Inactive)
REMARK    1  A    between atoms: C_1  and  C_2
REMARK    2  A    between atoms: C_2  and  C_29
REMARK    3  A    between atoms: C_6  and  N_21
REMARK    4  A    between atoms: C_12  and  N_16
REMARK    5  A    between atoms: N_16  and  C_17
REMARK    6  A    between atoms: C_17  and  C_18
REMARK    7  A    between atoms: C_18  and  N_62
REMARK    8  A    between atoms: C_19  and  N_62
REMARK    9  A    between atoms: C_20  and  N_62
REMARK                            x       y       z     vdW  Elec       q    Type
REMARK                         _______ _______ _______ _____ _____    ______ ____
ROOT
ATOM      1  C   UNL     1      -2.587   9.103  -2.497  0.00  0.00    +0.041 C 
ATOM      2  C   UNL     1      -2.568   7.585  -2.309  0.00  0.00    +0.068 C 
ATOM      3  C   UNL     1      -2.639   6.896  -3.674  0.00  0.00    +0.070 C 
ATOM      4  C   UNL     1      -2.334   5.430  -3.520  0.00  0.00    -0.024 A 
ATOM      5  C   UNL     1      -1.736   4.933  -2.405  0.00  0.00    +0.020 A 
ATOM      6  C   UNL     1      -1.460   3.564  -2.313  0.00  0.00    +0.105 A 
ATOM      7  C   UNL     1      -2.379   3.194  -4.389  0.00  0.00    +0.089 A 
ATOM      8  C   UNL     1      -2.688   4.553  -4.574  0.00  0.00    +0.035 A 
ATOM      9  C   UNL     1      -3.346   4.896  -5.848  0.00  0.00    +0.093 A 
ATOM     10  C   UNL     1      -3.586   3.828  -6.721  0.00  0.00    +0.080 A 
ATOM     11  S   UNL     1      -2.954   2.406  -5.873  0.00  0.00    -0.066 S 
ATOM     12  C   UNL     1      -4.199   4.033  -7.948  0.00  0.00    +0.136 A 
ATOM     13  N   UNL     1      -4.556   5.275  -8.276  0.00  0.00    -0.220 NA
ATOM     14  C   UNL     1      -4.324   6.271  -7.442  0.00  0.00    +0.224 A 
ATOM     15  N   UNL     1      -3.747   6.114  -6.277  0.00  0.00    -0.234 NA
ATOM     16  C   UNL     1      -1.345   5.827  -1.255  0.00  0.00    +0.199 C 
ATOM     17  O   UNL     1      -1.349   7.193  -1.668  0.00  0.00    -0.369 OA
ATOM     18  C   UNL     1      -3.762   7.156  -1.454  0.00  0.00    +0.041 C 
ATOM     19  N   UNL     1      -1.776   2.672  -3.293  0.00  0.00    -0.337 N 
ATOM     20  H   UNL     1      -1.570   1.669  -3.207  0.00  0.00    +0.168 HD
ENDROOT
BRANCH   6  21
ATOM     21  N   UNL     1      -0.839   3.061  -1.178  0.00  0.00    -0.312 N 
ATOM     22  C   UNL     1       0.094   1.979  -1.524  0.00  0.00    +0.134 C 
ATOM     23  C   UNL     1       0.799   1.494  -0.255  0.00  0.00    +0.178 C 
ATOM     24  O   UNL     1      -0.181   1.079   0.700  0.00  0.00    -0.377 OA
ATOM     25  C   UNL     1      -1.107   2.108   1.060  0.00  0.00    +0.178 C 
ATOM     26  C   UNL     1      -1.831   2.599  -0.197  0.00  0.00    +0.134 C 
ENDBRANCH   6  21
BRANCH  12  27
ATOM     27  N   UNL     1      -4.435   2.974  -8.811  0.00  0.00    -0.330 N 
ATOM     28  H   UNL     1      -4.171   2.075  -8.560  0.00  0.00    +0.147 HD
BRANCH  27  29
ATOM     29  C   UNL     1      -5.084   3.212 -10.103  0.00  0.00    +0.084 C 
BRANCH  29  30
ATOM     30  C   UNL     1      -5.225   1.887 -10.855  0.00  0.00    -0.061 C 
BRANCH  30  33
ATOM     31  C   UNL     1      -5.816   0.927 -12.998  0.00  0.00    -0.097 C 
ATOM     32  C   UNL     1      -7.263   2.573 -11.967  0.00  0.00    -0.097 C 
ATOM     33  N   UNL     1      -5.862   2.147 -12.163  0.00  0.00    +0.377 N 
ATOM     34  H   UNL     1      -5.349   2.897 -12.641  0.00  0.00    -0.083 HD
ENDBRANCH  30  33
ENDBRANCH  29  30
ENDBRANCH  27  29
ENDBRANCH  12  27
TORSDOF 5
