REMARK  Name = ZINC40756812
REMARK  8 active torsions:
REMARK  status: ('A' for Active; 'I' for Inactive)
REMARK    1  A    between atoms: C_1  and  C_2
REMARK    2  A    between atoms: C_11  and  N_12
REMARK    3  A    between atoms: C_14  and  N_29
REMARK    4  A    between atoms: C_15  and  N_19
REMARK    5  A    between atoms: N_19  and  C_20
REMARK    6  A    between atoms: C_20  and  C_21
REMARK    7  A    between atoms: C_21  and  C_22
REMARK    8  A    between atoms: C_22  and  N_23
REMARK                            x       y       z     vdW  Elec       q    Type
REMARK                         _______ _______ _______ _____ _____    ______ ____
ROOT
ATOM      1  N   UNL     1       0.065  -4.885  -1.143  0.00  0.00    -0.297 N 
ATOM      2  C   UNL     1       0.190  -6.269  -1.087  0.00  0.00    +0.149 A 
ATOM      3  C   UNL     1       0.306  -7.018  -2.259  0.00  0.00    +0.105 A 
ATOM      4  C   UNL     1       0.429  -8.404  -2.147  0.00  0.00    +0.145 A 
ATOM      5  N   UNL     1       0.431  -8.954  -0.935  0.00  0.00    -0.219 NA
ATOM      6  C   UNL     1       0.320  -8.210   0.147  0.00  0.00    +0.225 A 
ATOM      7  N   UNL     1       0.206  -6.899   0.085  0.00  0.00    -0.219 NA
ATOM      8  H   UNL     1      -0.029  -4.441  -2.000  0.00  0.00    +0.154 HD
ENDROOT
BRANCH   1  19
ATOM      9  C   UNL     1      -2.358   0.941   0.383  0.00  0.00    +0.063 C 
ATOM     10  C   UNL     1      -1.713  -0.417   0.276  0.00  0.00    +0.013 A 
ATOM     11  C   UNL     1      -1.768  -1.099  -0.937  0.00  0.00    +0.021 A 
ATOM     12  C   UNL     1      -1.187  -2.332  -1.052  0.00  0.00    +0.013 A 
ATOM     13  C   UNL     1      -0.546  -2.871   0.076  0.00  0.00    +0.020 A 
ATOM     14  C   UNL     1      -0.527  -2.124   1.280  0.00  0.00    +0.048 A 
ATOM     15  N   UNL     1      -1.109  -0.921   1.325  0.00  0.00    -0.358 N 
ATOM     16  C   UNL     1       0.113  -2.661   2.409  0.00  0.00    +0.026 A 
ATOM     17  C   UNL     1       0.706  -3.885   2.341  0.00  0.00    +0.004 A 
ATOM     18  C   UNL     1       0.693  -4.627   1.165  0.00  0.00    +0.024 A 
ATOM     19  C   UNL     1       0.075  -4.137   0.032  0.00  0.00    +0.042 A 
ATOM     20  H   UNL     1      -1.089  -0.414   2.151  0.00  0.00    +0.166 HD
ENDBRANCH   1  19
BRANCH   3  21
ATOM     21  N   UNL     1       0.298  -6.394  -3.517  0.00  0.00    -0.353 N 
ATOM     22  H   UNL     1       0.211  -5.430  -3.580  0.00  0.00    +0.143 HD
ATOM     23  H   UNL     1       0.380  -6.928  -4.324  0.00  0.00    +0.143 HD
ENDBRANCH   3  21
BRANCH   4  24
ATOM     24  N   UNL     1       0.547  -9.197  -3.282  0.00  0.00    -0.327 N 
ATOM     25  H   UNL     1       0.545  -8.788  -4.161  0.00  0.00    +0.148 HD
BRANCH  24  26
ATOM     26  C   UNL     1       0.676 -10.650  -3.150  0.00  0.00    +0.104 C 
BRANCH  26  27
ATOM     27  C   UNL     1       0.789 -11.280  -4.540  0.00  0.00    +0.034 C 
BRANCH  27  28
ATOM     28  C   UNL     1       0.924 -12.798  -4.402  0.00  0.00    +0.086 C 
BRANCH  28  29
ATOM     29  N   UNL     1       1.033 -13.403  -5.737  0.00  0.00    -0.298 NA
ATOM     30  C   UNL     1      -0.216 -13.236  -6.494  0.00  0.00    +0.112 C 
ATOM     31  C   UNL     1      -0.039 -13.826  -7.896  0.00  0.00    +0.175 C 
ATOM     32  O   UNL     1       0.347 -15.198  -7.785  0.00  0.00    -0.377 OA
ATOM     33  C   UNL     1       1.560 -15.397  -7.053  0.00  0.00    +0.175 C 
ATOM     34  C   UNL     1       1.400 -14.823  -5.643  0.00  0.00    +0.112 C 
ENDBRANCH  28  29
ENDBRANCH  27  28
ENDBRANCH  26  27
ENDBRANCH  24  26
ENDBRANCH   4  24
TORSDOF 7
