REMARK  Name = ZINC45599405
REMARK  6 active torsions:
REMARK  status: ('A' for Active; 'I' for Inactive)
REMARK    1  A    between atoms: C_3  and  C_6
REMARK    2  A    between atoms: C_9  and  S_18
REMARK    3  A    between atoms: N_10  and  C_11
REMARK    4  A    between atoms: C_11  and  C_12
REMARK    5  A    between atoms: S_18  and  C_19
REMARK    6  A    between atoms: C_19  and  C_20
REMARK                            x       y       z     vdW  Elec       q    Type
REMARK                         _______ _______ _______ _____ _____    ______ ____
ROOT
ATOM      1  C   UNL     1       8.534   3.508  -0.066  0.00  0.00    +0.153 C 
ENDROOT
BRANCH   1   2
ATOM      2  C   UNL     1       9.982   3.143   0.141  0.00  0.00    +0.143 A 
ATOM      3  N   UNL     1      10.530   3.324   1.330  0.00  0.00    -0.216 NA
ATOM      4  C   UNL     1      11.794   3.023   1.576  0.00  0.00    +0.128 A 
ATOM      5  C   UNL     1      12.594   2.487   0.528  0.00  0.00    +0.051 A 
ATOM      6  C   UNL     1      14.004   2.084   0.570  0.00  0.00    -0.025 A 
ATOM      7  C   UNL     1      14.531   1.605  -0.574  0.00  0.00    -0.004 A 
ATOM      8  S   UNL     1      13.206   1.649  -1.753  0.00  0.00    -0.073 S 
ATOM      9  C   UNL     1      11.941   2.322  -0.708  0.00  0.00    +0.114 A 
ATOM     10  N   UNL     1      10.672   2.644  -0.866  0.00  0.00    -0.224 NA
ATOM     11  C   UNL     1      15.935   1.144  -0.816  0.00  0.00    +0.043 C 
ATOM     12  C   UNL     1      16.349   0.172   0.297  0.00  0.00    +0.005 C 
ATOM     13  C   UNL     1      16.968   0.979   1.434  0.00  0.00    +0.001 C 
ATOM     14  C   UNL     1      16.297   2.348   1.529  0.00  0.00    +0.005 C 
ATOM     15  C   UNL     1      14.817   2.196   1.857  0.00  0.00    +0.037 C 
ATOM     16  N   UNL     1      12.332   3.227   2.834  0.00  0.00    -0.343 N 
ATOM     17  H   UNL     1      13.079   2.687   3.136  0.00  0.00    +0.144 HD
ATOM     18  H   UNL     1      11.962   3.911   3.414  0.00  0.00    +0.144 HD
ENDBRANCH   1   2
BRANCH   1  19
ATOM     19  S   UNL     1       7.489   2.075   0.313  0.00  0.00    -0.078 S 
BRANCH  19  23
ATOM     20  C   UNL     1       3.676   2.797  -0.158  0.00  0.00    +0.172 A 
ATOM     21  N   UNL     1       4.231   3.945  -0.480  0.00  0.00    -0.128 NA
ATOM     22  N   UNL     1       5.509   3.860  -0.372  0.00  0.00    -0.122 NA
ATOM     23  C   UNL     1       5.850   2.655   0.026  0.00  0.00    +0.192 A 
ATOM     24  N   UNL     1       4.697   1.938   0.182  0.00  0.00    -0.299 N 
BRANCH  20  27
ATOM     25  C   UNL     1      -0.104   2.829  -0.193  0.00  0.00    +0.008 A 
ATOM     26  C   UNL     1       1.169   3.353  -0.208  0.00  0.00    +0.019 A 
ATOM     27  C   UNL     1       2.236   2.492  -0.155  0.00  0.00    +0.056 A 
ATOM     28  S   UNL     1       1.423   0.904  -0.081  0.00  0.00    -0.094 S 
ATOM     29  C   UNL     1      -0.265   1.482  -0.125  0.00  0.00    +0.046 A 
ENDBRANCH  20  27
BRANCH  24  30
ATOM     30  C   UNL     1       4.573   0.544   0.617  0.00  0.00    +0.157 C 
BRANCH  30  31
ATOM     31  C   UNL     1       4.620  -0.377  -0.604  0.00  0.00    +0.138 C 
ATOM     32  C   UNL     1       4.369  -1.837  -0.169  0.00  0.00    +0.035 C 
ATOM     33  C   UNL     1       5.364  -2.623  -1.065  0.00  0.00    +0.031 C 
ATOM     34  C   UNL     1       6.538  -1.617  -1.155  0.00  0.00    +0.160 C 
ATOM     35  O   UNL     1       5.918  -0.320  -1.206  0.00  0.00    -0.375 OA
ENDBRANCH  30  31
ENDBRANCH  24  30
ENDBRANCH  19  23
ENDBRANCH   1  19
TORSDOF 6
