REMARK  Name = ZINC54669987
REMARK  5 active torsions:
REMARK  status: ('A' for Active; 'I' for Inactive)
REMARK    1  A    between atoms: C_3  and  N_16
REMARK    2  A    between atoms: C_6  and  N_7
REMARK    3  A    between atoms: C_9  and  C_12
REMARK    4  A    between atoms: C_12  and  C_13
REMARK    5  A    between atoms: C_13  and  C_14
REMARK                            x       y       z     vdW  Elec       q    Type
REMARK                         _______ _______ _______ _____ _____    ______ ____
ROOT
ATOM      1  C   UNL     1      -0.017   1.384   0.010  0.00  0.00    +0.030 A 
ATOM      2  C   UNL     1       1.171   2.090   0.002  0.00  0.00    +0.035 A 
ATOM      3  C   UNL     1       2.377   1.415  -0.013  0.00  0.00    +0.126 A 
ATOM      4  C   UNL     1       2.399   0.032  -0.021  0.00  0.00    +0.035 A 
ATOM      5  C   UNL     1       1.215  -0.679  -0.014  0.00  0.00    +0.030 A 
ATOM      6  C   UNL     1       0.002  -0.004   0.002  0.00  0.00    +0.065 A 
ENDROOT
BRANCH   6   7
ATOM      7  N   UNL     1      -1.201  -0.723   0.010  0.00  0.00    -0.240 N 
ATOM      8  C   UNL     1      -1.324  -2.070   0.009  0.00  0.00    +0.118 A 
ATOM      9  C   UNL     1      -2.645  -2.362   0.019  0.00  0.00    -0.009 A 
ATOM     10  C   UNL     1      -3.354  -1.156   0.025  0.00  0.00    +0.138 A 
ATOM     11  N   UNL     1      -2.490  -0.173   0.026  0.00  0.00    -0.175 NA
BRANCH   9  12
ATOM     12  C   UNL     1      -3.247  -3.744   0.022  0.00  0.00    +0.039 C 
BRANCH  12  13
ATOM     13  C   UNL     1      -3.440  -4.213   1.465  0.00  0.00    +0.020 C 
BRANCH  13  14
ATOM     14  C   UNL     1      -4.051  -5.616   1.468  0.00  0.00    +0.109 C 
ATOM     15 CL   UNL     1      -4.278  -6.169   3.169  0.00  0.00    -0.125 Cl
ENDBRANCH  13  14
ENDBRANCH  12  13
ENDBRANCH   9  12
ENDBRANCH   6   7
BRANCH   3  16
ATOM     16  N   UNL     1       3.648   2.174  -0.022  0.00  0.00    +0.056 N 
ATOM     17  O   UNL     1       3.630   3.382  -0.015  0.00  0.00    -0.126 OA
ATOM     18  O   UNL     1       4.704   1.585  -0.035  0.00  0.00    -0.126 OA
ENDBRANCH   3  16
TORSDOF 5
