REMARK  Name = ZINC13629582
REMARK  4 active torsions:
REMARK  status: ('A' for Active; 'I' for Inactive)
REMARK    1  A    between atoms: C_1  and  C_2
REMARK    2  A    between atoms: C_15  and  C_21
REMARK    3  A    between atoms: C_18  and  C_20
REMARK    4  A    between atoms: C_25  and  N_27
REMARK                            x       y       z     vdW  Elec       q    Type
REMARK                         _______ _______ _______ _____ _____    ______ ____
ROOT
ATOM      1  C   UNL     1      -3.466   2.958   0.145  0.00  0.00    +0.110 C 
ATOM      2  C   UNL     1      -2.384   1.917   0.021  0.00  0.00    +0.223 C 
ATOM      3  O   UNL     1      -2.678   0.745  -0.078  0.00  0.00    -0.275 OA
ATOM      4  N   UNL     1      -1.088   2.288   0.020  0.00  0.00    -0.208 N 
ATOM      5  C   UNL     1      -0.017   1.388   0.019  0.00  0.00    +0.050 A 
ATOM      6  C   UNL     1       0.002  -0.004   0.021  0.00  0.00    +0.024 A 
ATOM      7  C   UNL     1       1.203  -0.682   0.011  0.00  0.00    +0.002 A 
ATOM      8  C   UNL     1       2.398   0.014   0.001  0.00  0.00    +0.000 A 
ATOM      9  C   UNL     1       2.388   1.398   0.001  0.00  0.00    +0.008 A 
ATOM     10  C   UNL     1       1.191   2.078   0.011  0.00  0.00    +0.009 A 
ATOM     11  C   UNL     1       0.831   3.537   0.016  0.00  0.00    +0.168 C 
ATOM     12  C   UNL     1      -0.673   3.570   0.023  0.00  0.00    +0.257 C 
ATOM     13  O   UNL     1      -1.375   4.558   0.026  0.00  0.00    -0.272 OA
ATOM     14  C   UNL     1       1.415   4.258   1.235  0.00  0.00    +0.100 C 
ATOM     15  C   UNL     1       2.277   5.343   0.626  0.00  0.00    +0.070 C 
ATOM     16  N   UNL     1       2.212   5.272  -0.660  0.00  0.00    -0.180 NA
ATOM     17  N   UNL     1       1.390   4.247  -1.133  0.00  0.00    -0.173 N 
ATOM     18  C   UNL     1       1.152   3.960  -2.428  0.00  0.00    +0.233 C 
ATOM     19  O   UNL     1       0.416   3.042  -2.721  0.00  0.00    -0.274 OA
ATOM     20  C   UNL     1       1.800   4.782  -3.512  0.00  0.00    +0.111 C 
ENDROOT
BRANCH  15  21
ATOM     21  C   UNL     1       3.069   6.329   1.385  0.00  0.00    -0.000 A 
ATOM     22  C   UNL     1       3.061   6.309   2.782  0.00  0.00    +0.010 A 
ATOM     23  C   UNL     1       3.804   7.233   3.486  0.00  0.00    +0.003 A 
ATOM     24  C   UNL     1       4.556   8.179   2.812  0.00  0.00    +0.033 A 
ATOM     25  C   UNL     1       4.569   8.205   1.428  0.00  0.00    +0.127 A 
ATOM     26  C   UNL     1       3.834   7.283   0.711  0.00  0.00    +0.042 A 
BRANCH  25  27
ATOM     27  N   UNL     1       5.377   9.220   0.716  0.00  0.00    +0.056 N 
ATOM     28  O   UNL     1       6.030  10.032   1.347  0.00  0.00    -0.126 OA
ATOM     29  O   UNL     1       5.389   9.244  -0.502  0.00  0.00    -0.126 OA
ENDBRANCH  25  27
ENDBRANCH  15  21
TORSDOF 2
