REMARK  Name = ZINC53627510
REMARK  10 active torsions:
REMARK  status: ('A' for Active; 'I' for Inactive)
REMARK    1  A    between atoms: C_1  and  C_2
REMARK    2  A    between atoms: C_4  and  C_22
REMARK    3  A    between atoms: C_14  and  O_16
REMARK    4  A    between atoms: O_16  and  C_17
REMARK    5  A    between atoms: C_17  and  C_18
REMARK    6  A    between atoms: C_18  and  C_20
REMARK    7  A    between atoms: C_22  and  C_23
REMARK    8  A    between atoms: N_25  and  C_26
REMARK    9  A    between atoms: C_26  and  C_27
REMARK   10  A    between atoms: C_27  and  C_28
REMARK                            x       y       z     vdW  Elec       q    Type
REMARK                         _______ _______ _______ _____ _____    ______ ____
ROOT
ATOM      1  C   UNL     1      -0.568   1.613   0.467  0.00  0.00    +0.013 C 
ATOM      2  C   UNL     1      -0.554   0.083   0.429  0.00  0.00    +0.030 C 
ATOM      3  C   UNL     1       0.013  -0.398  -0.914  0.00  0.00    +0.113 C 
ATOM      4  C   UNL     1       1.464   0.015  -0.999  0.00  0.00    +0.312 C 
ATOM      5  O   UNL     1       1.973   0.236  -2.073  0.00  0.00    -0.250 OA
ATOM      6  O   UNL     1       2.185   0.136   0.131  0.00  0.00    -0.456 OA
ATOM      7  C   UNL     1       1.794  -0.701   1.226  0.00  0.00    +0.210 C 
ATOM      8  C   UNL     1       0.335  -0.447   1.529  0.00  0.00    -0.024 C 
ATOM      9  C   UNL     1      -0.155  -0.707   2.733  0.00  0.00    +0.026 C 
ATOM     10  C   UNL     1       0.737  -1.188   3.798  0.00  0.00    +0.079 C 
ATOM     11  C   UNL     1       2.059  -1.041   3.674  0.00  0.00    +0.120 C 
ATOM     12  C   UNL     1       2.646  -0.371   2.451  0.00  0.00    +0.124 C 
ATOM     13 CL   UNL     1       0.074  -1.944   5.213  0.00  0.00    -0.080 Cl
ENDROOT
BRANCH  11  14
ATOM     14  O   UNL     1       2.884  -1.502   4.645  0.00  0.00    -0.490 OA
BRANCH  14  15
ATOM     15  C   UNL     1       3.633  -0.530   5.377  0.00  0.00    +0.259 C 
BRANCH  15  16
ATOM     16  C   UNL     1       4.433  -1.217   6.453  0.00  0.00    -0.043 C 
ATOM     17  C   UNL     1       4.363  -2.518   6.591  0.00  0.00    +0.011 C 
ATOM     18  C   UNL     1       5.314  -0.408   7.370  0.00  0.00    +0.042 C 
ENDBRANCH  15  16
ENDBRANCH  14  15
ENDBRANCH  11  14
BRANCH   3  19
ATOM     19  C   UNL     1      -0.774   0.238  -2.062  0.00  0.00    +0.111 C 
BRANCH  19  20
ATOM     20  C   UNL     1      -0.296  -0.329  -3.374  0.00  0.00    +0.214 C 
ATOM     21  O   UNL     1       0.587  -1.160  -3.389  0.00  0.00    -0.276 OA
ATOM     22  N   UNL     1      -0.851   0.087  -4.530  0.00  0.00    -0.315 N 
ATOM     23  H   UNL     1      -1.557   0.751  -4.517  0.00  0.00    +0.149 HD
BRANCH  22  24
ATOM     24  C   UNL     1      -0.386  -0.465  -5.805  0.00  0.00    +0.110 C 
BRANCH  24  25
ATOM     25  C   UNL     1      -1.173   0.171  -6.953  0.00  0.00    +0.073 C 
BRANCH  25  26
ATOM     26  C   UNL     1      -0.696  -0.397  -8.264  0.00  0.00    +0.035 A 
ATOM     27  N   UNL     1      -1.248  -1.445  -8.949  0.00  0.00    -0.350 N 
ATOM     28  C   UNL     1      -0.514  -1.622 -10.069  0.00  0.00    +0.171 A 
ATOM     29  N   UNL     1       0.444  -0.736 -10.085  0.00  0.00    -0.352 N 
ATOM     30  C   UNL     1       0.353   0.034  -8.991  0.00  0.00    +0.105 A 
ATOM     31  H   UNL     1      -2.022  -1.964  -8.681  0.00  0.00    +0.166 HD
ATOM     32  H   UNL     1       1.114  -0.646 -10.781  0.00  0.00    +0.166 HD
ENDBRANCH  25  26
ENDBRANCH  24  25
ENDBRANCH  22  24
ENDBRANCH  19  20
ENDBRANCH   3  19
TORSDOF 8
