REMARK  Name = ZINC04738535
REMARK  4 active torsions:
REMARK  status: ('A' for Active; 'I' for Inactive)
REMARK    1  A    between atoms: C_1  and  C_2
REMARK    2  A    between atoms: C_7  and  N_8
REMARK    3  A    between atoms: C_9  and  C_10
REMARK    4  A    between atoms: N_17  and  C_20
REMARK                            x       y       z     vdW  Elec       q    Type
REMARK                         _______ _______ _______ _____ _____    ______ ____
ROOT
ATOM      1  C   UNL     1       1.108   1.997   0.577  0.00  0.00    +0.203 C 
ATOM      2  C   UNL     1       1.130   3.166  -0.390  0.00  0.00    +0.238 C 
ATOM      3  O   UNL     1       2.149   3.787  -0.602  0.00  0.00    -0.274 OA
ATOM      4  N   UNL     1      -0.028   3.489  -1.004  0.00  0.00    -0.238 N 
ATOM      5  C   UNL     1      -1.161   2.814  -0.780  0.00  0.00    +0.319 C 
ATOM      6  O   UNL     1      -2.157   3.173  -1.377  0.00  0.00    -0.251 OA
ATOM      7  N   UNL     1      -1.276   1.770   0.048  0.00  0.00    -0.193 N 
ATOM      8  C   UNL     1      -0.228   1.302   0.758  0.00  0.00    +0.245 C 
ATOM      9  O   UNL     1      -0.348   0.357   1.508  0.00  0.00    -0.274 OA
ATOM     10  H   UNL     1      -0.038   4.233  -1.627  0.00  0.00    +0.159 HD
ENDROOT
BRANCH   7  11
ATOM     11  C   UNL     1      -2.525   1.146   0.186  0.00  0.00    +0.046 A 
ATOM     12  C   UNL     1      -3.424   1.596   1.143  0.00  0.00    +0.027 A 
ATOM     13  C   UNL     1      -4.655   0.983   1.275  0.00  0.00    +0.040 A 
ATOM     14  C   UNL     1      -4.988  -0.086   0.461  0.00  0.00    +0.124 A 
ATOM     15  C   UNL     1      -4.090  -0.540  -0.491  0.00  0.00    +0.040 A 
ATOM     16  C   UNL     1      -2.861   0.074  -0.629  0.00  0.00    +0.027 A 
ATOM     17  F   UNL     1      -6.190  -0.688   0.595  0.00  0.00    -0.205 F 
ENDBRANCH   7  11
BRANCH   1  19
ATOM     18  N   UNL     1       2.679   2.078   2.423  0.00  0.00    -0.258 NA
ATOM     19  C   UNL     1       1.564   2.495   1.925  0.00  0.00    +0.106 C 
BRANCH  18  26
ATOM     20  C   UNL     1       5.316   3.066   2.812  0.00  0.00    +0.046 C 
ATOM     21  C   UNL     1       4.325   2.938   3.941  0.00  0.00    -0.025 A 
ATOM     22  C   UNL     1       4.685   3.307   5.222  0.00  0.00    +0.005 A 
ATOM     23  C   UNL     1       3.778   3.189   6.259  0.00  0.00    +0.000 A 
ATOM     24  C   UNL     1       2.505   2.703   6.021  0.00  0.00    +0.002 A 
ATOM     25  C   UNL     1       2.131   2.337   4.744  0.00  0.00    +0.028 A 
ATOM     26  C   UNL     1       3.044   2.447   3.695  0.00  0.00    +0.066 A 
ENDBRANCH  18  26
ENDBRANCH   1  19
TORSDOF 3
