REMARK  Name = ZINC41001709
REMARK  15 active torsions:
REMARK  status: ('A' for Active; 'I' for Inactive)
REMARK    1  A    between atoms: C_1  and  C_2
REMARK    2  A    between atoms: C_2  and  C_3
REMARK    3  A    between atoms: C_3  and  C_4
REMARK    4  A    between atoms: C_4  and  S_5
REMARK    5  A    between atoms: S_5  and  C_6
REMARK    6  A    between atoms: C_11  and  C_21
REMARK    7  A    between atoms: C_13  and  C_17
REMARK    8  A    between atoms: C_14  and  C_16
REMARK    9  A    between atoms: C_17  and  O_19
REMARK   10  A    between atoms: O_19  and  C_20
REMARK   11  A    between atoms: C_24  and  O_29
REMARK   12  A    between atoms: C_25  and  O_27
REMARK   13  A    between atoms: O_27  and  C_28
REMARK   14  A    between atoms: O_29  and  C_30
REMARK   15  A    between atoms: C_30  and  C_31
REMARK                            x       y       z     vdW  Elec       q    Type
REMARK                         _______ _______ _______ _____ _____    ______ ____
ROOT
ATOM      1  C   UNL     1       1.150  -4.409  -2.875  0.00  0.00    +0.210 A 
ATOM      2  N   UNL     1       0.626  -5.080  -1.839  0.00  0.00    -0.187 NA
ATOM      3  C   UNL     1       0.924  -6.346  -1.944  0.00  0.00    +0.219 A 
ATOM      4  N   UNL     1       1.664  -6.513  -3.068  0.00  0.00    -0.220 N 
ATOM      5  N   UNL     1       1.790  -5.255  -3.654  0.00  0.00    -0.141 NA
ATOM      6  C   UNL     1       2.189  -7.804  -3.506  0.00  0.00    +0.179 C 
ATOM      7  C   UNL     1       1.542  -8.905  -2.708  0.00  0.00    +0.082 C 
ATOM      8  C   UNL     1       0.815  -8.678  -1.603  0.00  0.00    +0.020 C 
ATOM      9  N   UNL     1       0.597  -7.413  -1.118  0.00  0.00    -0.287 N 
ATOM     10  C   UNL     1       0.220  -9.852  -0.870  0.00  0.00    +0.061 C 
ATOM     11  H   UNL     1       0.227  -7.270  -0.233  0.00  0.00    +0.155 HD
ENDROOT
BRANCH   6  12
ATOM     12  C   UNL     1       3.681  -7.838  -3.292  0.00  0.00    -0.015 A 
ATOM     13  C   UNL     1       4.199  -7.686  -2.019  0.00  0.00    +0.010 A 
ATOM     14  C   UNL     1       5.566  -7.717  -1.817  0.00  0.00    +0.050 A 
ATOM     15  C   UNL     1       6.421  -7.901  -2.892  0.00  0.00    +0.162 A 
ATOM     16  C   UNL     1       5.899  -8.055  -4.173  0.00  0.00    +0.162 A 
ATOM     17  C   UNL     1       4.528  -8.028  -4.367  0.00  0.00    +0.055 A 
BRANCH  16  18
ATOM     18  O   UNL     1       6.734  -8.236  -5.231  0.00  0.00    -0.491 OA
ATOM     19  C   UNL     1       6.129  -8.387  -6.517  0.00  0.00    +0.277 C 
ENDBRANCH  16  18
BRANCH  15  20
ATOM     20  O   UNL     1       7.766  -7.931  -2.696  0.00  0.00    -0.484 OA
BRANCH  20  21
ATOM     21  C   UNL     1       8.229  -7.766  -1.354  0.00  0.00    +0.264 C 
BRANCH  21  22
ATOM     22  C   UNL     1       9.735  -7.827  -1.331  0.00  0.00    -0.010 A 
ATOM     23  C   UNL     1      10.375  -9.041  -1.164  0.00  0.00    +0.008 A 
ATOM     24  C   UNL     1      11.756  -9.098  -1.143  0.00  0.00    +0.020 A 
ATOM     25  C   UNL     1      12.498  -7.939  -1.290  0.00  0.00    +0.041 A 
ATOM     26  C   UNL     1      11.857  -6.725  -1.458  0.00  0.00    +0.020 A 
ATOM     27  C   UNL     1      10.476  -6.670  -1.485  0.00  0.00    +0.008 A 
ATOM     28 CL   UNL     1      14.232  -8.009  -1.264  0.00  0.00    -0.084 Cl
ENDBRANCH  21  22
ENDBRANCH  20  21
ENDBRANCH  15  20
ENDBRANCH   6  12
BRANCH   7  29
ATOM     29  C   UNL     1       1.707 -10.238  -3.144  0.00  0.00    +0.339 C 
ATOM     30  O   UNL     1       1.099 -10.639  -4.119  0.00  0.00    -0.245 OA
BRANCH  29  31
ATOM     31  O   UNL     1       2.540 -11.067  -2.480  0.00  0.00    -0.465 OA
ATOM     32  C   UNL     1       2.658 -12.402  -2.976  0.00  0.00    +0.280 C 
ENDBRANCH  29  31
ENDBRANCH   7  29
BRANCH   1  33
ATOM     33  S   UNL     1       1.001  -2.675  -3.152  0.00  0.00    -0.084 S 
BRANCH  33  34
ATOM     34  C   UNL     1       0.019  -2.089  -1.743  0.00  0.00    +0.077 C 
BRANCH  34  35
ATOM     35  C   UNL     1      -0.188  -0.578  -1.860  0.00  0.00    +0.011 C 
BRANCH  35  37
ATOM     36  C   UNL     1      -1.224   1.428  -0.789  0.00  0.00    +0.004 C 
ATOM     37  C   UNL     1      -1.016  -0.083  -0.672  0.00  0.00    -0.003 C 
ENDBRANCH  35  37
ENDBRANCH  34  35
ENDBRANCH  33  34
ENDBRANCH   1  33
TORSDOF 11
