REMARK  Name = ZINC09293418
REMARK  8 active torsions:
REMARK  status: ('A' for Active; 'I' for Inactive)
REMARK    1  A    between atoms: C_1  and  C_2
REMARK    2  A    between atoms: C_7  and  N_8
REMARK    3  A    between atoms: C_9  and  C_29
REMARK    4  A    between atoms: C_11  and  C_14
REMARK    5  A    between atoms: C_12  and  C_13
REMARK    6  A    between atoms: C_24  and  C_26
REMARK    7  A    between atoms: C_26  and  C_27
REMARK    8  A    between atoms: C_26  and  C_28
REMARK                            x       y       z     vdW  Elec       q    Type
REMARK                         _______ _______ _______ _____ _____    ______ ____
ROOT
ATOM      1  C   UNL     1       1.649   1.554   5.279  0.00  0.00    +0.026 C 
ATOM      2  C   UNL     1       1.149   1.731   6.553  0.00  0.00    +0.081 C 
ATOM      3  C   UNL     1      -0.192   1.218   6.948  0.00  0.00    +0.152 C 
ATOM      4  N   UNL     1      -0.713   0.122   6.461  0.00  0.00    -0.283 NA
ATOM      5  N   UNL     1      -0.845   2.031   7.899  0.00  0.00    -0.152 N 
ATOM      6  C   UNL     1      -0.060   2.842   8.689  0.00  0.00    +0.181 C 
ATOM      7  N   UNL     1       1.233   3.028   8.604  0.00  0.00    -0.152 NA
ATOM      8  C   UNL     1       1.921   2.436   7.605  0.00  0.00    +0.273 C 
ATOM      9  O   UNL     1       3.141   2.481   7.564  0.00  0.00    -0.268 OA
ATOM     10  S   UNL     1      -1.252   3.553   9.792  0.00  0.00    -0.038 S 
ATOM     11  C   UNL     1      -2.710   2.810   9.072  0.00  0.00    +0.102 C 
ATOM     12  N   UNL     1      -2.205   2.079   8.120  0.00  0.00    -0.169 NA
ATOM     13  H   UNL     1      -1.606  -0.150   6.726  0.00  0.00    +0.188 HD
ENDROOT
BRANCH   1  17
ATOM     14  N   UNL     1       0.083   0.193   2.349  0.00  0.00    -0.317 N 
ATOM     15  C   UNL     1      -1.035   0.527   3.062  0.00  0.00    +0.022 A 
ATOM     16  C   UNL     1      -0.666   1.072   4.234  0.00  0.00    +0.031 A 
ATOM     17  C   UNL     1       0.804   1.075   4.246  0.00  0.00    -0.003 A 
ATOM     18  C   UNL     1       1.194   0.507   3.044  0.00  0.00    +0.028 A 
ATOM     19  C   UNL     1       2.614   0.284   2.591  0.00  0.00    +0.064 C 
ATOM     20  C   UNL     1      -2.456   0.319   2.606  0.00  0.00    +0.064 C 
BRANCH  14  27
ATOM     21  C   UNL     1       0.092   1.898   0.071  0.00  0.00    +0.046 C 
ATOM     22  C   UNL     1       0.079   0.396  -0.059  0.00  0.00    -0.027 A 
ATOM     23  C   UNL     1       0.076  -0.189  -1.310  0.00  0.00    +0.007 A 
ATOM     24  C   UNL     1       0.064  -1.566  -1.430  0.00  0.00    +0.020 A 
ATOM     25  C   UNL     1       0.053  -2.363  -0.298  0.00  0.00    +0.043 A 
ATOM     26  C   UNL     1       0.055  -1.782   0.956  0.00  0.00    +0.046 A 
ATOM     27  C   UNL     1       0.074  -0.399   1.079  0.00  0.00    +0.051 A 
ATOM     28 CL   UNL     1       0.036  -4.091  -0.454  0.00  0.00    -0.083 Cl
ENDBRANCH  14  27
ENDBRANCH   1  17
BRANCH  11  29
ATOM     29  C   UNL     1      -4.154   2.985   9.467  0.00  0.00    +0.040 C 
ATOM     30  C   UNL     1      -4.723   4.229   8.782  0.00  0.00    +0.014 C 
ATOM     31  C   UNL     1      -4.953   1.754   9.034  0.00  0.00    +0.014 C 
ENDBRANCH  11  29
TORSDOF 3
