REMARK  Name = ZINC39982683
REMARK  5 active torsions:
REMARK  status: ('A' for Active; 'I' for Inactive)
REMARK    1  A    between atoms: C_1  and  C_2
REMARK    2  A    between atoms: C_2  and  C_4
REMARK    3  A    between atoms: C_2  and  S_17
REMARK    4  A    between atoms: S_17  and  C_18
REMARK    5  A    between atoms: C_22  and  C_24
REMARK                            x       y       z     vdW  Elec       q    Type
REMARK                         _______ _______ _______ _____ _____    ______ ____
ROOT
ATOM      1  S   UNL     1       0.851  -0.589  -1.490  0.00  0.00    -0.084 S 
ENDROOT
BRANCH   1   2
ATOM      2  C   UNL     1      -0.220  -0.041  -2.848  0.00  0.00    +0.340 C 
ATOM      3  N   UNL     1      -1.573  -0.602  -2.694  0.00  0.00    -0.219 N 
ATOM      4  N   UNL     1      -2.426   0.504  -2.564  0.00  0.00    -0.145 NA
ATOM      5  C   UNL     1      -1.736   1.613  -2.624  0.00  0.00    +0.238 C 
ATOM      6  O   UNL     1      -0.409   1.380  -2.794  0.00  0.00    -0.443 OA
ATOM      7  H   UNL     1      -1.822  -1.539  -2.684  0.00  0.00    +0.173 HD
BRANCH   5   8
ATOM      8  C   UNL     1      -2.300   2.892  -2.525  0.00  0.00    +0.043 C 
ATOM      9  C   UNL     1      -3.648   3.209  -2.346  0.00  0.00    +0.008 A 
ATOM     10  C   UNL     1      -4.805   2.412  -2.214  0.00  0.00    +0.010 A 
ATOM     11  C   UNL     1      -6.015   3.005  -2.047  0.00  0.00    +0.001 A 
ATOM     12  C   UNL     1      -6.149   4.394  -2.001  0.00  0.00    +0.002 A 
ATOM     13  C   UNL     1      -5.081   5.220  -2.120  0.00  0.00    +0.026 A 
ATOM     14  C   UNL     1      -3.783   4.674  -2.298  0.00  0.00    +0.043 A 
ATOM     15  N   UNL     1      -2.606   5.251  -2.437  0.00  0.00    -0.380 N 
ATOM     16  C   UNL     1      -1.575   4.218  -2.585  0.00  0.00    +0.154 C 
ATOM     17  H   UNL     1      -2.446   6.207  -2.438  0.00  0.00    +0.160 HD
ENDBRANCH   5   8
ENDBRANCH   1   2
BRANCH   1  19
ATOM     18  C   UNL     1      -0.019   1.526   0.010  0.00  0.00    +0.029 C 
ATOM     19  C   UNL     1       0.002  -0.004   0.002  0.00  0.00    +0.135 C 
BRANCH  19  20
ATOM     20  C   UNL     1       0.731  -0.503   1.223  0.00  0.00    +0.233 C 
ATOM     21  O   UNL     1       1.911  -0.775   1.156  0.00  0.00    -0.274 OA
ATOM     22  N   UNL     1       0.071  -0.647   2.389  0.00  0.00    -0.260 N 
ATOM     23  C   UNL     1      -1.361  -0.330   2.496  0.00  0.00    +0.209 C 
ATOM     24  C   UNL     1      -1.607   0.403   3.789  0.00  0.00    +0.235 C 
ATOM     25  O   UNL     1      -2.522   1.196   3.864  0.00  0.00    -0.274 OA
ATOM     26  N   UNL     1      -0.823   0.190   4.863  0.00  0.00    -0.283 N 
ATOM     27  C   UNL     1       0.269  -0.681   4.790  0.00  0.00    +0.055 A 
ATOM     28  C   UNL     1       0.728  -1.111   3.540  0.00  0.00    +0.058 A 
ATOM     29  C   UNL     1       1.808  -1.970   3.450  0.00  0.00    +0.025 A 
ATOM     30  C   UNL     1       2.431  -2.413   4.603  0.00  0.00    +0.002 A 
ATOM     31  C   UNL     1       1.978  -1.998   5.841  0.00  0.00    +0.002 A 
ATOM     32  C   UNL     1       0.899  -1.126   5.941  0.00  0.00    +0.025 A 
ATOM     33  H   UNL     1      -1.018   0.645   5.697  0.00  0.00    +0.155 HD
ENDBRANCH  19  20
ENDBRANCH   1  19
TORSDOF 4
