REMARK  Name = ZINC13039288
REMARK  10 active torsions:
REMARK  status: ('A' for Active; 'I' for Inactive)
REMARK    1  A    between atoms: C_1  and  C_2
REMARK    2  A    between atoms: C_2  and  C_3
REMARK    3  A    between atoms: C_2  and  C_4
REMARK    4  A    between atoms: C_2  and  C_5
REMARK    5  A    between atoms: C_8  and  C_11
REMARK    6  A    between atoms: C_14  and  S_17
REMARK    7  A    between atoms: N_15  and  N_16
REMARK    8  A    between atoms: S_17  and  C_18
REMARK    9  A    between atoms: C_18  and  C_19
REMARK   10  A    between atoms: N_21  and  N_22
REMARK                            x       y       z     vdW  Elec       q    Type
REMARK                         _______ _______ _______ _____ _____    ______ ____
ROOT
ATOM      1  S   UNL     1      -0.928   1.196  -1.285  0.00  0.00    -0.075 S 
ENDROOT
BRANCH   1   5
ATOM      2  C   UNL     1       0.971   0.648  -4.656  0.00  0.00    +0.182 A 
ATOM      3  N   UNL     1       1.706  -0.022  -3.799  0.00  0.00    -0.127 NA
ATOM      4  N   UNL     1       1.200   0.071  -2.621  0.00  0.00    -0.121 NA
ATOM      5  C   UNL     1       0.106   0.799  -2.655  0.00  0.00    +0.209 A 
ATOM      6  N   UNL     1      -0.076   1.194  -3.950  0.00  0.00    -0.224 N 
BRANCH   2  10
ATOM      7  C   UNL     1       1.691   1.054  -8.822  0.00  0.00    -0.042 A 
ATOM      8  C   UNL     1       0.825   1.925  -8.185  0.00  0.00    +0.005 A 
ATOM      9  C   UNL     1       0.587   1.798  -6.832  0.00  0.00    +0.012 A 
ATOM     10  C   UNL     1       1.222   0.789  -6.106  0.00  0.00    +0.021 A 
ATOM     11  C   UNL     1       2.099  -0.082  -6.754  0.00  0.00    +0.012 A 
ATOM     12  C   UNL     1       2.324   0.053  -8.108  0.00  0.00    +0.005 A 
BRANCH   7  14
ATOM     13  C   UNL     1       2.534   2.582 -10.584  0.00  0.00    +0.015 C 
ATOM     14  C   UNL     1       1.946   1.199 -10.300  0.00  0.00    -0.013 C 
ATOM     15  C   UNL     1       2.934   0.122 -10.755  0.00  0.00    +0.015 C 
ATOM     16  C   UNL     1       0.630   1.038 -11.063  0.00  0.00    +0.015 C 
ENDBRANCH   7  14
ENDBRANCH   2  10
BRANCH   6  17
ATOM     17  N   UNL     1      -1.087   1.970  -4.441  0.00  0.00    -0.295 N 
ATOM     18  H   UNL     1      -0.807   2.938  -4.493  0.00  0.00    +0.163 HD
ATOM     19  H   UNL     1      -1.396   1.634  -5.341  0.00  0.00    +0.163 HD
ENDBRANCH   6  17
ENDBRANCH   1   5
BRANCH   1  20
ATOM     20  C   UNL     1      -0.046   0.330   0.036  0.00  0.00    +0.174 C 
BRANCH  20  21
ATOM     21  C   UNL     1      -0.770   0.535   1.342  0.00  0.00    +0.240 C 
ATOM     22  O   UNL     1      -1.783   1.201   1.375  0.00  0.00    -0.273 OA
ATOM     23  N   UNL     1      -0.292  -0.023   2.472  0.00  0.00    -0.223 N 
ATOM     24  H   UNL     1       0.518  -0.556   2.446  0.00  0.00    +0.174 HD
BRANCH  23  25
ATOM     25  N   UNL     1      -0.966   0.168   3.686  0.00  0.00    -0.137 N 
ATOM     26  C   UNL     1      -1.720  -0.773   4.291  0.00  0.00    +0.263 C 
ATOM     27  O   UNL     1      -1.935  -1.902   3.903  0.00  0.00    -0.271 OA
ATOM     28  C   UNL     1      -2.238  -0.125   5.554  0.00  0.00    +0.114 C 
ATOM     29  C   UNL     1      -1.743  -0.881   6.782  0.00  0.00    +0.035 C 
ATOM     30  C   UNL     1      -2.255  -0.193   8.049  0.00  0.00    +0.003 C 
ATOM     31  C   UNL     1      -3.785  -0.165   8.030  0.00  0.00    +0.000 C 
ATOM     32  C   UNL     1      -4.266   0.618   6.807  0.00  0.00    +0.003 C 
ATOM     33  C   UNL     1      -3.762  -0.066   5.534  0.00  0.00    +0.035 C 
ATOM     34  N   UNL     1      -1.670   1.229   5.519  0.00  0.00    -0.284 N 
ATOM     35  C   UNL     1      -0.936   1.305   4.392  0.00  0.00    +0.326 C 
ATOM     36  O   UNL     1      -0.319   2.295   4.053  0.00  0.00    -0.251 OA
ATOM     37  H   UNL     1      -1.796   1.929   6.179  0.00  0.00    +0.151 HD
ENDBRANCH  23  25
ENDBRANCH  20  21
ENDBRANCH   1  20
TORSDOF 7
