REMARK  Name = ZINC21327792
REMARK  8 active torsions:
REMARK  status: ('A' for Active; 'I' for Inactive)
REMARK    1  A    between atoms: C_6  and  C_7
REMARK    2  A    between atoms: C_7  and  S_8
REMARK    3  A    between atoms: S_8  and  C_9
REMARK    4  A    between atoms: C_15  and  C_17
REMARK    5  A    between atoms: C_17  and  S_18
REMARK    6  A    between atoms: S_18  and  C_19
REMARK    7  A    between atoms: N_23  and  N_24
REMARK    8  A    between atoms: N_25  and  N_26
REMARK                            x       y       z     vdW  Elec       q    Type
REMARK                         _______ _______ _______ _____ _____    ______ ____
ROOT
ATOM      1  C   UNL     1     -10.137   2.042   3.204  0.00  0.00    +0.160 A 
ATOM      2  N   UNL     1      -8.920   1.673   3.575  0.00  0.00    -0.133 NA
ATOM      3  N   UNL     1      -7.937   1.727   2.786  0.00  0.00    -0.125 NA
ATOM      4  C   UNL     1      -8.060   2.153   1.540  0.00  0.00    +0.189 A 
ATOM      5  S   UNL     1      -9.811   2.527   1.511  0.00  0.00    -0.024 S 
ATOM      6  N   UNL     1      -7.101   2.280   0.538  0.00  0.00    -0.263 N 
ATOM      7  C   UNL     1      -5.821   1.939   0.784  0.00  0.00    +0.229 C 
ATOM      8  O   UNL     1      -5.503   1.522   1.878  0.00  0.00    -0.275 OA
ATOM      9  H   UNL     1      -7.389   2.658  -0.454  0.00  0.00    +0.157 HD
ENDROOT
BRANCH   1  10
ATOM     10  S   UNL     1     -11.644   2.056   4.116  0.00  0.00    -0.092 S 
BRANCH  10  11
ATOM     11  C   UNL     1     -11.172   1.434   5.753  0.00  0.00    +0.111 C 
BRANCH  11  17
ATOM     12  C   UNL     1     -12.710   2.495   7.418  0.00  0.00    +0.006 A 
ATOM     13  C   UNL     1     -13.827   2.462   8.232  0.00  0.00    +0.020 A 
ATOM     14  C   UNL     1     -14.613   1.325   8.282  0.00  0.00    +0.041 A 
ATOM     15  C   UNL     1     -14.285   0.223   7.513  0.00  0.00    +0.020 A 
ATOM     16  C   UNL     1     -13.171   0.259   6.695  0.00  0.00    +0.006 A 
ATOM     17  C   UNL     1     -12.386   1.395   6.645  0.00  0.00    -0.037 A 
ATOM     18 CL   UNL     1     -16.012   1.281   9.310  0.00  0.00    -0.084 Cl
ENDBRANCH  11  17
ENDBRANCH  10  11
ENDBRANCH   1  10
BRANCH   7  19
ATOM     19  C   UNL     1      -4.783   2.076  -0.300  0.00  0.00    +0.173 C 
BRANCH  19  20
ATOM     20  S   UNL     1      -3.170   1.543   0.336  0.00  0.00    -0.075 S 
BRANCH  20  21
ATOM     21  C   UNL     1      -2.080   1.760  -1.031  0.00  0.00    +0.210 A 
ATOM     22  N   UNL     1      -2.411   2.210  -2.217  0.00  0.00    -0.119 NA
ATOM     23  N   UNL     1      -1.257   2.230  -3.011  0.00  0.00    -0.109 NA
ATOM     24  C   UNL     1      -0.257   1.797  -2.282  0.00  0.00    +0.254 A 
ATOM     25  N   UNL     1      -0.741   1.490  -1.041  0.00  0.00    -0.211 N 
ATOM     26  N   UNL     1       1.061   1.669  -2.699  0.00  0.00    -0.204 N 
ATOM     27  H   UNL     1       1.824   1.290  -2.002  0.00  0.00    +0.177 HD
BRANCH  26  28
ATOM     28  N   UNL     1       1.420   2.022  -4.006  0.00  0.00    -0.189 NA
ATOM     29  C   UNL     1       2.636   1.903  -4.390  0.00  0.00    +0.037 C 
ATOM     30  C   UNL     1       3.797   1.407  -3.555  0.00  0.00    +0.052 C 
ATOM     31  C   UNL     1       5.048   1.453  -4.455  0.00  0.00    +0.006 C 
ATOM     32  C   UNL     1       4.688   2.511  -5.529  0.00  0.00    +0.006 C 
ATOM     33  C   UNL     1       3.181   2.241  -5.767  0.00  0.00    +0.052 C 
ENDBRANCH  26  28
BRANCH  25  34
ATOM     34  N   UNL     1      -0.012   1.005   0.008  0.00  0.00    -0.294 N 
ATOM     35  H   UNL     1       1.067   0.823  -0.110  0.00  0.00    +0.163 HD
ATOM     36  H   UNL     1      -0.503   0.796   0.969  0.00  0.00    +0.163 HD
ENDBRANCH  25  34
ENDBRANCH  20  21
ENDBRANCH  19  20
ENDBRANCH   7  19
TORSDOF 8
