REMARK  Name = ZINC24137503
REMARK  5 active torsions:
REMARK  status: ('A' for Active; 'I' for Inactive)
REMARK    1  A    between atoms: C_3  and  C_9
REMARK    2  A    between atoms: C_12  and  S_15
REMARK    3  A    between atoms: N_13  and  N_14
REMARK    4  A    between atoms: S_15  and  C_16
REMARK    5  A    between atoms: C_16  and  C_17
REMARK                            x       y       z     vdW  Elec       q    Type
REMARK                         _______ _______ _______ _____ _____    ______ ____
ROOT
ATOM      1  C   UNL     1       0.525  -7.114   2.070  0.00  0.00    +0.183 A 
ATOM      2  N   UNL     1      -0.745  -6.807   1.942  0.00  0.00    -0.127 NA
ATOM      3  N   UNL     1      -0.881  -5.534   1.833  0.00  0.00    -0.121 NA
ATOM      4  C   UNL     1       0.296  -4.950   1.875  0.00  0.00    +0.209 A 
ATOM      5  N   UNL     1       1.231  -5.933   2.030  0.00  0.00    -0.224 N 
ENDROOT
BRANCH   1   8
ATOM      6  C   UNL     1       2.568  -9.991   3.353  0.00  0.00    +0.021 A 
ATOM      7  C   UNL     1       2.048  -8.722   3.209  0.00  0.00    +0.014 A 
ATOM      8  C   UNL     1       1.090  -8.470   2.226  0.00  0.00    +0.039 A 
ATOM      9  C   UNL     1       0.671  -9.506   1.386  0.00  0.00    +0.053 A 
ATOM     10  C   UNL     1       1.204 -10.770   1.537  0.00  0.00    +0.040 A 
ATOM     11  C   UNL     1       2.150 -11.013   2.518  0.00  0.00    +0.042 A 
ATOM     12 CL   UNL     1       2.815 -12.606   2.702  0.00  0.00    -0.083 Cl
ATOM     13 CL   UNL     1      -0.515  -9.202   0.156  0.00  0.00    -0.083 Cl
ENDBRANCH   1   8
BRANCH   5  14
ATOM     14  N   UNL     1       2.584  -5.778   2.127  0.00  0.00    -0.295 N 
ATOM     15  H   UNL     1       3.027  -4.772   2.080  0.00  0.00    +0.163 HD
ATOM     16  H   UNL     1       3.232  -6.658   2.251  0.00  0.00    +0.163 HD
ENDBRANCH   5  14
BRANCH   4  17
ATOM     17  S   UNL     1       0.608  -3.220   1.760  0.00  0.00    -0.075 S 
BRANCH  17  18
ATOM     18  C   UNL     1      -1.085  -2.606   1.573  0.00  0.00    +0.173 C 
BRANCH  18  19
ATOM     19  C   UNL     1      -1.064  -1.104   1.452  0.00  0.00    +0.226 C 
ATOM     20  O   UNL     1      -0.009  -0.507   1.489  0.00  0.00    -0.275 OA
ATOM     21  N   UNL     1      -2.218  -0.424   1.304  0.00  0.00    -0.297 N 
ATOM     22  C   UNL     1      -3.513  -1.118   1.366  0.00  0.00    +0.108 C 
ATOM     23  C   UNL     1      -4.318  -0.778   0.108  0.00  0.00    +0.019 C 
ATOM     24  C   UNL     1      -4.421   0.742  -0.038  0.00  0.00    +0.007 C 
ATOM     25  C   UNL     1      -3.013   1.331  -0.192  0.00  0.00    +0.010 C 
ATOM     26  C   UNL     1      -2.212   1.025   1.075  0.00  0.00    +0.079 C 
ATOM     27  C   UNL     1      -0.777   1.528   0.931  0.00  0.00    +0.023 C 
ATOM     28  C   UNL     1      -0.114   0.867  -0.279  0.00  0.00    +0.002 C 
ATOM     29  C   UNL     1      -0.909   1.212  -1.540  0.00  0.00    +0.000 C 
ATOM     30  C   UNL     1      -2.335   0.680  -1.400  0.00  0.00    +0.005 C 
ENDBRANCH  18  19
ENDBRANCH  17  18
ENDBRANCH   4  17
TORSDOF 5
