REMARK  Name = ZINC15827716
REMARK  4 active torsions:
REMARK  status: ('A' for Active; 'I' for Inactive)
REMARK    1  A    between atoms: C_3  and  N_8
REMARK    2  A    between atoms: N_8  and  S_9
REMARK    3  A    between atoms: S_9  and  C_12
REMARK    4  A    between atoms: C_15  and  C_17
REMARK                            x       y       z     vdW  Elec       q    Type
REMARK                         _______ _______ _______ _____ _____    ______ ____
ROOT
ATOM      1  C   UNL     1      -4.532   4.456   0.070  0.00  0.00    +0.262 A 
ATOM      2  C   UNL     1      -3.863   5.626   0.069  0.00  0.00    +0.072 A 
ATOM      3  C   UNL     1      -2.489   5.316   0.060  0.00  0.00    +0.053 A 
ATOM      4  C   UNL     1      -2.394   3.959   0.046  0.00  0.00    +0.157 A 
ATOM      5  O   UNL     1      -3.641   3.451   0.056  0.00  0.00    -0.435 OA
ENDROOT
BRANCH   4   6
ATOM      6  C   UNL     1      -1.140   3.178   0.030  0.00  0.00    +0.126 A 
ATOM      7  C   UNL     1      -1.190   1.762   0.017  0.00  0.00    +0.038 A 
ATOM      8  C   UNL     1      -0.013   1.076   0.008  0.00  0.00    +0.074 A 
ATOM      9  C   UNL     1       1.188   1.821   0.001  0.00  0.00    +0.265 A 
ATOM     10  O   UNL     1       2.266   1.248  -0.013  0.00  0.00    -0.266 OA
ATOM     11  N   UNL     1       1.135   3.166   0.008  0.00  0.00    -0.243 N 
ATOM     12  H   UNL     1       1.964   3.670   0.003  0.00  0.00    +0.192 HD
ATOM     13  N   UNL     1       0.019   3.799   0.022  0.00  0.00    -0.168 NA
ENDBRANCH   4   6
BRANCH   1  14
ATOM     14  S   UNL     1      -6.285   4.275   0.086  0.00  0.00    +0.106 S 
ATOM     15  O   UNL     1      -6.555   2.991   0.633  0.00  0.00    -0.147 OA
ATOM     16  O   UNL     1      -6.811   5.469   0.649  0.00  0.00    -0.147 OA
BRANCH  14  17
ATOM     17  N   UNL     1      -6.788   4.233  -1.491  0.00  0.00    -0.213 N 
ATOM     18  H   UNL     1      -7.349   4.942  -1.840  0.00  0.00    +0.174 HD
BRANCH  17  21
ATOM     19  C   UNL     1      -6.954   1.516  -3.960  0.00  0.00    +0.003 A 
ATOM     20  C   UNL     1      -7.337   2.561  -3.142  0.00  0.00    +0.024 A 
ATOM     21  C   UNL     1      -6.403   3.175  -2.318  0.00  0.00    +0.050 A 
ATOM     22  C   UNL     1      -5.084   2.740  -2.324  0.00  0.00    +0.044 A 
ATOM     23  C   UNL     1      -4.708   1.690  -3.140  0.00  0.00    +0.043 A 
ATOM     24  C   UNL     1      -5.642   1.080  -3.959  0.00  0.00    +0.020 A 
ATOM     25 CL   UNL     1      -3.061   1.140  -3.142  0.00  0.00    -0.083 Cl
ENDBRANCH  17  21
ENDBRANCH  14  17
ENDBRANCH   1  14
TORSDOF 4
