REMARK  Name = ZINC36358122
REMARK  6 active torsions:
REMARK  status: ('A' for Active; 'I' for Inactive)
REMARK    1  A    between atoms: C_1  and  C_2
REMARK    2  A    between atoms: C_2  and  O_3
REMARK    3  A    between atoms: O_3  and  C_4
REMARK    4  A    between atoms: C_9  and  C_10
REMARK    5  A    between atoms: C_18  and  C_28
REMARK    6  A    between atoms: C_30  and  C_33
REMARK                            x       y       z     vdW  Elec       q    Type
REMARK                         _______ _______ _______ _____ _____    ______ ____
ROOT
ATOM      1  C   UNL     1       1.993  -1.399  -3.487  0.00  0.00    +0.066 C 
ATOM      2  C   UNL     1       1.337  -1.664  -4.846  0.00  0.00    +0.109 C 
ATOM      3  C   UNL     1       1.870  -2.922  -5.472  0.00  0.00    +0.219 C 
ATOM      4  O   UNL     1       1.108  -3.647  -6.076  0.00  0.00    -0.275 OA
ATOM      5  N   UNL     1       3.171  -3.271  -5.382  0.00  0.00    -0.270 N 
ATOM      6  C   UNL     1       3.989  -2.538  -4.524  0.00  0.00    +0.134 A 
ATOM      7  C   UNL     1       3.474  -1.645  -3.620  0.00  0.00    +0.023 A 
ATOM      8  C   UNL     1       4.532  -1.079  -2.924  0.00  0.00    +0.066 A 
ATOM      9  N   UNL     1       5.648  -1.608  -3.369  0.00  0.00    -0.168 NA
ATOM     10  N   UNL     1       5.330  -2.540  -4.373  0.00  0.00    -0.198 N 
ATOM     11  C   UNL     1       6.239  -3.328  -5.087  0.00  0.00    +0.178 A 
ATOM     12  C   UNL     1       7.561  -2.911  -5.233  0.00  0.00    +0.053 A 
ATOM     13  C   UNL     1       8.424  -3.727  -5.948  0.00  0.00    +0.045 A 
ATOM     14  C   UNL     1       7.917  -4.908  -6.475  0.00  0.00    +0.152 A 
ATOM     15  N   UNL     1       6.650  -5.223  -6.288  0.00  0.00    -0.136 NA
ATOM     16  N   UNL     1       5.849  -4.474  -5.622  0.00  0.00    -0.128 NA
ATOM     17 CL   UNL     1       8.951  -5.968  -7.381  0.00  0.00    -0.060 Cl
ATOM     18  C   UNL     1       4.420  -0.035  -1.843  0.00  0.00    +0.068 C 
ATOM     19  H   UNL     1       3.527  -4.010  -5.900  0.00  0.00    +0.156 HD
ENDROOT
BRANCH   1  25
ATOM     20  C   UNL     1       0.777  -1.811  -1.336  0.00  0.00    +0.125 A 
ATOM     21  C   UNL     1       0.243  -2.672  -0.388  0.00  0.00    +0.053 A 
ATOM     22  C   UNL     1       0.352  -4.034  -0.558  0.00  0.00    +0.001 A 
ATOM     23  C   UNL     1       0.985  -4.564  -1.675  0.00  0.00    +0.125 A 
ATOM     24  C   UNL     1       1.523  -3.695  -2.620  0.00  0.00    +0.053 A 
ATOM     25  C   UNL     1       1.413  -2.330  -2.454  0.00  0.00    +0.006 A 
ATOM     26  O   UNL     1       0.961  -5.926  -1.656  0.00  0.00    -0.488 OA
ATOM     27  C   UNL     1       0.703  -6.376  -0.315  0.00  0.00    +0.175 C 
ATOM     28  C   UNL     1      -0.108  -5.205   0.289  0.00  0.00    +0.083 C 
ATOM     29  C   UNL     1      -0.122  -7.664  -0.324  0.00  0.00    +0.052 C 
BRANCH  20  30
ATOM     30  O   UNL     1       0.671  -0.465  -1.174  0.00  0.00    -0.492 OA
BRANCH  30  32
ATOM     31  C   UNL     1      -0.019   1.526   0.010  0.00  0.00    +0.048 C 
ATOM     32  C   UNL     1       0.002  -0.004   0.002  0.00  0.00    +0.225 C 
ENDBRANCH  30  32
ENDBRANCH  20  30
ENDBRANCH   1  25
TORSDOF 3
