REMARK  Name = ZINC05121336
REMARK  2 active torsions:
REMARK  status: ('A' for Active; 'I' for Inactive)
REMARK    1  A    between atoms: N_10  and  S_11
REMARK    2  A    between atoms: S_11  and  C_14
REMARK                            x       y       z     vdW  Elec       q    Type
REMARK                         _______ _______ _______ _____ _____    ______ ____
ROOT
ATOM      1  S   UNL     1      -2.733   0.848   0.019  0.00  0.00    +0.076 S 
ATOM      2  O   UNL     1      -1.869  -0.230   0.350  0.00  0.00    -0.150 OA
ATOM      3  O   UNL     1      -2.262   2.043  -0.589  0.00  0.00    -0.150 OA
ENDROOT
BRANCH   1  13
ATOM      4  C   UNL     1      -6.165   4.488   1.409  0.00  0.00    +0.000 A 
ATOM      5  C   UNL     1      -5.328   4.279   0.328  0.00  0.00    +0.002 A 
ATOM      6  C   UNL     1      -4.442   3.221   0.338  0.00  0.00    +0.025 A 
ATOM      7  C   UNL     1      -4.391   2.366   1.434  0.00  0.00    +0.054 A 
ATOM      8  C   UNL     1      -5.229   2.577   2.518  0.00  0.00    -0.025 A 
ATOM      9  C   UNL     1      -6.116   3.641   2.499  0.00  0.00    +0.005 A 
ATOM     10  C   UNL     1      -5.198   1.676   3.724  0.00  0.00    +0.038 C 
ATOM     11  C   UNL     1      -4.568   0.329   3.369  0.00  0.00    +0.025 C 
ATOM     12  C   UNL     1      -3.226   0.576   2.675  0.00  0.00    +0.132 C 
ATOM     13  N   UNL     1      -3.488   1.297   1.423  0.00  0.00    -0.203 N 
ENDBRANCH   1  13
BRANCH   1  14
ATOM     14  C   UNL     1      -3.969   0.193  -1.052  0.00  0.00    +0.127 A 
ATOM     15  C   UNL     1      -4.286   0.850  -2.226  0.00  0.00    +0.031 A 
ATOM     16  C   UNL     1      -5.251   0.333  -3.069  0.00  0.00    +0.017 A 
ATOM     17  C   UNL     1      -5.905  -0.840  -2.735  0.00  0.00    +0.019 A 
ATOM     18  C   UNL     1      -5.593  -1.494  -1.558  0.00  0.00    +0.037 A 
ATOM     19  C   UNL     1      -4.627  -0.977  -0.714  0.00  0.00    +0.069 A 
ATOM     20 CL   UNL     1      -4.234  -1.798   0.764  0.00  0.00    -0.081 Cl
ATOM     21 BR   UNL     1      -7.227  -1.546  -3.889  0.00  0.00    -0.050 Br
ENDBRANCH   1  14
TORSDOF 2
