REMARK  Name = ZINC21258842
REMARK  11 active torsions:
REMARK  status: ('A' for Active; 'I' for Inactive)
REMARK    1  A    between atoms: C_1  and  C_2
REMARK    2  A    between atoms: C_2  and  C_3
REMARK    3  A    between atoms: C_2  and  C_4
REMARK    4  A    between atoms: C_4  and  O_5
REMARK    5  A    between atoms: O_5  and  C_6
REMARK    6  A    between atoms: C_9  and  C_12
REMARK    7  A    between atoms: C_17  and  C_23
REMARK    8  A    between atoms: C_25  and  O_32
REMARK    9  A    between atoms: C_26  and  O_30
REMARK   10  A    between atoms: O_30  and  C_31
REMARK   11  A    between atoms: O_32  and  C_33
REMARK                            x       y       z     vdW  Elec       q    Type
REMARK                         _______ _______ _______ _____ _____    ______ ____
ROOT
ATOM      1  C   UNL     1       1.527   0.036   6.140  0.00  0.00    +0.032 C 
ATOM      2  C   UNL     1       2.958   0.568   6.249  0.00  0.00    +0.059 C 
ATOM      3  C   UNL     1       3.566   0.121   7.554  0.00  0.00    +0.018 C 
ATOM      4  C   UNL     1       3.200  -1.046   8.125  0.00  0.00    +0.020 C 
ATOM      5  C   UNL     1       3.826  -1.475   9.430  0.00  0.00    +0.063 C 
ATOM      6  C   UNL     1       5.286  -1.018   9.468  0.00  0.00    +0.109 C 
ATOM      7  C   UNL     1       5.359   0.432   9.066  0.00  0.00    +0.218 C 
ATOM      8  O   UNL     1       6.193   1.157   9.566  0.00  0.00    -0.275 OA
ATOM      9  N   UNL     1       4.502   0.924   8.155  0.00  0.00    -0.289 N 
ATOM     10  C   UNL     1       2.237  -1.880   7.532  0.00  0.00    +0.162 C 
ATOM     11  O   UNL     1       1.944  -2.930   8.068  0.00  0.00    -0.292 OA
ATOM     12  C   UNL     1       1.564  -1.492   6.242  0.00  0.00    +0.088 C 
ATOM     13  H   UNL     1       4.561   1.991   7.892  0.00  0.00    +0.155 HD
ENDROOT
BRANCH   5  14
ATOM     14  C   UNL     1       3.075  -0.851  10.578  0.00  0.00    -0.035 A 
ATOM     15  C   UNL     1       2.469  -1.657  11.525  0.00  0.00    +0.053 A 
ATOM     16  C   UNL     1       1.777  -1.085  12.581  0.00  0.00    +0.163 A 
ATOM     17  C   UNL     1       1.694   0.300  12.685  0.00  0.00    +0.175 A 
ATOM     18  C   UNL     1       2.304   1.102  11.733  0.00  0.00    +0.063 A 
ATOM     19  C   UNL     1       2.997   0.524  10.684  0.00  0.00    +0.023 A 
ATOM     20 BR   UNL     1       2.194   2.985  11.872  0.00  0.00    -0.046 Br
BRANCH  17  21
ATOM     21  O   UNL     1       1.016   0.866  13.720  0.00  0.00    -0.490 OA
ATOM     22  C   UNL     1       1.760   1.147  14.907  0.00  0.00    +0.277 C 
ENDBRANCH  17  21
BRANCH  16  23
ATOM     23  O   UNL     1       1.181  -1.876  13.512  0.00  0.00    -0.491 OA
ATOM     24  C   UNL     1       1.307  -3.289  13.340  0.00  0.00    +0.277 C 
ENDBRANCH  16  23
ENDBRANCH   5  14
BRANCH   1  28
ATOM     25  C   UNL     1      -0.149   1.182   2.380  0.00  0.00    +0.121 A 
ATOM     26  C   UNL     1       0.991   0.392   2.421  0.00  0.00    +0.046 A 
ATOM     27  C   UNL     1       1.534   0.028   3.638  0.00  0.00    +0.007 A 
ATOM     28  C   UNL     1       0.936   0.440   4.814  0.00  0.00    -0.043 A 
ATOM     29  C   UNL     1      -0.203   1.223   4.776  0.00  0.00    +0.007 A 
ATOM     30  C   UNL     1      -0.747   1.595   3.561  0.00  0.00    +0.046 A 
BRANCH  25  31
ATOM     31  O   UNL     1      -0.682   1.547   1.184  0.00  0.00    -0.492 OA
BRANCH  31  32
ATOM     32  C   UNL     1      -0.013   1.086   0.008  0.00  0.00    +0.232 C 
BRANCH  32  34
ATOM     33  C   UNL     1      -0.666   3.119  -1.289  0.00  0.00    +0.010 C 
ATOM     34  C   UNL     1      -0.753   1.593  -1.232  0.00  0.00    +0.020 C 
ATOM     35  C   UNL     1      -0.111   0.998  -2.487  0.00  0.00    +0.010 C 
ENDBRANCH  32  34
ENDBRANCH  31  32
ENDBRANCH  25  31
ENDBRANCH   1  28
TORSDOF 7
