REMARK  Name = ZINC35744329
REMARK  12 active torsions:
REMARK  status: ('A' for Active; 'I' for Inactive)
REMARK    1  A    between atoms: C_1  and  C_2
REMARK    2  A    between atoms: C_5  and  S_8
REMARK    3  A    between atoms: S_8  and  N_11
REMARK    4  A    between atoms: C_14  and  C_17
REMARK    5  A    between atoms: C_17  and  C_19
REMARK    6  A    between atoms: C_17  and  N_27
REMARK    7  A    between atoms: N_21  and  C_22
REMARK    8  A    between atoms: C_22  and  C_23
REMARK    9  A    between atoms: C_23  and  N_24
REMARK   10  A    between atoms: N_24  and  C_25
REMARK   11  A    between atoms: N_24  and  C_26
REMARK   12  A    between atoms: C_28  and  C_30
REMARK                            x       y       z     vdW  Elec       q    Type
REMARK                         _______ _______ _______ _____ _____    ______ ____
ROOT
ATOM      1  C   UNL     1       5.763  -3.903  -0.040  0.00  0.00    +0.162 C 
ENDROOT
BRANCH   1   5
ATOM      2  N   UNL     1       1.651  -4.999  -0.034  0.00  0.00    -0.177 NA
ATOM      3  C   UNL     1       2.364  -5.199  -1.304  0.00  0.00    +0.110 C 
ATOM      4  C   UNL     1       3.645  -4.360  -1.286  0.00  0.00    +0.023 C 
ATOM      5  C   UNL     1       4.465  -4.714  -0.043  0.00  0.00    +0.021 C 
ATOM      6  C   UNL     1       3.656  -4.385   1.214  0.00  0.00    +0.023 C 
ATOM      7  C   UNL     1       2.376  -5.218   1.225  0.00  0.00    +0.110 C 
BRANCH   2   8
ATOM      8  S   UNL     1       0.063  -4.530  -0.023  0.00  0.00    +0.061 S 
ATOM      9  O   UNL     1      -0.476  -4.950   1.223  0.00  0.00    -0.153 OA
ATOM     10  O   UNL     1      -0.490  -4.937  -1.267  0.00  0.00    -0.153 OA
BRANCH   8  15
ATOM     11  C   UNL     1      -0.018   1.503   0.010  0.00  0.00    +0.044 C 
ATOM     12  C   UNL     1       0.002  -0.004   0.002  0.00  0.00    -0.050 A 
ATOM     13  C   UNL     1       0.006  -0.689  -1.199  0.00  0.00    +0.005 A 
ATOM     14  C   UNL     1       0.025  -2.071  -1.206  0.00  0.00    +0.029 A 
ATOM     15  C   UNL     1       0.040  -2.768  -0.013  0.00  0.00    +0.105 A 
ATOM     16  C   UNL     1       0.037  -2.084   1.188  0.00  0.00    +0.029 A 
ATOM     17  C   UNL     1       0.023  -0.702   1.195  0.00  0.00    +0.005 A 
ENDBRANCH   8  15
ENDBRANCH   2   8
ENDBRANCH   1   5
BRANCH   1  18
ATOM     18  C   UNL     1       6.625  -4.340   1.116  0.00  0.00    +0.234 C 
ATOM     19  O   UNL     1       6.945  -3.539   1.969  0.00  0.00    -0.274 OA
ATOM     20  N   UNL     1       7.040  -5.619   1.202  0.00  0.00    -0.316 N 
ATOM     21  H   UNL     1       6.784  -6.259   0.520  0.00  0.00    +0.149 HD
BRANCH  20  22
ATOM     22  C   UNL     1       7.878  -6.043   2.326  0.00  0.00    +0.085 C 
BRANCH  22  23
ATOM     23  C   UNL     1       8.206  -7.530   2.185  0.00  0.00    -0.061 C 
BRANCH  23  24
ATOM     24  N   UNL     1       9.047  -7.956   3.312  0.00  0.00    +0.377 N 
ATOM     25  C   UNL     1       8.283  -7.843   4.562  0.00  0.00    -0.097 C 
ATOM     26  C   UNL     1       9.461  -9.351   3.115  0.00  0.00    -0.097 C 
ATOM     27  H   UNL     1       9.864  -7.366   3.363  0.00  0.00    -0.083 HD
ENDBRANCH  23  24
ENDBRANCH  22  23
ENDBRANCH  20  22
ENDBRANCH   1  18
BRANCH   1  28
ATOM     28  N   UNL     1       5.448  -2.479   0.095  0.00  0.00    -0.300 N 
ATOM     29  C   UNL     1       6.311  -1.552  -0.366  0.00  0.00    +0.245 C 
ATOM     30  O   UNL     1       7.350  -1.897  -0.895  0.00  0.00    -0.270 OA
ATOM     31  H   UNL     1       4.619  -2.203   0.516  0.00  0.00    +0.150 HD
BRANCH  29  32
ATOM     32  C   UNL     1       5.994  -0.115  -0.230  0.00  0.00    +0.037 A 
ATOM     33  C   UNL     1       4.804   0.285   0.382  0.00  0.00    +0.016 A 
ATOM     34  C   UNL     1       4.513   1.626   0.506  0.00  0.00    +0.039 A 
ATOM     35  C   UNL     1       5.399   2.578   0.025  0.00  0.00    +0.123 A 
ATOM     36  C   UNL     1       6.582   2.186  -0.583  0.00  0.00    +0.039 A 
ATOM     37  C   UNL     1       6.886   0.848  -0.707  0.00  0.00    +0.016 A 
ATOM     38  F   UNL     1       5.109   3.892   0.149  0.00  0.00    -0.205 F 
ENDBRANCH  29  32
ENDBRANCH   1  28
TORSDOF 9
