REMARK  Name = ZINC08445102
REMARK  12 active torsions:
REMARK  status: ('A' for Active; 'I' for Inactive)
REMARK    1  A    between atoms: C_1  and  C_2
REMARK    2  A    between atoms: C_2  and  C_3
REMARK    3  A    between atoms: C_3  and  C_4
REMARK    4  A    between atoms: C_4  and  C_5
REMARK    5  A    between atoms: C_5  and  C_6
REMARK    6  A    between atoms: C_18  and  C_20
REMARK    7  A    between atoms: C_29  and  C_32
REMARK    8  A    between atoms: C_35  and  N_38
REMARK    9  A    between atoms: N_38  and  C_39
REMARK   10  A    between atoms: N_38  and  C_41
REMARK   11  A    between atoms: C_39  and  C_40
REMARK   12  A    between atoms: C_41  and  C_42
REMARK                            x       y       z     vdW  Elec       q    Type
REMARK                         _______ _______ _______ _____ _____    ______ ____
ROOT
ATOM      1  C   UNL     1       5.758   0.587  -0.074  0.00  0.00    +0.221 C 
ATOM      2  O   UNL     1       5.764   1.033  -1.202  0.00  0.00    -0.275 OA
ATOM      3  N   UNL     1       4.815   0.985   0.803  0.00  0.00    -0.258 N 
ATOM      4  C   UNL     1       4.819   0.464   2.098  0.00  0.00    +0.058 A 
ATOM      5  C   UNL     1       5.856   0.723   2.980  0.00  0.00    +0.025 A 
ATOM      6  C   UNL     1       5.794   0.223   4.269  0.00  0.00    +0.002 A 
ATOM      7  C   UNL     1       4.705  -0.527   4.678  0.00  0.00    +0.002 A 
ATOM      8  C   UNL     1       3.676  -0.802   3.794  0.00  0.00    +0.025 A 
ATOM      9  C   UNL     1       3.747  -0.320   2.498  0.00  0.00    +0.053 A 
ATOM     10  N   UNL     1       2.804  -0.648   1.533  0.00  0.00    -0.316 N 
ATOM     11  C   UNL     1       1.996   0.244   0.905  0.00  0.00    +0.017 C 
ATOM     12  C   UNL     1       2.402   1.408   0.372  0.00  0.00    +0.037 C 
ATOM     13  C   UNL     1       3.814   1.944   0.387  0.00  0.00    +0.147 C 
ATOM     14  C   UNL     1       1.478   2.251  -0.288  0.00  0.00    +0.163 C 
ATOM     15  O   UNL     1       1.871   3.308  -0.744  0.00  0.00    -0.292 OA
ATOM     16  C   UNL     1       0.032   1.889  -0.448  0.00  0.00    +0.088 C 
ATOM     17  C   UNL     1      -0.092   0.361  -0.454  0.00  0.00    +0.032 C 
ATOM     18  C   UNL     1       0.532  -0.162   0.838  0.00  0.00    +0.059 C 
ATOM     19  H   UNL     1       2.716  -1.583   1.289  0.00  0.00    +0.152 HD
ENDROOT
BRANCH  13  20
ATOM     20  C   UNL     1       3.867   3.126   1.321  0.00  0.00    -0.022 A 
ATOM     21  C   UNL     1       3.612   2.954   2.669  0.00  0.00    +0.006 A 
ATOM     22  C   UNL     1       3.665   4.037   3.526  0.00  0.00    +0.000 A 
ATOM     23  C   UNL     1       3.963   5.294   3.034  0.00  0.00    +0.000 A 
ATOM     24  C   UNL     1       4.213   5.467   1.686  0.00  0.00    +0.000 A 
ATOM     25  C   UNL     1       4.165   4.383   0.829  0.00  0.00    +0.006 A 
ENDBRANCH  13  20
BRANCH  17  26
ATOM     26  C   UNL     1      -1.546  -0.033  -0.516  0.00  0.00    -0.043 A 
ATOM     27  C   UNL     1      -2.410   0.360   0.489  0.00  0.00    +0.006 A 
ATOM     28  C   UNL     1      -3.744   0.005   0.432  0.00  0.00    +0.023 A 
ATOM     29  C   UNL     1      -4.214  -0.756  -0.630  0.00  0.00    +0.030 A 
ATOM     30  C   UNL     1      -3.342  -1.154  -1.635  0.00  0.00    +0.023 A 
ATOM     31  C   UNL     1      -2.010  -0.791  -1.575  0.00  0.00    +0.006 A 
BRANCH  29  32
ATOM     32  N   UNL     1      -5.561  -1.122  -0.687  0.00  0.00    -0.330 N 
BRANCH  32  33
ATOM     33  C   UNL     1      -6.480  -0.702   0.374  0.00  0.00    +0.102 C 
ATOM     34  C   UNL     1      -7.096   0.651   0.009  0.00  0.00    +0.024 C 
ENDBRANCH  32  33
BRANCH  32  35
ATOM     35  C   UNL     1      -6.055  -1.925  -1.808  0.00  0.00    +0.102 C 
ATOM     36  C   UNL     1      -5.931  -3.411  -1.465  0.00  0.00    +0.024 C 
ENDBRANCH  32  35
ENDBRANCH  29  32
ENDBRANCH  17  26
BRANCH   1  37
ATOM     37  C   UNL     1       6.806  -0.411   0.347  0.00  0.00    +0.096 C 
BRANCH  37  38
ATOM     38  C   UNL     1       7.747  -0.688  -0.827  0.00  0.00    +0.009 C 
BRANCH  38  39
ATOM     39  C   UNL     1       8.810  -1.702  -0.400  0.00  0.00    +0.000 C 
BRANCH  39  41
ATOM     40  C   UNL     1      10.815  -2.993  -1.147  0.00  0.00    +0.004 C 
ATOM     41  C   UNL     1       9.751  -1.979  -1.574  0.00  0.00    -0.003 C 
ENDBRANCH  39  41
ENDBRANCH  38  39
ENDBRANCH  37  38
ENDBRANCH   1  37
TORSDOF 9
