REMARK  Name = ZINC08635524
REMARK  15 active torsions:
REMARK  status: ('A' for Active; 'I' for Inactive)
REMARK    1  A    between atoms: C_1  and  C_2
REMARK    2  A    between atoms: C_2  and  C_3
REMARK    3  A    between atoms: C_2  and  C_4
REMARK    4  A    between atoms: C_4  and  N_5
REMARK    5  A    between atoms: N_5  and  C_6
REMARK    6  A    between atoms: C_6  and  N_8
REMARK    7  A    between atoms: N_8  and  C_9
REMARK    8  A    between atoms: C_9  and  C_10
REMARK    9  A    between atoms: C_18  and  C_20
REMARK   10  A    between atoms: C_22  and  C_26
REMARK   11  A    between atoms: N_24  and  C_25
REMARK   12  A    between atoms: C_29  and  O_34
REMARK   13  A    between atoms: C_30  and  O_32
REMARK   14  A    between atoms: O_32  and  C_33
REMARK   15  A    between atoms: O_34  and  C_35
REMARK                            x       y       z     vdW  Elec       q    Type
REMARK                         _______ _______ _______ _____ _____    ______ ____
ROOT
ATOM      1  C   UNL     1       7.155  -0.602   1.021  0.00  0.00    -0.051 C 
ATOM      2  C   UNL     1       6.659  -0.330  -0.402  0.00  0.00    -0.010 C 
ATOM      3  C   UNL     1       7.464   0.834  -0.993  0.00  0.00    -0.007 C 
ATOM      4  C   UNL     1       8.950   0.453  -0.990  0.00  0.00    -0.015 C 
ATOM      5  C   UNL     1       9.382   0.158   0.450  0.00  0.00    -0.078 C 
ATOM      6  C   UNL     1       7.752   1.727   1.317  0.00  0.00    -0.068 C 
ATOM      7  C   UNL     1       7.274   2.065  -0.098  0.00  0.00    +0.024 C 
ATOM      8  N   UNL     1       8.243   0.333   1.377  0.00  0.00    +0.383 N 
ATOM      9  H   UNL     1       8.557   0.131   2.333  0.00  0.00    -0.081 HD
ENDROOT
BRANCH   7  10
ATOM     10  C   UNL     1       5.815   2.442  -0.061  0.00  0.00    +0.041 A 
ATOM     11  C   UNL     1       5.083   2.678   1.050  0.00  0.00    +0.053 A 
ATOM     12  C   UNL     1       3.773   2.997   0.644  0.00  0.00    +0.093 A 
ATOM     13  N   UNL     1       3.732   2.945  -0.671  0.00  0.00    -0.171 NA
ATOM     14  N   UNL     1       5.009   2.602  -1.133  0.00  0.00    -0.271 N 
ATOM     15  C   UNL     1       5.401   2.441  -2.535  0.00  0.00    +0.172 C 
BRANCH  12  16
ATOM     16  C   UNL     1       2.637   3.327   1.540  0.00  0.00    +0.006 A 
ATOM     17  C   UNL     1       2.843   3.441   2.914  0.00  0.00    +0.014 A 
ATOM     18  C   UNL     1       1.786   3.748   3.747  0.00  0.00    +0.050 A 
ATOM     19  C   UNL     1       0.518   3.942   3.221  0.00  0.00    +0.162 A 
ATOM     20  C   UNL     1       0.307   3.828   1.849  0.00  0.00    +0.162 A 
ATOM     21  C   UNL     1       1.363   3.521   1.010  0.00  0.00    +0.059 A 
BRANCH  20  22
ATOM     22  O   UNL     1      -0.939   4.012   1.335  0.00  0.00    -0.491 OA
ATOM     23  C   UNL     1      -1.083   3.880  -0.080  0.00  0.00    +0.277 C 
ENDBRANCH  20  22
BRANCH  19  24
ATOM     24  O   UNL     1      -0.520   4.244   4.045  0.00  0.00    -0.491 OA
ATOM     25  C   UNL     1      -0.232   4.345   5.441  0.00  0.00    +0.277 C 
ENDBRANCH  19  24
ENDBRANCH  12  16
ENDBRANCH   7  10
BRANCH   1  26
ATOM     26  C   UNL     1       6.000  -0.420   2.008  0.00  0.00    +0.088 C 
BRANCH  26  27
ATOM     27  N   UNL     1       6.502  -0.560   3.378  0.00  0.00    -0.328 N 
ATOM     28  H   UNL     1       7.442  -0.742   3.534  0.00  0.00    +0.148 HD
BRANCH  27  29
ATOM     29  C   UNL     1       5.657  -0.437   4.420  0.00  0.00    +0.130 C 
ATOM     30  S   UNL     1       3.998  -0.117   4.145  0.00  0.00    -0.019 S 
BRANCH  29  31
ATOM     31  N   UNL     1       6.118  -0.567   5.680  0.00  0.00    -0.326 N 
ATOM     32  H   UNL     1       7.058  -0.748   5.836  0.00  0.00    +0.148 HD
BRANCH  31  33
ATOM     33  C   UNL     1       5.199  -0.433   6.814  0.00  0.00    +0.106 C 
BRANCH  33  35
ATOM     34  C   UNL     1       5.040  -0.361   9.306  0.00  0.00    +0.009 C 
ATOM     35  C   UNL     1       5.972  -0.623   8.121  0.00  0.00    -0.000 C 
ATOM     36  C   UNL     1       6.503  -2.055   8.197  0.00  0.00    +0.009 C 
ENDBRANCH  33  35
ENDBRANCH  31  33
ENDBRANCH  29  31
ENDBRANCH  27  29
ENDBRANCH  26  27
ENDBRANCH   1  26
TORSDOF 10
