REMARK  Name = ZINC36545401
REMARK  17 active torsions:
REMARK  status: ('A' for Active; 'I' for Inactive)
REMARK    1  A    between atoms: C_1  and  C_2
REMARK    2  A    between atoms: C_2  and  C_4
REMARK    3  A    between atoms: C_2  and  C_10
REMARK    4  A    between atoms: C_10  and  C_12
REMARK    5  A    between atoms: C_10  and  N_23
REMARK    6  A    between atoms: N_14  and  C_15
REMARK    7  A    between atoms: C_15  and  C_16
REMARK    8  A    between atoms: C_15  and  C_17
REMARK    9  A    between atoms: C_15  and  C_18
REMARK   10  A    between atoms: C_18  and  C_19
REMARK   11  A    between atoms: C_19  and  C_20
REMARK   12  A    between atoms: C_19  and  C_21
REMARK   13  A    between atoms: C_19  and  C_22
REMARK   14  A    between atoms: N_23  and  C_24
REMARK   15  A    between atoms: C_31  and  C_33
REMARK   16  A    between atoms: C_37  and  O_40
REMARK   17  A    between atoms: C_38  and  O_39
REMARK                            x       y       z     vdW  Elec       q    Type
REMARK                         _______ _______ _______ _____ _____    ______ ____
ROOT
ATOM      1  C   UNL     1       0.217  -1.933   0.190  0.00  0.00    +0.174 C 
ENDROOT
BRANCH   1   2
ATOM      2  C   UNL     1      -0.193  -3.375   0.345  0.00  0.00    +0.235 C 
ATOM      3  O   UNL     1      -0.970  -3.872  -0.442  0.00  0.00    -0.274 OA
ATOM      4  N   UNL     1       0.303  -4.111   1.359  0.00  0.00    -0.309 N 
ATOM      5  H   UNL     1       0.873  -3.697   2.025  0.00  0.00    +0.149 HD
BRANCH   4   6
ATOM      6  C   UNL     1      -0.018  -5.537   1.454  0.00  0.00    +0.030 C 
ATOM      7  C   UNL     1      -1.537  -5.717   1.481  0.00  0.00    +0.031 C 
ATOM      8  C   UNL     1       0.561  -6.272   0.243  0.00  0.00    +0.031 C 
BRANCH   6   9
ATOM      9  C   UNL     1       0.586  -6.112   2.736  0.00  0.00    +0.031 C 
BRANCH   9  10
ATOM     10  C   UNL     1      -0.099  -5.481   3.950  0.00  0.00    -0.036 C 
ATOM     11  C   UNL     1      -1.477  -6.116   4.145  0.00  0.00    +0.010 C 
ATOM     12  C   UNL     1       0.753  -5.720   5.198  0.00  0.00    +0.010 C 
ATOM     13  C   UNL     1      -0.258  -3.977   3.721  0.00  0.00    +0.010 C 
ENDBRANCH   9  10
ENDBRANCH   6   9
ENDBRANCH   4   6
ENDBRANCH   1   2
BRANCH   1  14
ATOM     14  N   UNL     1      -0.602  -1.301  -0.847  0.00  0.00    -0.253 N 
ATOM     15  C   UNL     1      -1.265  -0.158  -0.579  0.00  0.00    +0.255 C 
ATOM     16  O   UNL     1      -1.259   0.298   0.548  0.00  0.00    -0.269 OA
BRANCH  14  17
ATOM     17  C   UNL     1      -0.696  -1.883  -2.115  0.00  0.00    +0.056 A 
ATOM     18  C   UNL     1       0.370  -1.799  -3.001  0.00  0.00    +0.025 A 
ATOM     19  C   UNL     1       0.274  -2.375  -4.252  0.00  0.00    +0.002 A 
ATOM     20  C   UNL     1      -0.882  -3.036  -4.625  0.00  0.00    +0.002 A 
ATOM     21  C   UNL     1      -1.946  -3.123  -3.746  0.00  0.00    +0.022 A 
ATOM     22  C   UNL     1      -1.855  -2.553  -2.490  0.00  0.00    +0.062 A 
ATOM     23 CL   UNL     1      -3.189  -2.667  -1.385  0.00  0.00    -0.082 Cl
ENDBRANCH  14  17
BRANCH  15  24
ATOM     24  C   UNL     1      -1.998   0.538  -1.653  0.00  0.00    +0.082 A 
ATOM     25  C   UNL     1      -1.440   0.641  -2.931  0.00  0.00    +0.017 A 
ATOM     26  C   UNL     1      -2.127   1.293  -3.932  0.00  0.00    +0.005 A 
ATOM     27  C   UNL     1      -3.371   1.849  -3.679  0.00  0.00    +0.049 A 
ATOM     28  C   UNL     1      -3.936   1.756  -2.419  0.00  0.00    +0.159 A 
ATOM     29  C   UNL     1      -3.257   1.095  -1.400  0.00  0.00    +0.171 A 
BRANCH  29  30
ATOM     30  O   UNL     1      -3.810   0.996  -0.164  0.00  0.00    -0.503 OA
ATOM     31  H   UNL     1      -3.587   1.729   0.426  0.00  0.00    +0.292 HD
ENDBRANCH  29  30
BRANCH  28  32
ATOM     32  O   UNL     1      -5.157   2.304  -2.179  0.00  0.00    -0.503 OA
ATOM     33  H   UNL     1      -5.897   1.703  -2.339  0.00  0.00    +0.292 HD
ENDBRANCH  28  32
ENDBRANCH  15  24
ENDBRANCH   1  14
BRANCH   1  35
ATOM     34  C   UNL     1       2.083  -0.404  -0.460  0.00  0.00    +0.015 C 
ATOM     35  C   UNL     1       1.692  -1.862  -0.211  0.00  0.00    +0.046 C 
BRANCH  35  36
ATOM     36  C   UNL     1       2.542  -2.428   0.898  0.00  0.00    -0.042 A 
ATOM     37  C   UNL     1       2.501  -1.861   2.158  0.00  0.00    +0.004 A 
ATOM     38  C   UNL     1       3.280  -2.380   3.175  0.00  0.00    +0.000 A 
ATOM     39  C   UNL     1       4.100  -3.466   2.931  0.00  0.00    +0.000 A 
ATOM     40  C   UNL     1       4.141  -4.033   1.671  0.00  0.00    +0.000 A 
ATOM     41  C   UNL     1       3.358  -3.517   0.656  0.00  0.00    +0.004 A 
ENDBRANCH  35  36
ENDBRANCH   1  35
TORSDOF 11
