REMARK  Name = ZINC21232778
REMARK  11 active torsions:
REMARK  status: ('A' for Active; 'I' for Inactive)
REMARK    1  A    between atoms: C_1  and  C_2
REMARK    2  A    between atoms: C_2  and  O_3
REMARK    3  A    between atoms: O_3  and  C_4
REMARK    4  A    between atoms: C_6  and  C_14
REMARK    5  A    between atoms: C_9  and  O_10
REMARK    6  A    between atoms: O_10  and  C_11
REMARK    7  A    between atoms: C_11  and  C_13
REMARK    8  A    between atoms: C_19  and  C_24
REMARK    9  A    between atoms: C_27  and  N_30
REMARK   10  A    between atoms: N_30  and  C_31
REMARK   11  A    between atoms: N_30  and  C_32
REMARK                            x       y       z     vdW  Elec       q    Type
REMARK                         _______ _______ _______ _____ _____    ______ ____
ROOT
ATOM      1  C   UNL     1       2.226  -0.260  -1.580  0.00  0.00    +0.136 C 
ATOM      2  C   UNL     1       2.700   1.167  -1.734  0.00  0.00    +0.036 C 
ATOM      3  C   UNL     1       2.263   2.222  -1.030  0.00  0.00    +0.017 C 
ATOM      4  C   UNL     1       2.795   3.615  -1.327  0.00  0.00    +0.059 C 
ATOM      5  C   UNL     1       4.256   3.530  -1.764  0.00  0.00    +0.032 C 
ATOM      6  C   UNL     1       4.316   2.663  -3.027  0.00  0.00    +0.088 C 
ATOM      7  C   UNL     1       3.697   1.332  -2.725  0.00  0.00    +0.163 C 
ATOM      8  O   UNL     1       4.065   0.359  -3.353  0.00  0.00    -0.292 OA
ATOM      9  N   UNL     1       1.336   2.173  -0.038  0.00  0.00    -0.316 N 
ATOM     10  C   UNL     1       0.122   1.498  -0.122  0.00  0.00    +0.052 A 
ATOM     11  C   UNL     1      -1.094   2.153  -0.052  0.00  0.00    +0.025 A 
ATOM     12  C   UNL     1      -2.265   1.414  -0.078  0.00  0.00    +0.002 A 
ATOM     13  C   UNL     1      -2.216   0.035  -0.174  0.00  0.00    +0.002 A 
ATOM     14  C   UNL     1      -1.000  -0.620  -0.262  0.00  0.00    +0.025 A 
ATOM     15  C   UNL     1       0.174   0.118  -0.254  0.00  0.00    +0.049 A 
ATOM     16  N   UNL     1       1.415  -0.494  -0.404  0.00  0.00    -0.331 N 
ATOM     17  H   UNL     1       1.522   2.691   0.914  0.00  0.00    +0.152 HD
ATOM     18  H   UNL     1       1.777  -1.165   0.389  0.00  0.00    +0.147 HD
ENDROOT
BRANCH   1  21
ATOM     19  C   UNL     1       1.161  -1.928  -4.798  0.00  0.00    +0.163 A 
ATOM     20  C   UNL     1       1.900  -1.585  -3.677  0.00  0.00    +0.055 A 
ATOM     21  C   UNL     1       1.421  -0.632  -2.799  0.00  0.00    -0.019 A 
ATOM     22  C   UNL     1       0.203  -0.022  -3.032  0.00  0.00    +0.009 A 
ATOM     23  C   UNL     1      -0.537  -0.355  -4.152  0.00  0.00    +0.050 A 
ATOM     24  C   UNL     1      -0.063  -1.310  -5.036  0.00  0.00    +0.173 A 
BRANCH  19  25
ATOM     25  O   UNL     1       1.630  -2.867  -5.663  0.00  0.00    -0.489 OA
BRANCH  25  27
ATOM     26  C   UNL     1       3.253  -4.483  -6.433  0.00  0.00    +0.048 C 
ATOM     27  C   UNL     1       2.893  -3.459  -5.354  0.00  0.00    +0.226 C 
ENDBRANCH  25  27
ENDBRANCH  19  25
BRANCH  24  28
ATOM     28  O   UNL     1      -0.792  -1.643  -6.135  0.00  0.00    -0.422 OA
BRANCH  28  29
ATOM     29  C   UNL     1      -1.525  -2.766  -6.062  0.00  0.00    +0.309 C 
ATOM     30  O   UNL     1      -1.590  -3.379  -5.023  0.00  0.00    -0.251 OA
ATOM     31  C   UNL     1      -2.266  -3.261  -7.277  0.00  0.00    +0.136 C 
ENDBRANCH  28  29
ENDBRANCH  24  28
ENDBRANCH   1  21
BRANCH   5  32
ATOM     32  C   UNL     1       4.780   4.910  -2.067  0.00  0.00    -0.043 A 
ATOM     33  C   UNL     1       4.188   5.671  -3.058  0.00  0.00    +0.006 A 
ATOM     34  C   UNL     1       4.662   6.939  -3.333  0.00  0.00    +0.023 A 
ATOM     35  C   UNL     1       5.742   7.444  -2.622  0.00  0.00    +0.029 A 
ATOM     36  C   UNL     1       6.338   6.675  -1.631  0.00  0.00    +0.023 A 
ATOM     37  C   UNL     1       5.856   5.411  -1.356  0.00  0.00    +0.006 A 
BRANCH  35  38
ATOM     38  N   UNL     1       6.227   8.724  -2.902  0.00  0.00    -0.336 N 
ATOM     39  C   UNL     1       7.442   9.207  -2.241  0.00  0.00    +0.129 C 
ATOM     40  C   UNL     1       5.521   9.582  -3.856  0.00  0.00    +0.129 C 
ENDBRANCH  35  38
ENDBRANCH   5  32
TORSDOF 7
