REMARK  Name = ZINC21924052
REMARK  9 active torsions:
REMARK  status: ('A' for Active; 'I' for Inactive)
REMARK    1  A    between atoms: C_1  and  C_2
REMARK    2  A    between atoms: C_4  and  C_28
REMARK    3  A    between atoms: C_8  and  N_27
REMARK    4  A    between atoms: C_9  and  C_11
REMARK    5  A    between atoms: C_11  and  O_13
REMARK    6  A    between atoms: O_13  and  C_14
REMARK    7  A    between atoms: C_14  and  C_15
REMARK    8  A    between atoms: C_18  and  C_26
REMARK    9  A    between atoms: C_23  and  C_25
REMARK                            x       y       z     vdW  Elec       q    Type
REMARK                         _______ _______ _______ _____ _____    ______ ____
ROOT
ATOM      1  C   UNL     1       0.610   1.648   0.673  0.00  0.00    +0.044 C 
ATOM      2  C   UNL     1       0.543   0.143   0.631  0.00  0.00    -0.037 A 
ATOM      3  C   UNL     1      -0.017  -0.501  -0.448  0.00  0.00    +0.025 A 
ATOM      4  C   UNL     1      -0.077  -1.886  -0.484  0.00  0.00    +0.014 A 
ATOM      5  N   UNL     1       0.401  -2.602   0.515  0.00  0.00    -0.353 N 
ATOM      6  C   UNL     1       0.946  -2.033   1.568  0.00  0.00    +0.088 A 
ATOM      7  C   UNL     1       1.060  -0.630   1.700  0.00  0.00    +0.030 A 
ATOM      8  C   UNL     1       1.695  -0.174   2.926  0.00  0.00    +0.055 A 
ATOM      9  C   UNL     1       2.125  -1.121   3.831  0.00  0.00    +0.119 A 
ATOM     10  S   UNL     1       1.673  -2.663   3.061  0.00  0.00    -0.062 S 
ATOM     11  C   UNL     1      -0.694  -2.578  -1.673  0.00  0.00    +0.063 C 
ATOM     12  H   UNL     1       0.349  -3.570   0.472  0.00  0.00    +0.166 HD
ENDROOT
BRANCH   8  13
ATOM     13  N   UNL     1       1.864   1.179   3.179  0.00  0.00    -0.356 N 
ATOM     14  H   UNL     1       1.887   1.811   2.443  0.00  0.00    +0.142 HD
ATOM     15  H   UNL     1       1.959   1.494   4.091  0.00  0.00    +0.142 HD
ENDBRANCH   8  13
BRANCH   9  16
ATOM     16  C   UNL     1       2.762  -0.917   5.078  0.00  0.00    +0.348 C 
ATOM     17  O   UNL     1       2.992   0.213   5.466  0.00  0.00    -0.244 OA
BRANCH  16  18
ATOM     18  O   UNL     1       3.114  -1.976   5.837  0.00  0.00    -0.451 OA
BRANCH  18  19
ATOM     19  C   UNL     1       3.754  -1.697   7.084  0.00  0.00    +0.328 C 
BRANCH  19  20
ATOM     20  C   UNL     1       4.071  -2.991   7.787  0.00  0.00    +0.254 C 
ATOM     21  O   UNL     1       3.876  -4.049   7.227  0.00  0.00    -0.272 OA
ATOM     22  N   UNL     1       4.570  -2.974   9.039  0.00  0.00    -0.293 N 
ATOM     23  C   UNL     1       4.865  -4.228   9.745  0.00  0.00    +0.073 C 
ATOM     24  C   UNL     1       6.316  -4.190  10.233  0.00  0.00    +0.022 C 
ATOM     25  C   UNL     1       6.535  -2.929  11.073  0.00  0.00    +0.004 C 
ATOM     26  C   UNL     1       6.283  -1.690  10.211  0.00  0.00    +0.022 C 
ATOM     27  C   UNL     1       4.837  -1.700   9.721  0.00  0.00    +0.073 C 
ATOM     28  C   UNL     1       3.893  -1.550  10.916  0.00  0.00    +0.028 C 
ATOM     29  C   UNL     1       4.671  -5.410   8.794  0.00  0.00    +0.028 C 
ENDBRANCH  19  20
ENDBRANCH  18  19
ENDBRANCH  16  18
ENDBRANCH   9  16
TORSDOF 5
