REMARK  Name = ZINC40895934
REMARK  4 active torsions:
REMARK  status: ('A' for Active; 'I' for Inactive)
REMARK    1  A    between atoms: C_1  and  C_2
REMARK    2  A    between atoms: C_7  and  C_8
REMARK    3  A    between atoms: N_11  and  C_14
REMARK    4  A    between atoms: C_14  and  C_15
REMARK                            x       y       z     vdW  Elec       q    Type
REMARK                         _______ _______ _______ _____ _____    ______ ____
ROOT
ATOM      1  C   UNL     1      -0.068   0.337   2.519  0.00  0.00    +0.016 C 
ATOM      2  C   UNL     1      -1.079  -0.213   3.529  0.00  0.00    -0.011 C 
ATOM      3  C   UNL     1      -0.801   0.399   4.904  0.00  0.00    -0.078 C 
ATOM      4  N   UNL     1       0.559   0.052   5.333  0.00  0.00    +0.380 N 
ATOM      5  C   UNL     1       1.537   0.637   4.407  0.00  0.00    -0.078 C 
ATOM      6  C   UNL     1       1.350   0.035   3.013  0.00  0.00    -0.011 C 
ATOM      7  H   UNL     1       0.663  -0.952   5.340  0.00  0.00    -0.082 HD
ENDROOT
BRANCH   1  14
ATOM      8  C   UNL     1      -0.551   1.957   0.176  0.00  0.00    +0.044 C 
ATOM      9  C   UNL     1      -0.516   0.455   0.059  0.00  0.00    -0.047 A 
ATOM     10  C   UNL     1      -0.710  -0.147  -1.170  0.00  0.00    +0.003 A 
ATOM     11  C   UNL     1      -0.678  -1.525  -1.277  0.00  0.00    +0.000 A 
ATOM     12  C   UNL     1      -0.452  -2.300  -0.155  0.00  0.00    +0.000 A 
ATOM     13  C   UNL     1      -0.257  -1.698   1.073  0.00  0.00    +0.004 A 
ATOM     14  C   UNL     1      -0.285  -0.320   1.180  0.00  0.00    -0.041 A 
ENDBRANCH   1  14
BRANCH   4  15
ATOM     15  C   UNL     1       0.793   0.575   6.685  0.00  0.00    -0.075 C 
BRANCH  15  16
ATOM     16  C   UNL     1      -0.115  -0.154   7.678  0.00  0.00    -0.020 C 
ATOM     17  C   UNL     1      -0.046   0.567   9.016  0.00  0.00    +0.007 C 
ATOM     18  C   UNL     1      -1.145   0.092   9.961  0.00  0.00    +0.037 C 
ATOM     19  C   UNL     1      -0.655  -1.123  10.726  0.00  0.00    -0.019 A 
ATOM     20  C   UNL     1      -0.395  -1.036  12.082  0.00  0.00    +0.007 A 
ATOM     21  C   UNL     1       0.025  -2.183  12.740  0.00  0.00    +0.020 A 
ATOM     22  C   UNL     1       0.164  -3.364  12.026  0.00  0.00    +0.111 A 
ATOM     23  N   UNL     1      -0.083  -3.413  10.735  0.00  0.00    -0.252 NA
ATOM     24  C   UNL     1      -0.470  -2.332  10.065  0.00  0.00    +0.109 A 
ATOM     25  C   UNL     1      -0.661  -2.390   8.600  0.00  0.00    +0.182 C 
ATOM     26  O   UNL     1      -1.555  -3.044   8.108  0.00  0.00    -0.290 OA
ATOM     27  C   UNL     1       0.305  -1.601   7.739  0.00  0.00    +0.083 C 
ENDBRANCH  15  16
ENDBRANCH   4  15
TORSDOF 3
