REMARK  Name = ZINC36597871
REMARK  13 active torsions:
REMARK  status: ('A' for Active; 'I' for Inactive)
REMARK    1  A    between atoms: C_1  and  C_2
REMARK    2  A    between atoms: C_5  and  C_7
REMARK    3  A    between atoms: C_7  and  N_8
REMARK    4  A    between atoms: N_8  and  C_9
REMARK    5  A    between atoms: C_9  and  C_11
REMARK    6  A    between atoms: C_9  and  C_18
REMARK    7  A    between atoms: C_14  and  O_17
REMARK    8  A    between atoms: N_20  and  C_21
REMARK    9  A    between atoms: C_21  and  C_22
REMARK   10  A    between atoms: C_21  and  C_23
REMARK   11  A    between atoms: C_21  and  C_24
REMARK   12  A    between atoms: C_25  and  C_27
REMARK   13  A    between atoms: C_27  and  C_28
REMARK                            x       y       z     vdW  Elec       q    Type
REMARK                         _______ _______ _______ _____ _____    ______ ____
ROOT
ATOM      1  N   UNL     1       1.940  -3.730  -1.343  0.00  0.00    -0.278 N 
ATOM      2  C   UNL     1       1.523  -4.991  -1.572  0.00  0.00    +0.221 C 
ATOM      3  O   UNL     1       2.138  -5.704  -2.336  0.00  0.00    -0.275 OA
ENDROOT
BRANCH   1   4
ATOM      4  C   UNL     1       1.197  -2.868  -0.420  0.00  0.00    +0.183 C 
BRANCH   4   9
ATOM      5  C   UNL     1      -1.394   0.680  -2.898  0.00  0.00    +0.086 C 
ATOM      6  C   UNL     1      -1.040  -0.630  -2.243  0.00  0.00    +0.102 A 
ATOM      7  C   UNL     1      -1.834  -1.714  -2.171  0.00  0.00    +0.045 A 
ATOM      8  C   UNL     1      -1.108  -2.708  -1.476  0.00  0.00    +0.046 A 
ATOM      9  C   UNL     1       0.087  -2.173  -1.166  0.00  0.00    +0.122 A 
ATOM     10  O   UNL     1       0.125  -0.917  -1.638  0.00  0.00    -0.463 OA
ENDBRANCH   4   9
ENDBRANCH   1   4
BRANCH   1  11
ATOM     11  C   UNL     1       3.138  -3.221  -2.016  0.00  0.00    +0.193 C 
BRANCH  11  12
ATOM     12  C   UNL     1       4.367  -3.760  -1.331  0.00  0.00    -0.018 A 
ATOM     13  C   UNL     1       4.450  -3.743   0.050  0.00  0.00    +0.009 A 
ATOM     14  C   UNL     1       5.576  -4.236   0.681  0.00  0.00    +0.046 A 
ATOM     15  C   UNL     1       6.623  -4.747  -0.071  0.00  0.00    +0.117 A 
ATOM     16  C   UNL     1       6.537  -4.763  -1.456  0.00  0.00    +0.046 A 
ATOM     17  C   UNL     1       5.407  -4.274  -2.082  0.00  0.00    +0.009 A 
BRANCH  15  18
ATOM     18  O   UNL     1       7.732  -5.232   0.547  0.00  0.00    -0.507 OA
ATOM     19  H   UNL     1       7.684  -6.174   0.758  0.00  0.00    +0.292 HD
ENDBRANCH  15  18
ENDBRANCH  11  12
BRANCH  11  20
ATOM     20  C   UNL     1       3.147  -1.716  -1.955  0.00  0.00    +0.238 C 
ATOM     21  O   UNL     1       2.274  -1.128  -1.352  0.00  0.00    -0.273 OA
ATOM     22  N   UNL     1       4.125  -1.022  -2.570  0.00  0.00    -0.309 N 
ATOM     23  H   UNL     1       4.823  -1.492  -3.052  0.00  0.00    +0.149 HD
BRANCH  22  24
ATOM     24  C   UNL     1       4.134   0.442  -2.510  0.00  0.00    +0.026 C 
ATOM     25  C   UNL     1       4.223   0.892  -1.051  0.00  0.00    +0.031 C 
ATOM     26  C   UNL     1       5.341   0.976  -3.284  0.00  0.00    +0.031 C 
ATOM     27  C   UNL     1       2.847   0.986  -3.134  0.00  0.00    +0.031 C 
ENDBRANCH  22  24
ENDBRANCH  11  20
ENDBRANCH   1  11
BRANCH   2  28
ATOM     28  C   UNL     1       0.291  -5.514  -0.879  0.00  0.00    +0.132 C 
BRANCH  28  29
ATOM     29  C   UNL     1       0.043  -6.939  -1.304  0.00  0.00    -0.019 A 
ATOM     30  C   UNL     1      -0.825  -7.207  -2.346  0.00  0.00    +0.005 A 
ATOM     31  C   UNL     1      -1.054  -8.514  -2.737  0.00  0.00    +0.002 A 
ATOM     32  C   UNL     1      -0.415  -9.553  -2.085  0.00  0.00    +0.021 A 
ATOM     33  C   UNL     1       0.453  -9.285  -1.043  0.00  0.00    +0.060 A 
ATOM     34  C   UNL     1       0.687  -7.976  -0.655  0.00  0.00    +0.063 A 
ATOM     35 CL   UNL     1       1.782  -7.639   0.648  0.00  0.00    -0.082 Cl
ATOM     36 CL   UNL     1       1.255 -10.589  -0.224  0.00  0.00    -0.082 Cl
ENDBRANCH  28  29
ENDBRANCH   2  28
TORSDOF 9
