REMARK  Name = ZINC06879951
REMARK  9 active torsions:
REMARK  status: ('A' for Active; 'I' for Inactive)
REMARK    1  A    between atoms: C_1  and  C_2
REMARK    2  A    between atoms: C_5  and  N_8
REMARK    3  A    between atoms: C_9  and  N_14
REMARK    4  A    between atoms: C_11  and  C_13
REMARK    5  A    between atoms: C_15  and  C_17
REMARK    6  A    between atoms: C_17  and  S_18
REMARK    7  A    between atoms: S_18  and  C_19
REMARK    8  A    between atoms: C_23  and  C_29
REMARK    9  A    between atoms: C_25  and  C_28
REMARK                            x       y       z     vdW  Elec       q    Type
REMARK                         _______ _______ _______ _____ _____    ______ ____
ROOT
ATOM      1  N   UNL     1      -3.094  -2.545   0.018  0.00  0.00    -0.270 N 
ATOM      2  C   UNL     1      -1.875  -1.969   0.009  0.00  0.00    +0.229 C 
ATOM      3  O   UNL     1      -0.878  -2.659  -0.004  0.00  0.00    -0.275 OA
ATOM      4  H   UNL     1      -3.891  -1.993   0.029  0.00  0.00    +0.156 HD
ENDROOT
BRANCH   1   6
ATOM      5  N   UNL     1      -4.367  -4.647   0.024  0.00  0.00    -0.218 N 
ATOM      6  C   UNL     1      -3.208  -3.935   0.012  0.00  0.00    +0.129 A 
ATOM      7  C   UNL     1      -2.180  -4.827  -0.003  0.00  0.00    +0.068 A 
ATOM      8  C   UNL     1      -2.728  -6.113  -0.004  0.00  0.00    +0.062 A 
ATOM      9  N   UNL     1      -4.033  -6.008   0.008  0.00  0.00    -0.170 NA
ATOM     10  C   UNL     1      -1.949  -7.402  -0.018  0.00  0.00    +0.067 C 
BRANCH   5  15
ATOM     11  C   UNL     1      -9.617  -2.495   0.114  0.00  0.00    +0.044 C 
ATOM     12  C   UNL     1      -8.223  -3.067   0.090  0.00  0.00    -0.050 A 
ATOM     13  C   UNL     1      -7.967  -4.232  -0.608  0.00  0.00    +0.005 A 
ATOM     14  C   UNL     1      -6.691  -4.758  -0.632  0.00  0.00    +0.028 A 
ATOM     15  C   UNL     1      -5.663  -4.116   0.046  0.00  0.00    +0.067 A 
ATOM     16  C   UNL     1      -5.925  -2.948   0.751  0.00  0.00    +0.028 A 
ATOM     17  C   UNL     1      -7.202  -2.424   0.767  0.00  0.00    +0.005 A 
ENDBRANCH   5  15
ENDBRANCH   1   6
BRANCH   2  18
ATOM     18  C   UNL     1      -1.752  -0.467   0.016  0.00  0.00    +0.173 C 
BRANCH  18  19
ATOM     19  S   UNL     1       0.002  -0.004   0.002  0.00  0.00    -0.075 S 
BRANCH  19  20
ATOM     20  C   UNL     1      -0.022   1.758   0.012  0.00  0.00    +0.211 A 
ATOM     21  N   UNL     1      -1.119   2.512   0.020  0.00  0.00    -0.183 NA
ATOM     22  C   UNL     1      -0.779   3.797   0.029  0.00  0.00    +0.254 A 
ATOM     23  N   UNL     1      -1.505   4.921   0.042  0.00  0.00    -0.216 NA
ATOM     24  C   UNL     1      -0.923   6.099   0.042  0.00  0.00    +0.044 A 
ATOM     25  C   UNL     1       0.473   6.197   0.029  0.00  0.00    +0.046 A 
ATOM     26  C   UNL     1       1.218   5.060   0.017  0.00  0.00    +0.045 A 
ATOM     27  N   UNL     1       0.586   3.858   0.017  0.00  0.00    -0.200 N 
ATOM     28  N   UNL     1       1.044   2.534   0.006  0.00  0.00    -0.137 NA
ATOM     29  C   UNL     1       2.723   5.133   0.004  0.00  0.00    +0.066 C 
ATOM     30  C   UNL     1      -1.763   7.350   0.056  0.00  0.00    +0.066 C 
ENDBRANCH  19  20
ENDBRANCH  18  19
ENDBRANCH   2  18
TORSDOF 5
