REMARK  Name = ZINC12635671
REMARK  14 active torsions:
REMARK  status: ('A' for Active; 'I' for Inactive)
REMARK    1  A    between atoms: C_1  and  C_2
REMARK    2  A    between atoms: C_2  and  N_70
REMARK    3  A    between atoms: C_6  and  C_8
REMARK    4  A    between atoms: C_8  and  N_9
REMARK    5  A    between atoms: N_9  and  C_10
REMARK    6  A    between atoms: N_9  and  C_25
REMARK    7  A    between atoms: C_10  and  C_11
REMARK    8  A    between atoms: C_16  and  C_24
REMARK    9  A    between atoms: C_17  and  C_23
REMARK   10  A    between atoms: C_25  and  N_27
REMARK   11  A    between atoms: N_27  and  C_28
REMARK   12  A    between atoms: C_33  and  C_34
REMARK   13  A    between atoms: C_34  and  O_36
REMARK   14  A    between atoms: O_36  and  C_37
REMARK                            x       y       z     vdW  Elec       q    Type
REMARK                         _______ _______ _______ _____ _____    ______ ____
ROOT
ATOM      1  N   UNL     1       0.735   1.737  -0.337  0.00  0.00    -0.309 N 
ENDROOT
BRANCH   1   2
ATOM      2  C   UNL     1      -0.397   1.006  -0.352  0.00  0.00    +0.137 C 
ATOM      3  S   UNL     1      -0.330  -0.671  -0.690  0.00  0.00    -0.018 S 
BRANCH   2   4
ATOM      4  N   UNL     1      -1.584   1.597  -0.106  0.00  0.00    -0.296 N 
ATOM      5  H   UNL     1      -1.631   2.558   0.012  0.00  0.00    +0.154 HD
BRANCH   4   6
ATOM      6  C   UNL     1      -2.740   0.827  -0.021  0.00  0.00    +0.047 A 
ATOM      7  C   UNL     1      -2.733  -0.366   0.689  0.00  0.00    +0.024 A 
ATOM      8  C   UNL     1      -3.883  -1.126   0.776  0.00  0.00    +0.002 A 
ATOM      9  C   UNL     1      -5.047  -0.711   0.148  0.00  0.00    +0.001 A 
ATOM     10  C   UNL     1      -5.071   0.467  -0.565  0.00  0.00    +0.017 A 
ATOM     11  C   UNL     1      -3.917   1.250  -0.658  0.00  0.00    +0.080 A 
BRANCH  11  12
ATOM     12  C   UNL     1      -3.936   2.512  -1.419  0.00  0.00    +0.341 C 
ATOM     13  O   UNL     1      -2.907   3.135  -1.587  0.00  0.00    -0.245 OA
BRANCH  12  14
ATOM     14  O   UNL     1      -5.095   2.974  -1.928  0.00  0.00    -0.464 OA
ATOM     15  C   UNL     1      -5.039   4.223  -2.666  0.00  0.00    +0.280 C 
ENDBRANCH  12  14
ENDBRANCH  11  12
ENDBRANCH   4   6
ENDBRANCH   2   4
ENDBRANCH   1   2
BRANCH   1  16
ATOM     16  C   UNL     1       0.668   3.189  -0.154  0.00  0.00    +0.092 C 
BRANCH  16  20
ATOM     17  C   UNL     1      -0.828   3.671   3.146  0.00  0.00    -0.078 C 
ATOM     18  C   UNL     1      -0.066   5.008   3.044  0.00  0.00    -0.020 C 
ATOM     19  C   UNL     1       0.428   5.018   1.574  0.00  0.00    -0.016 C 
ATOM     20  C   UNL     1       0.739   3.519   1.338  0.00  0.00    -0.051 C 
ATOM     21  N   UNL     1      -0.329   2.805   2.065  0.00  0.00    +0.382 N 
ATOM     22  H   UNL     1      -1.097   2.592   1.418  0.00  0.00    -0.081 HD
BRANCH  21  24
ATOM     23  C   UNL     1      -0.896   0.857   3.458  0.00  0.00    -0.017 C 
ATOM     24  C   UNL     1       0.197   1.534   2.629  0.00  0.00    -0.082 C 
ENDBRANCH  21  24
ENDBRANCH  16  20
ENDBRANCH   1  16
BRANCH   1  25
ATOM     25  C   UNL     1       2.034   1.079  -0.504  0.00  0.00    +0.147 C 
BRANCH  25  26
ATOM     26  C   UNL     1       2.563   0.663   0.845  0.00  0.00    +0.035 A 
ATOM     27  C   UNL     1       2.325  -0.589   1.307  0.00  0.00    +0.020 A 
ATOM     28  C   UNL     1       2.853  -0.961   2.621  0.00  0.00    -0.001 A 
ATOM     29  C   UNL     1       2.642  -2.238   3.151  0.00  0.00    +0.010 A 
ATOM     30  C   UNL     1       3.147  -2.554   4.380  0.00  0.00    +0.004 A 
ATOM     31  C   UNL     1       3.870  -1.619   5.108  0.00  0.00    -0.046 A 
ATOM     32  C   UNL     1       4.092  -0.355   4.606  0.00  0.00    -0.024 A 
ATOM     33  C   UNL     1       3.586  -0.010   3.356  0.00  0.00    +0.052 A 
ATOM     34  N   UNL     1       3.793   1.247   2.829  0.00  0.00    -0.322 N 
ATOM     35  H   UNL     1       4.298   1.901   3.337  0.00  0.00    +0.169 HD
ATOM     36  C   UNL     1       3.308   1.578   1.619  0.00  0.00    +0.254 A 
ATOM     37  O   UNL     1       3.514   2.697   1.183  0.00  0.00    -0.268 OA
ATOM     38  C   UNL     1       4.879   0.650   5.407  0.00  0.00    +0.046 C 
ATOM     39  C   UNL     1       4.418  -1.990   6.462  0.00  0.00    +0.044 C 
ENDBRANCH  25  26
ENDBRANCH   1  25
TORSDOF 10
