REMARK  Name = ZINC22752838
REMARK  12 active torsions:
REMARK  status: ('A' for Active; 'I' for Inactive)
REMARK    1  A    between atoms: C_1  and  C_2
REMARK    2  A    between atoms: C_2  and  N_3
REMARK    3  A    between atoms: N_3  and  C_4
REMARK    4  A    between atoms: N_3  and  C_6
REMARK    5  A    between atoms: C_4  and  C_5
REMARK    6  A    between atoms: C_6  and  C_8
REMARK    7  A    between atoms: C_6  and  C_27
REMARK    8  A    between atoms: C_8  and  N_9
REMARK    9  A    between atoms: C_10  and  C_12
REMARK   10  A    between atoms: C_14  and  S_20
REMARK   11  A    between atoms: S_20  and  N_23
REMARK   12  A    between atoms: N_23  and  C_24
REMARK                            x       y       z     vdW  Elec       q    Type
REMARK                         _______ _______ _______ _____ _____    ______ ____
ROOT
ATOM      1  N   UNL     1       3.315  -3.053   0.877  0.00  0.00    -0.313 N 
ATOM      2  C   UNL     1       2.606  -2.642   1.948  0.00  0.00    +0.246 C 
ATOM      3  O   UNL     1       1.969  -3.447   2.600  0.00  0.00    -0.270 OA
ATOM      4  H   UNL     1       3.955  -2.342   0.336  0.00  0.00    +0.149 HD
ENDROOT
BRANCH   2   5
ATOM      5  C   UNL     1       2.603  -1.215   2.327  0.00  0.00    +0.057 A 
ATOM      6  C   UNL     1       3.421  -0.307   1.652  0.00  0.00    +0.044 A 
ATOM      7  C   UNL     1       3.414   1.023   2.011  0.00  0.00    +0.124 A 
ATOM      8  C   UNL     1       2.597   1.462   3.041  0.00  0.00    +0.069 A 
ATOM      9  C   UNL     1       1.783   0.569   3.715  0.00  0.00    +0.042 A 
ATOM     10  C   UNL     1       1.781  -0.767   3.365  0.00  0.00    +0.055 A 
ATOM     11 CL   UNL     1       0.759  -1.887   4.211  0.00  0.00    -0.083 Cl
ATOM     12 CL   UNL     1       2.594   3.140   3.486  0.00  0.00    -0.081 Cl
BRANCH   7  13
ATOM     13  S   UNL     1       4.447   2.169   1.159  0.00  0.00    +0.060 S 
ATOM     14  O   UNL     1       5.171   1.421   0.192  0.00  0.00    -0.153 OA
ATOM     15  O   UNL     1       3.625   3.274   0.809  0.00  0.00    -0.153 OA
BRANCH  13  16
ATOM     16  N   UNL     1       5.558   2.732   2.251  0.00  0.00    -0.187 NA
ATOM     17  H   UNL     1       5.463   3.759   2.634  0.00  0.00    +0.148 HD
BRANCH  16  18
ATOM     18  C   UNL     1       6.518   1.809   2.861  0.00  0.00    +0.077 C 
ATOM     19  C   UNL     1       6.953   2.091   4.300  0.00  0.00    +0.022 C 
ATOM     20  C   UNL     1       7.925   2.339   3.145  0.00  0.00    +0.022 C 
ENDBRANCH  16  18
ENDBRANCH  13  16
ENDBRANCH   7  13
ENDBRANCH   2   5
BRANCH   1  21
ATOM     21  C   UNL     1       3.233  -4.448   0.436  0.00  0.00    +0.094 C 
BRANCH  21  22
ATOM     22  C   UNL     1       4.220  -4.679  -0.710  0.00  0.00    -0.020 C 
BRANCH  22  23
ATOM     23  C   UNL     1       4.235  -6.141  -1.073  0.00  0.00    -0.059 A 
ATOM     24  C   UNL     1       3.964  -7.095  -0.110  0.00  0.00    +0.002 A 
ATOM     25  C   UNL     1       3.973  -8.437  -0.444  0.00  0.00    +0.000 A 
ATOM     26  C   UNL     1       4.263  -8.825  -1.739  0.00  0.00    +0.000 A 
ATOM     27  C   UNL     1       4.539  -7.871  -2.700  0.00  0.00    +0.000 A 
ATOM     28  C   UNL     1       4.525  -6.529  -2.368  0.00  0.00    +0.002 A 
ENDBRANCH  22  23
BRANCH  22  29
ATOM     29  N   UNL     1       5.565  -4.265  -0.288  0.00  0.00    +0.385 N 
ATOM     30  H   UNL     1       5.456  -3.420   0.407  0.00  0.00    -0.081 HD
BRANCH  29  32
ATOM     31  C   UNL     1       5.700  -5.452   1.849  0.00  0.00    -0.017 C 
ATOM     32  C   UNL     1       6.250  -5.351   0.425  0.00  0.00    -0.081 C 
ENDBRANCH  29  32
BRANCH  29  33
ATOM     33  C   UNL     1       6.358  -3.806  -1.436  0.00  0.00    -0.081 C 
ATOM     34  C   UNL     1       5.870  -2.424  -1.874  0.00  0.00    -0.017 C 
ENDBRANCH  29  33
ENDBRANCH  22  29
ENDBRANCH  21  22
ENDBRANCH   1  21
TORSDOF 10
