REMARK  Name = ZINC09740399
REMARK  6 active torsions:
REMARK  status: ('A' for Active; 'I' for Inactive)
REMARK    1  A    between atoms: C_4  and  C_7
REMARK    2  A    between atoms: C_7  and  C_29
REMARK    3  A    between atoms: N_10  and  C_14
REMARK    4  A    between atoms: C_14  and  N_61
REMARK    5  A    between atoms: N_17  and  S_20
REMARK    6  A    between atoms: S_20  and  C_23
REMARK                            x       y       z     vdW  Elec       q    Type
REMARK                         _______ _______ _______ _____ _____    ______ ____
ROOT
ATOM      1  C   UNL     1       3.483   0.038   7.119  0.00  0.00    +0.164 C 
ATOM      2  C   UNL     1       2.830  -1.230   6.607  0.00  0.00    +0.254 C 
ATOM      3  O   UNL     1       3.274  -2.357   6.662  0.00  0.00    -0.272 OA
ATOM      4  N   UNL     1       1.652  -0.845   6.077  0.00  0.00    -0.241 N 
ATOM      5  C   UNL     1       1.470   0.476   6.187  0.00  0.00    +0.308 C 
ATOM      6  O   UNL     1       0.481   1.057   5.786  0.00  0.00    -0.252 OA
ATOM      7  N   UNL     1       2.503   1.088   6.793  0.00  0.00    -0.278 N 
ATOM      8  H   UNL     1       2.587   2.037   6.979  0.00  0.00    +0.152 HD
ENDROOT
BRANCH   1  12
ATOM      9  C   UNL     1       7.181   0.755   5.103  0.00  0.00    +0.000 A 
ATOM     10  C   UNL     1       6.913  -0.494   5.633  0.00  0.00    +0.000 A 
ATOM     11  C   UNL     1       5.716  -0.726   6.285  0.00  0.00    +0.006 A 
ATOM     12  C   UNL     1       4.788   0.291   6.408  0.00  0.00    -0.011 A 
ATOM     13  C   UNL     1       5.054   1.538   5.874  0.00  0.00    +0.006 A 
ATOM     14  C   UNL     1       6.252   1.771   5.226  0.00  0.00    +0.000 A 
ENDBRANCH   1  12
BRANCH   1  15
ATOM     15  C   UNL     1       3.700  -0.042   8.608  0.00  0.00    -0.011 A 
ATOM     16  C   UNL     1       4.373  -1.120   9.152  0.00  0.00    +0.006 A 
ATOM     17  C   UNL     1       4.575  -1.191  10.518  0.00  0.00    +0.000 A 
ATOM     18  C   UNL     1       4.097  -0.189  11.340  0.00  0.00    +0.000 A 
ATOM     19  C   UNL     1       3.419   0.887  10.797  0.00  0.00    +0.000 A 
ATOM     20  C   UNL     1       3.221   0.960   9.431  0.00  0.00    +0.006 A 
ENDBRANCH   1  15
BRANCH   4  21
ATOM     21  C   UNL     1       0.689  -1.760   5.460  0.00  0.00    +0.043 C 
BRANCH  21  27
ATOM     22  C   UNL     1      -0.229  -2.264   3.277  0.00  0.00    -0.059 C 
ATOM     23  C   UNL     1       0.148  -2.553   1.820  0.00  0.00    +0.091 C 
ATOM     24  N   UNL     1       0.867  -1.387   1.284  0.00  0.00    -0.180 NA
ATOM     25  C   UNL     1       2.009  -0.862   2.048  0.00  0.00    +0.091 C 
ATOM     26  C   UNL     1       1.555  -0.636   3.498  0.00  0.00    -0.059 C 
ATOM     27  N   UNL     1       0.996  -1.901   4.022  0.00  0.00    +0.392 N 
ATOM     28  H   UNL     1       1.692  -2.647   3.901  0.00  0.00    -0.079 HD
BRANCH  24  29
ATOM     29  S   UNL     1       0.408  -0.690  -0.146  0.00  0.00    +0.061 S 
ATOM     30  O   UNL     1      -0.280  -1.691  -0.884  0.00  0.00    -0.153 OA
ATOM     31  O   UNL     1       1.552  -0.019  -0.657  0.00  0.00    -0.153 OA
BRANCH  29  32
ATOM     32  C   UNL     1      -0.776   0.556   0.238  0.00  0.00    +0.105 A 
ATOM     33  C   UNL     1      -2.122   0.243   0.274  0.00  0.00    +0.028 A 
ATOM     34  C   UNL     1      -3.051   1.219   0.581  0.00  0.00    +0.002 A 
ATOM     35  C   UNL     1      -2.636   2.511   0.842  0.00  0.00    +0.000 A 
ATOM     36  C   UNL     1      -1.290   2.826   0.800  0.00  0.00    +0.002 A 
ATOM     37  C   UNL     1      -0.361   1.849   0.499  0.00  0.00    +0.028 A 
ENDBRANCH  29  32
ENDBRANCH  24  29
ENDBRANCH  21  27
ENDBRANCH   4  21
TORSDOF 6
