REMARK  Name = ZINC08850275
REMARK  7 active torsions:
REMARK  status: ('A' for Active; 'I' for Inactive)
REMARK    1  A    between atoms: C_1  and  C_2
REMARK    2  A    between atoms: C_15  and  C_17
REMARK    3  A    between atoms: C_17  and  N_62
REMARK    4  A    between atoms: N_20  and  S_23
REMARK    5  A    between atoms: S_23  and  C_26
REMARK    6  A    between atoms: C_29  and  C_32
REMARK    7  A    between atoms: C_32  and  C_34
REMARK                            x       y       z     vdW  Elec       q    Type
REMARK                         _______ _______ _______ _____ _____    ______ ____
ROOT
ATOM      1  C   UNL     1       0.002  -0.004   0.002  0.00  0.00    -0.061 C 
ATOM      2  C   UNL     1      -0.019   1.528   0.010  0.00  0.00    +0.091 C 
ATOM      3  N   UNL     1       1.369   2.014  -0.000  0.00  0.00    -0.180 NA
ATOM      4  C   UNL     1       2.304   1.472   0.998  0.00  0.00    +0.091 C 
ATOM      5  C   UNL     1       2.233  -0.058   0.950  0.00  0.00    -0.061 C 
ATOM      6  N   UNL     1       0.827  -0.474   1.137  0.00  0.00    +0.387 N 
ATOM      7  H   UNL     1       0.468  -0.057   2.004  0.00  0.00    -0.081 HD
ENDROOT
BRANCH   3   8
ATOM      8  S   UNL     1       1.866   3.142  -1.106  0.00  0.00    +0.061 S 
ATOM      9  O   UNL     1       3.273   2.988  -1.239  0.00  0.00    -0.153 OA
ATOM     10  O   UNL     1       0.981   3.044  -2.213  0.00  0.00    -0.153 OA
BRANCH   8  11
ATOM     11  C   UNL     1       1.600   4.729  -0.388  0.00  0.00    +0.106 A 
ATOM     12  C   UNL     1       0.393   5.378  -0.581  0.00  0.00    +0.029 A 
ATOM     13  C   UNL     1       0.174   6.618  -0.018  0.00  0.00    +0.013 A 
ATOM     14  C   UNL     1       1.180   7.223   0.741  0.00  0.00    +0.017 A 
ATOM     15  C   UNL     1       2.399   6.564   0.928  0.00  0.00    +0.013 A 
ATOM     16  C   UNL     1       2.600   5.322   0.362  0.00  0.00    +0.029 A 
BRANCH  14  17
ATOM     17  C   UNL     1       0.957   8.549   1.342  0.00  0.00    +0.160 C 
ATOM     18  O   UNL     1       1.831   9.071   2.000  0.00  0.00    -0.292 OA
ATOM     19  C   UNL     1      -0.358   9.256   1.139  0.00  0.00    +0.091 C 
ENDBRANCH  14  17
ENDBRANCH   8  11
ENDBRANCH   3   8
BRANCH   6  20
ATOM     20  C   UNL     1       0.746  -1.946   1.243  0.00  0.00    +0.019 C 
BRANCH  20  34
ATOM     21  C   UNL     1       3.471  -4.700   3.777  0.00  0.00    +0.029 C 
ATOM     22  C   UNL     1       2.095  -4.115   4.099  0.00  0.00    +0.087 C 
ATOM     23  C   UNL     1       1.231  -5.180   4.785  0.00  0.00    +0.118 C 
ATOM     24  C   UNL     1      -0.220  -4.779   4.748  0.00  0.00    +0.219 C 
ATOM     25  O   UNL     1      -0.754  -4.355   5.751  0.00  0.00    -0.275 OA
ATOM     26  N   UNL     1      -0.930  -4.887   3.604  0.00  0.00    -0.284 N 
ATOM     27  C   UNL     1      -0.306  -5.282   2.416  0.00  0.00    +0.055 A 
ATOM     28  C   UNL     1      -0.863  -6.264   1.613  0.00  0.00    +0.025 A 
ATOM     29  C   UNL     1      -0.258  -6.599   0.416  0.00  0.00    +0.002 A 
ATOM     30  C   UNL     1       0.901  -5.957   0.017  0.00  0.00    +0.002 A 
ATOM     31  C   UNL     1       1.469  -4.984   0.818  0.00  0.00    +0.025 A 
ATOM     32  C   UNL     1       0.874  -4.649   2.023  0.00  0.00    +0.058 A 
ATOM     33  N   UNL     1       1.448  -3.681   2.860  0.00  0.00    -0.268 N 
ATOM     34  C   UNL     1       1.410  -2.376   2.526  0.00  0.00    +0.204 C 
ATOM     35  O   UNL     1       1.910  -1.548   3.257  0.00  0.00    -0.277 OA
ATOM     36  H   UNL     1      -1.880  -4.689   3.607  0.00  0.00    +0.155 HD
ENDBRANCH  20  34
ENDBRANCH   6  20
TORSDOF 5
