REMARK  Name = ZINC14515132
REMARK  9 active torsions:
REMARK  status: ('A' for Active; 'I' for Inactive)
REMARK    1  A    between atoms: C_1  and  C_2
REMARK    2  A    between atoms: C_7  and  C_9
REMARK    3  A    between atoms: C_7  and  C_25
REMARK    4  A    between atoms: C_7  and  N_57
REMARK    5  A    between atoms: C_9  and  N_10
REMARK    6  A    between atoms: C_11  and  C_13
REMARK    7  A    between atoms: C_13  and  C_14
REMARK    8  A    between atoms: C_14  and  N_15
REMARK    9  A    between atoms: C_16  and  C_18
REMARK                            x       y       z     vdW  Elec       q    Type
REMARK                         _______ _______ _______ _____ _____    ______ ____
ROOT
ATOM      1  N   UNL     1      -0.175   1.285   0.709  0.00  0.00    -0.316 N 
ATOM      2  C   UNL     1       0.800   2.105   1.148  0.00  0.00    +0.214 C 
ATOM      3  O   UNL     1       0.550   3.266   1.395  0.00  0.00    -0.276 OA
ATOM      4  H   UNL     1       0.025   0.356   0.511  0.00  0.00    +0.149 HD
ENDROOT
BRANCH   1   5
ATOM      5  C   UNL     1      -1.535   1.796   0.525  0.00  0.00    +0.094 C 
BRANCH   5   6
ATOM      6  C   UNL     1      -2.439   0.671   0.017  0.00  0.00    -0.013 C 
BRANCH   6  13
ATOM      7  C   UNL     1      -3.034  -3.541   3.835  0.00  0.00    +0.007 C 
ATOM      8  C   UNL     1      -3.297  -2.325   2.945  0.00  0.00    -0.018 C 
ATOM      9  C   UNL     1      -3.155  -2.727   1.474  0.00  0.00    -0.015 C 
ATOM     10  C   UNL     1      -3.359  -1.493   0.591  0.00  0.00    -0.078 C 
ATOM     11  C   UNL     1      -2.510  -0.036   2.332  0.00  0.00    -0.078 C 
ATOM     12  C   UNL     1      -2.281  -1.226   3.266  0.00  0.00    -0.015 C 
ATOM     13  N   UNL     1      -2.335  -0.483   0.933  0.00  0.00    +0.386 N 
ATOM     14  H   UNL     1      -1.404  -0.905   0.833  0.00  0.00    -0.081 HD
ENDBRANCH   6  13
BRANCH   6  15
ATOM     15  C   UNL     1      -3.861   1.163  -0.055  0.00  0.00    -0.022 A 
ATOM     16  C   UNL     1      -4.610   1.454  -1.147  0.00  0.00    +0.009 A 
ATOM     17  C   UNL     1      -5.908   1.895  -0.972  0.00  0.00    +0.008 A 
ATOM     18  C   UNL     1      -6.394   2.024   0.286  0.00  0.00    +0.045 A 
ATOM     19  S   UNL     1      -5.001   1.508   1.276  0.00  0.00    -0.103 S 
ENDBRANCH   6  15
ENDBRANCH   5   6
ENDBRANCH   1   5
BRANCH   2  20
ATOM     20  C   UNL     1       2.201   1.581   1.331  0.00  0.00    +0.114 C 
BRANCH  20  21
ATOM     21  C   UNL     1       3.106   2.707   1.834  0.00  0.00    +0.113 C 
BRANCH  21  22
ATOM     22  N   UNL     1       4.468   2.197   2.012  0.00  0.00    -0.311 N 
ATOM     23  C   UNL     1       5.443   3.018   2.450  0.00  0.00    +0.244 C 
ATOM     24  O   UNL     1       5.192   4.181   2.698  0.00  0.00    -0.270 OA
ATOM     25  H   UNL     1       4.668   1.269   1.814  0.00  0.00    +0.149 HD
BRANCH  23  26
ATOM     26  C   UNL     1       6.816   2.503   2.630  0.00  0.00    +0.037 A 
ATOM     27  C   UNL     1       7.106   1.166   2.351  0.00  0.00    +0.014 A 
ATOM     28  C   UNL     1       8.391   0.693   2.515  0.00  0.00    +0.021 A 
ATOM     29  C   UNL     1       9.391   1.539   2.966  0.00  0.00    +0.041 A 
ATOM     30  C   UNL     1       9.108   2.865   3.249  0.00  0.00    +0.021 A 
ATOM     31  C   UNL     1       7.829   3.351   3.084  0.00  0.00    +0.014 A 
ATOM     32 CL   UNL     1      11.005   0.934   3.176  0.00  0.00    -0.084 Cl
ENDBRANCH  23  26
ENDBRANCH  21  22
ENDBRANCH  20  21
ENDBRANCH   2  20
TORSDOF 8
