REMARK  Name = ZINC11785304
REMARK  10 active torsions:
REMARK  status: ('A' for Active; 'I' for Inactive)
REMARK    1  A    between atoms: C_1  and  C_2
REMARK    2  A    between atoms: C_3  and  C_18
REMARK    3  A    between atoms: C_5  and  C_7
REMARK    4  A    between atoms: C_12  and  N_13
REMARK    5  A    between atoms: N_13  and  S_14
REMARK    6  A    between atoms: S_14  and  C_17
REMARK    7  A    between atoms: C_18  and  N_55
REMARK    8  A    between atoms: C_19  and  N_55
REMARK    9  A    between atoms: C_20  and  C_21
REMARK   10  A    between atoms: C_20  and  N_55
REMARK                            x       y       z     vdW  Elec       q    Type
REMARK                         _______ _______ _______ _____ _____    ______ ____
ROOT
ATOM      1  C   UNL     1      -4.418  -2.026  -0.169  0.00  0.00    +0.088 C 
ATOM      2  C   UNL     1      -3.917  -0.616   0.006  0.00  0.00    +0.124 A 
ATOM      3  C   UNL     1      -4.672   0.484   0.169  0.00  0.00    +0.066 A 
ATOM      4  N   UNL     1      -3.847   1.536   0.290  0.00  0.00    -0.216 NA
ATOM      5  C   UNL     1      -2.608   1.109   0.206  0.00  0.00    +0.229 A 
ATOM      6  O   UNL     1      -2.627  -0.223   0.025  0.00  0.00    -0.440 OA
ENDROOT
BRANCH   5   7
ATOM      7  C   UNL     1      -1.399   1.951   0.290  0.00  0.00    +0.059 A 
ATOM      8  C   UNL     1      -1.514   3.329   0.480  0.00  0.00    +0.015 A 
ATOM      9  C   UNL     1      -0.381   4.111   0.553  0.00  0.00    +0.001 A 
ATOM     10  C   UNL     1       0.874   3.536   0.444  0.00  0.00    +0.002 A 
ATOM     11  C   UNL     1       1.004   2.173   0.261  0.00  0.00    +0.025 A 
ATOM     12  C   UNL     1      -0.127   1.371   0.186  0.00  0.00    +0.060 A 
BRANCH  12  13
ATOM     13  N   UNL     1       0.002  -0.004   0.002  0.00  0.00    -0.220 N 
ATOM     14  H   UNL     1      -0.646  -0.484  -0.537  0.00  0.00    +0.173 HD
BRANCH  13  15
ATOM     15  S   UNL     1       1.262  -0.819   0.703  0.00  0.00    +0.040 S 
ATOM     16  O   UNL     1       1.030  -2.185   0.388  0.00  0.00    -0.155 OA
ATOM     17  O   UNL     1       2.428  -0.156   0.234  0.00  0.00    -0.155 OA
ATOM     18  C   UNL     1       1.061  -0.545   2.485  0.00  0.00    +0.218 C 
ENDBRANCH  13  15
ENDBRANCH  12  13
ENDBRANCH   5   7
BRANCH   3  19
ATOM     19  C   UNL     1      -6.178   0.529   0.207  0.00  0.00    -0.019 C 
BRANCH  19  21
ATOM     20  C   UNL     1      -6.322   2.047  -1.674  0.00  0.00    -0.095 C 
ATOM     21  N   UNL     1      -6.686   0.706  -1.170  0.00  0.00    +0.384 N 
ATOM     22  H   UNL     1      -6.260  -0.005  -1.776  0.00  0.00    -0.081 HD
BRANCH  21  23
ATOM     23  C   UNL     1      -8.154   0.538  -1.192  0.00  0.00    -0.036 C 
BRANCH  23  24
ATOM     24  C   UNL     1      -8.617   0.503  -2.626  0.00  0.00    +0.018 A 
ATOM     25  C   UNL     1      -9.162   1.597  -3.188  0.00  0.00    +0.201 A 
ATOM     26  O   UNL     1      -9.590   1.625  -4.455  0.00  0.00    -0.462 OA
ATOM     27  C   UNL     1      -9.508   0.553  -5.269  0.00  0.00    +0.138 A 
ATOM     28  C   UNL     1      -9.962   0.615  -6.581  0.00  0.00    +0.047 A 
ATOM     29  C   UNL     1      -9.866  -0.493  -7.395  0.00  0.00    +0.004 A 
ATOM     30  C   UNL     1      -9.320  -1.677  -6.918  0.00  0.00    +0.001 A 
ATOM     31  C   UNL     1      -8.864  -1.759  -5.621  0.00  0.00    +0.015 A 
ATOM     32  C   UNL     1      -8.956  -0.645  -4.789  0.00  0.00    +0.064 A 
ATOM     33  C   UNL     1      -8.476  -0.683  -3.393  0.00  0.00    +0.194 A 
ATOM     34  O   UNL     1      -7.982  -1.692  -2.919  0.00  0.00    -0.287 OA
ENDBRANCH  23  24
ENDBRANCH  21  23
ENDBRANCH  19  21
ENDBRANCH   3  19
TORSDOF 7
