REMARK  Name = ZINC45599310
REMARK  7 active torsions:
REMARK  status: ('A' for Active; 'I' for Inactive)
REMARK    1  A    between atoms: C_1  and  C_2
REMARK    2  A    between atoms: C_2  and  C_4
REMARK    3  A    between atoms: C_2  and  O_25
REMARK    4  A    between atoms: C_4  and  O_6
REMARK    5  A    between atoms: O_6  and  C_7
REMARK    6  A    between atoms: C_7  and  C_8
REMARK    7  A    between atoms: O_25  and  C_26
REMARK                            x       y       z     vdW  Elec       q    Type
REMARK                         _______ _______ _______ _____ _____    ______ ____
ROOT
ATOM      1  C   UNL     1      -4.461  -0.519   1.891  0.00  0.00    +0.258 C 
ATOM      2  O   UNL     1      -4.073   0.360   2.631  0.00  0.00    -0.271 OA
ATOM      3  N   UNL     1      -5.719  -0.990   2.006  0.00  0.00    -0.252 N 
ATOM      4  C   UNL     1      -6.240  -1.897   1.069  0.00  0.00    +0.059 A 
ATOM      5  C   UNL     1      -5.786  -1.911  -0.238  0.00  0.00    +0.025 A 
ATOM      6  C   UNL     1      -6.319  -2.813  -1.141  0.00  0.00    +0.002 A 
ATOM      7  C   UNL     1      -7.304  -3.698  -0.739  0.00  0.00    +0.002 A 
ATOM      8  C   UNL     1      -7.762  -3.689   0.565  0.00  0.00    +0.025 A 
ATOM      9  C   UNL     1      -7.232  -2.790   1.478  0.00  0.00    +0.055 A 
ATOM     10  N   UNL     1      -7.677  -2.775   2.804  0.00  0.00    -0.282 N 
ATOM     11  C   UNL     1      -7.372  -1.748   3.621  0.00  0.00    +0.241 C 
ATOM     12  O   UNL     1      -7.736  -1.771   4.777  0.00  0.00    -0.273 OA
ATOM     13  C   UNL     1      -6.582  -0.576   3.116  0.00  0.00    +0.118 C 
ATOM     14  C   UNL     1      -7.538   0.535   2.647  0.00  0.00    +0.036 C 
ATOM     15  C   UNL     1      -7.638   1.486   3.866  0.00  0.00    +0.003 C 
ATOM     16  C   UNL     1      -6.196   1.474   4.431  0.00  0.00    +0.003 C 
ATOM     17  C   UNL     1      -5.731   0.013   4.250  0.00  0.00    +0.036 C 
ATOM     18  H   UNL     1      -8.212  -3.512   3.139  0.00  0.00    +0.155 HD
ENDROOT
BRANCH   1  19
ATOM     19  C   UNL     1      -3.537  -1.084   0.844  0.00  0.00    +0.328 C 
BRANCH  19  20
ATOM     20  O   UNL     1      -2.182  -0.806   1.203  0.00  0.00    -0.453 OA
BRANCH  20  21
ATOM     21  C   UNL     1      -1.228  -1.246   0.368  0.00  0.00    +0.348 C 
ATOM     22  O   UNL     1      -1.532  -1.847  -0.635  0.00  0.00    -0.247 OA
BRANCH  21  24
ATOM     23  C   UNL     1       0.496   0.516   0.639  0.00  0.00    +0.064 C 
ATOM     24  C   UNL     1       0.224  -0.989   0.681  0.00  0.00    +0.278 C 
BRANCH  24  25
ATOM     25  O   UNL     1       1.044  -1.649  -0.286  0.00  0.00    -0.478 OA
BRANCH  25  26
ATOM     26  C   UNL     1       2.307  -1.974   0.096  0.00  0.00    +0.122 A 
ATOM     27  C   UNL     1       2.783  -1.575   1.336  0.00  0.00    +0.045 A 
ATOM     28  C   UNL     1       4.067  -1.907   1.721  0.00  0.00    +0.004 A 
ATOM     29  C   UNL     1       4.878  -2.637   0.872  0.00  0.00    +0.000 A 
ATOM     30  C   UNL     1       4.406  -3.036  -0.365  0.00  0.00    +0.004 A 
ATOM     31  C   UNL     1       3.120  -2.712  -0.753  0.00  0.00    +0.045 A 
ENDBRANCH  25  26
ENDBRANCH  24  25
ENDBRANCH  21  24
ENDBRANCH  20  21
ENDBRANCH  19  20
ENDBRANCH   1  19
TORSDOF 6
