REMARK  Name = ZINC35671622
REMARK  10 active torsions:
REMARK  status: ('A' for Active; 'I' for Inactive)
REMARK    1  A    between atoms: C_5  and  C_7
REMARK    2  A    between atoms: C_7  and  O_8
REMARK    3  A    between atoms: O_8  and  C_9
REMARK    4  A    between atoms: C_12  and  C_15
REMARK    5  A    between atoms: C_17  and  C_35
REMARK    6  A    between atoms: C_18  and  N_20
REMARK    7  A    between atoms: N_20  and  C_21
REMARK    8  A    between atoms: C_21  and  C_22
REMARK    9  A    between atoms: C_22  and  C_24
REMARK   10  A    between atoms: C_22  and  N_29
REMARK                            x       y       z     vdW  Elec       q    Type
REMARK                         _______ _______ _______ _____ _____    ______ ____
ROOT
ATOM      1  C   UNL     1      -0.765  -8.284  -0.665  0.00  0.00    +0.231 A 
ATOM      2  N   UNL     1       0.205  -9.144  -0.490  0.00  0.00    -0.196 NA
ATOM      3  C   UNL     1      -0.339 -10.373  -0.279  0.00  0.00    +0.201 A 
ATOM      4  C   UNL     1      -1.715 -10.220  -0.333  0.00  0.00    +0.225 A 
ATOM      5  O   UNL     1      -1.950  -8.916  -0.568  0.00  0.00    -0.421 OA
ENDROOT
BRANCH   1   9
ATOM      6  C   UNL     1      -0.254  -4.132  -1.407  0.00  0.00    +0.121 A 
ATOM      7  C   UNL     1       0.858  -4.949  -1.244  0.00  0.00    +0.046 A 
ATOM      8  C   UNL     1       0.696  -6.296  -1.003  0.00  0.00    +0.017 A 
ATOM      9  C   UNL     1      -0.587  -6.840  -0.923  0.00  0.00    +0.037 A 
ATOM     10  C   UNL     1      -1.702  -6.016  -1.088  0.00  0.00    +0.017 A 
ATOM     11  C   UNL     1      -1.532  -4.669  -1.323  0.00  0.00    +0.046 A 
BRANCH   6  12
ATOM     12  O   UNL     1      -0.090  -2.805  -1.644  0.00  0.00    -0.487 OA
BRANCH  12  13
ATOM     13  C   UNL     1       1.252  -2.319  -1.718  0.00  0.00    +0.266 C 
BRANCH  13  18
ATOM     14  C   UNL     1       0.016   1.189  -2.363  0.00  0.00    +0.000 A 
ATOM     15  C   UNL     1       1.205   1.885  -2.476  0.00  0.00    +0.001 A 
ATOM     16  C   UNL     1       2.410   1.221  -2.344  0.00  0.00    +0.020 A 
ATOM     17  C   UNL     1       2.425  -0.141  -2.099  0.00  0.00    +0.047 A 
ATOM     18  C   UNL     1       1.235  -0.836  -1.985  0.00  0.00    +0.008 A 
ATOM     19  C   UNL     1       0.031  -0.171  -2.118  0.00  0.00    +0.008 A 
ATOM     20 CL   UNL     1       3.938  -0.976  -1.934  0.00  0.00    -0.083 Cl
ENDBRANCH  13  18
ENDBRANCH  12  13
ENDBRANCH   6  12
ENDBRANCH   1   9
BRANCH   4  21
ATOM     21  N   UNL     1      -2.660 -11.210  -0.172  0.00  0.00    -0.314 N 
ATOM     22  H   UNL     1      -2.381 -12.123  -0.002  0.00  0.00    +0.149 HD
BRANCH  21  23
ATOM     23  C   UNL     1      -4.085 -10.883  -0.259  0.00  0.00    +0.094 C 
BRANCH  23  24
ATOM     24  C   UNL     1      -4.909 -12.170  -0.177  0.00  0.00    -0.013 C 
BRANCH  24  25
ATOM     25  N   UNL     1      -6.340 -11.836  -0.174  0.00  0.00    +0.386 N 
ATOM     26  C   UNL     1      -6.655 -11.049   1.024  0.00  0.00    -0.078 C 
ATOM     27  C   UNL     1      -8.127 -10.630   0.990  0.00  0.00    -0.019 C 
ATOM     28  C   UNL     1      -9.008 -11.882   0.953  0.00  0.00    -0.004 C 
ATOM     29  C   UNL     1      -8.619 -12.732  -0.259  0.00  0.00    -0.019 C 
ATOM     30  C   UNL     1      -7.130 -13.073  -0.180  0.00  0.00    -0.078 C 
ATOM     31  H   UNL     1      -6.559 -11.295  -0.997  0.00  0.00    -0.081 HD
ENDBRANCH  24  25
BRANCH  24  32
ATOM     32  C   UNL     1      -4.599 -13.043  -1.365  0.00  0.00    -0.022 A 
ATOM     33  C   UNL     1      -3.781 -14.121  -1.443  0.00  0.00    +0.009 A 
ATOM     34  C   UNL     1      -3.648 -14.776  -2.652  0.00  0.00    +0.008 A 
ATOM     35  C   UNL     1      -4.339 -14.321  -3.726  0.00  0.00    +0.045 A 
ATOM     36  S   UNL     1      -5.219 -12.929  -3.036  0.00  0.00    -0.103 S 
ENDBRANCH  24  32
ENDBRANCH  23  24
ENDBRANCH  21  23
ENDBRANCH   4  21
BRANCH   3  37
ATOM     37  C   UNL     1       0.375 -11.592  -0.044  0.00  0.00    +0.124 C 
ATOM     38  N   UNL     1       0.942 -12.559   0.141  0.00  0.00    -0.189 NA
ENDBRANCH   3  37
TORSDOF 10
