REMARK  Name = ZINC63110837
REMARK  5 active torsions:
REMARK  status: ('A' for Active; 'I' for Inactive)
REMARK    1  A    between atoms: C_1  and  C_2
REMARK    2  A    between atoms: C_2  and  O_3
REMARK    3  A    between atoms: O_3  and  C_4
REMARK    4  A    between atoms: C_4  and  C_6
REMARK    5  A    between atoms: C_10  and  N_16
REMARK                            x       y       z     vdW  Elec       q    Type
REMARK                         _______ _______ _______ _____ _____    ______ ____
ROOT
ATOM      1  C   UNL     1      -2.845  -2.417   0.016  0.00  0.00    +0.140 A 
ATOM      2  C   UNL     1      -3.133  -3.747   0.017  0.00  0.00    +0.057 A 
ATOM      3  C   UNL     1      -4.543  -3.883   0.028  0.00  0.00    +0.017 A 
ATOM      4  C   UNL     1      -5.403  -4.989   0.034  0.00  0.00    +0.043 A 
ATOM      5  C   UNL     1      -6.754  -4.799   0.044  0.00  0.00    +0.127 A 
ATOM      6  C   UNL     1      -7.288  -3.516   0.049  0.00  0.00    +0.035 A 
ATOM      7  C   UNL     1      -6.464  -2.413   0.043  0.00  0.00    +0.028 A 
ATOM      8  C   UNL     1      -5.082  -2.581   0.033  0.00  0.00    +0.048 A 
ATOM      9  N   UNL     1      -4.027  -1.699   0.032  0.00  0.00    -0.348 N 
ATOM     10  H   UNL     1      -4.101  -0.732   0.038  0.00  0.00    +0.166 HD
ATOM     11 BR   UNL     1      -1.877  -5.161   0.006  0.00  0.00    -0.047 Br
ENDROOT
BRANCH   5  12
ATOM     12  N   UNL     1      -7.659  -5.970   0.050  0.00  0.00    +0.056 N 
ATOM     13  O   UNL     1      -7.200  -7.089   0.045  0.00  0.00    -0.126 OA
ATOM     14  O   UNL     1      -8.857  -5.808   0.059  0.00  0.00    -0.126 OA
ENDBRANCH   5  12
BRANCH   1  15
ATOM     15  C   UNL     1      -1.497  -1.838   0.006  0.00  0.00    +0.357 C 
ATOM     16  O   UNL     1      -0.523  -2.566  -0.007  0.00  0.00    -0.243 OA
BRANCH  15  17
ATOM     17  O   UNL     1      -1.339  -0.499   0.012  0.00  0.00    -0.460 OA
BRANCH  17  19
ATOM     18  C   UNL     1      -0.019   1.526   0.010  0.00  0.00    +0.048 C 
ATOM     19  C   UNL     1       0.002  -0.004   0.002  0.00  0.00    +0.229 C 
ENDBRANCH  17  19
ENDBRANCH  15  17
ENDBRANCH   1  15
TORSDOF 4
