REMARK  Name = ZINC20571652
REMARK  4 active torsions:
REMARK  status: ('A' for Active; 'I' for Inactive)
REMARK    1  A    between atoms: C_3  and  N_18
REMARK    2  A    between atoms: C_6  and  C_7
REMARK    3  A    between atoms: N_18  and  S_19
REMARK    4  A    between atoms: S_19  and  C_22
REMARK                            x       y       z     vdW  Elec       q    Type
REMARK                         _______ _______ _______ _____ _____    ______ ____
ROOT
ATOM      1  C   UNL     1       3.456  -3.165  -4.348  0.00  0.00    +0.015 A 
ATOM      2  C   UNL     1       2.465  -3.472  -3.444  0.00  0.00    +0.025 A 
ATOM      3  C   UNL     1       2.113  -2.556  -2.457  0.00  0.00    +0.048 A 
ATOM      4  C   UNL     1       2.758  -1.325  -2.384  0.00  0.00    +0.025 A 
ATOM      5  C   UNL     1       3.753  -1.013  -3.281  0.00  0.00    +0.015 A 
ATOM      6  C   UNL     1       4.109  -1.931  -4.274  0.00  0.00    +0.037 A 
ENDROOT
BRANCH   6   7
ATOM      7  C   UNL     1       5.171  -1.598  -5.242  0.00  0.00    +0.250 C 
ATOM      8  O   UNL     1       5.479  -2.397  -6.106  0.00  0.00    -0.270 OA
ATOM      9  N   UNL     1       5.800  -0.408  -5.170  0.00  0.00    -0.261 N 
ATOM     10  C   UNL     1       6.800  -0.094  -6.081  0.00  0.00    +0.165 A 
ATOM     11  N   UNL     1       7.273  -0.818  -7.069  0.00  0.00    -0.229 NA
ATOM     12  C   UNL     1       8.248  -0.376  -7.878  0.00  0.00    +0.054 A 
ATOM     13  C   UNL     1       8.726   0.861  -7.607  0.00  0.00    +0.014 A 
ATOM     14  S   UNL     1       7.753   1.353  -6.202  0.00  0.00    -0.057 S 
ATOM     15  C   UNL     1       9.810   1.272  -8.555  0.00  0.00    +0.045 C 
ATOM     16  C   UNL     1       9.675   0.297  -9.747  0.00  0.00    +0.011 C 
ATOM     17  C   UNL     1       9.012  -0.926  -9.083  0.00  0.00    +0.056 C 
ATOM     18  H   UNL     1       5.521   0.315  -4.388  0.00  0.00    +0.157 HD
ENDBRANCH   6   7
BRANCH   3  19
ATOM     19  N   UNL     1       1.111  -2.870  -1.545  0.00  0.00    -0.216 N 
ATOM     20  H   UNL     1       0.121  -2.397  -1.631  0.00  0.00    +0.174 HD
BRANCH  19  21
ATOM     21  S   UNL     1       1.408  -3.954  -0.329  0.00  0.00    +0.072 S 
ATOM     22  O   UNL     1       1.972  -5.106  -0.941  0.00  0.00    -0.150 OA
ATOM     23  O   UNL     1       0.228  -4.012   0.461  0.00  0.00    -0.150 OA
BRANCH  21  24
ATOM     24  C   UNL     1       2.665  -3.261   0.693  0.00  0.00    +0.109 A 
ATOM     25  C   UNL     1       2.326  -2.375   1.699  0.00  0.00    +0.030 A 
ATOM     26  C   UNL     1       3.312  -1.831   2.501  0.00  0.00    +0.022 A 
ATOM     27  C   UNL     1       4.637  -2.172   2.296  0.00  0.00    +0.041 A 
ATOM     28  C   UNL     1       4.975  -3.058   1.288  0.00  0.00    +0.022 A 
ATOM     29  C   UNL     1       3.989  -3.602   0.487  0.00  0.00    +0.030 A 
ATOM     30 CL   UNL     1       5.875  -1.489   3.303  0.00  0.00    -0.084 Cl
ENDBRANCH  21  24
ENDBRANCH  19  21
ENDBRANCH   3  19
TORSDOF 4
