REMARK  Name = ZINC12473013
REMARK  14 active torsions:
REMARK  status: ('A' for Active; 'I' for Inactive)
REMARK    1  A    between atoms: C_1  and  C_2
REMARK    2  A    between atoms: C_7  and  C_8
REMARK    3  A    between atoms: C_8  and  C_9
REMARK    4  A    between atoms: C_9  and  N_10
REMARK    5  A    between atoms: N_10  and  C_11
REMARK    6  A    between atoms: C_11  and  C_13
REMARK    7  A    between atoms: C_11  and  C_20
REMARK    8  A    between atoms: N_22  and  C_23
REMARK    9  A    between atoms: C_23  and  C_24
REMARK   10  A    between atoms: C_23  and  C_25
REMARK   11  A    between atoms: C_23  and  C_26
REMARK   12  A    between atoms: C_27  and  C_29
REMARK   13  A    between atoms: C_30  and  N_37
REMARK   14  A    between atoms: C_31  and  C_34
REMARK                            x       y       z     vdW  Elec       q    Type
REMARK                         _______ _______ _______ _____ _____    ______ ____
ROOT
ATOM      1  N   UNL     1      -2.921  -2.397  -1.415  0.00  0.00    -0.281 N 
ATOM      2  C   UNL     1      -4.026  -1.633  -1.530  0.00  0.00    +0.257 C 
ATOM      3  O   UNL     1      -3.971  -0.568  -2.118  0.00  0.00    -0.269 OA
ENDROOT
BRANCH   2   4
ATOM      4  C   UNL     1      -5.292  -2.083  -0.948  0.00  0.00    +0.115 A 
ATOM      5  C   UNL     1      -6.499  -1.396  -0.816  0.00  0.00    +0.076 A 
ATOM      6  C   UNL     1      -7.489  -2.167  -0.206  0.00  0.00    +0.155 A 
ATOM      7  N   UNL     1      -7.206  -3.393   0.174  0.00  0.00    -0.203 NA
ATOM      8  S   UNL     1      -5.700  -3.652  -0.212  0.00  0.00    +0.019 S 
BRANCH   6   9
ATOM      9  C   UNL     1      -8.836  -1.610   0.015  0.00  0.00    +0.262 C 
ATOM     10  O   UNL     1      -9.091  -0.475  -0.340  0.00  0.00    -0.269 OA
ATOM     11  N   UNL     1      -9.786  -2.359   0.610  0.00  0.00    -0.324 N 
ATOM     12  H   UNL     1      -9.582  -3.265   0.892  0.00  0.00    +0.145 HD
ATOM     13  H   UNL     1     -10.672  -1.993   0.755  0.00  0.00    +0.145 HD
ENDBRANCH   6   9
BRANCH   5  14
ATOM     14  N   UNL     1      -6.695  -0.090  -1.247  0.00  0.00    -0.355 N 
ATOM     15  H   UNL     1      -5.968   0.395  -1.668  0.00  0.00    +0.142 HD
ATOM     16  H   UNL     1      -7.558   0.336  -1.128  0.00  0.00    +0.142 HD
ENDBRANCH   5  14
ENDBRANCH   2   4
BRANCH   1  17
ATOM     17  C   UNL     1      -1.646  -1.929  -1.964  0.00  0.00    +0.114 C 
BRANCH  17  18
ATOM     18  C   UNL     1      -0.899  -1.122  -0.900  0.00  0.00    +0.054 C 
BRANCH  18  25
ATOM     19  C   UNL     1      -0.676   1.280  -2.489  0.00  0.00    +0.044 C 
ATOM     20  C   UNL     1       0.550   0.452  -2.199  0.00  0.00    -0.047 A 
ATOM     21  C   UNL     1       1.780   0.841  -2.695  0.00  0.00    +0.003 A 
ATOM     22  C   UNL     1       2.903   0.078  -2.435  0.00  0.00    +0.000 A 
ATOM     23  C   UNL     1       2.796  -1.073  -1.677  0.00  0.00    +0.000 A 
ATOM     24  C   UNL     1       1.566  -1.461  -1.180  0.00  0.00    +0.004 A 
ATOM     25  C   UNL     1       0.442  -0.699  -1.441  0.00  0.00    -0.043 A 
ENDBRANCH  18  25
ENDBRANCH  17  18
ENDBRANCH   1  17
BRANCH   1  26
ATOM     26  C   UNL     1      -2.996  -3.696  -0.742  0.00  0.00    +0.192 C 
BRANCH  26  27
ATOM     27  C   UNL     1      -3.249  -3.485   0.729  0.00  0.00    -0.018 A 
ATOM     28  C   UNL     1      -2.941  -2.272   1.316  0.00  0.00    +0.009 A 
ATOM     29  C   UNL     1      -3.177  -2.076   2.663  0.00  0.00    +0.038 A 
ATOM     30  C   UNL     1      -3.712  -3.099   3.428  0.00  0.00    +0.123 A 
ATOM     31  C   UNL     1      -4.015  -4.315   2.840  0.00  0.00    +0.038 A 
ATOM     32  C   UNL     1      -3.783  -4.507   1.491  0.00  0.00    +0.009 A 
ATOM     33  F   UNL     1      -3.938  -2.910   4.746  0.00  0.00    -0.205 F 
ENDBRANCH  26  27
BRANCH  26  34
ATOM     34  C   UNL     1      -1.695  -4.433  -0.927  0.00  0.00    +0.238 C 
ATOM     35  O   UNL     1      -0.644  -3.878  -0.689  0.00  0.00    -0.273 OA
ATOM     36  N   UNL     1      -1.700  -5.711  -1.358  0.00  0.00    -0.309 N 
ATOM     37  H   UNL     1      -2.541  -6.155  -1.548  0.00  0.00    +0.149 HD
BRANCH  36  38
ATOM     38  C   UNL     1      -0.435  -6.428  -1.538  0.00  0.00    +0.026 C 
ATOM     39  C   UNL     1       0.310  -6.490  -0.203  0.00  0.00    +0.031 C 
ATOM     40  C   UNL     1      -0.720  -7.848  -2.030  0.00  0.00    +0.031 C 
ATOM     41  C   UNL     1       0.425  -5.694  -2.569  0.00  0.00    +0.031 C 
ENDBRANCH  36  38
ENDBRANCH  26  34
ENDBRANCH   1  26
TORSDOF 10
