REMARK  Name = ZINC36493592
REMARK  13 active torsions:
REMARK  status: ('A' for Active; 'I' for Inactive)
REMARK    1  A    between atoms: C_1  and  C_2
REMARK    2  A    between atoms: C_2  and  C_3
REMARK    3  A    between atoms: C_3  and  C_4
REMARK    4  A    between atoms: C_4  and  C_5
REMARK    5  A    between atoms: N_7  and  C_8
REMARK    6  A    between atoms: N_7  and  C_14
REMARK    7  A    between atoms: C_14  and  C_16
REMARK    8  A    between atoms: C_14  and  C_25
REMARK    9  A    between atoms: C_19  and  N_22
REMARK   10  A    between atoms: N_27  and  C_28
REMARK   11  A    between atoms: C_28  and  S_29
REMARK   12  A    between atoms: S_29  and  C_32
REMARK   13  A    between atoms: C_35  and  C_38
REMARK                            x       y       z     vdW  Elec       q    Type
REMARK                         _______ _______ _______ _____ _____    ______ ____
ROOT
ATOM      1  C   UNL     1       2.517  -4.425  -3.869  0.00  0.00    +0.192 C 
ENDROOT
BRANCH   1   2
ATOM      2  C   UNL     1       3.611  -5.134  -3.113  0.00  0.00    -0.018 A 
ATOM      3  C   UNL     1       3.884  -6.463  -3.378  0.00  0.00    +0.008 A 
ATOM      4  C   UNL     1       4.888  -7.114  -2.685  0.00  0.00    +0.033 A 
ATOM      5  C   UNL     1       5.619  -6.436  -1.728  0.00  0.00    +0.126 A 
ATOM      6  C   UNL     1       5.346  -5.106  -1.464  0.00  0.00    +0.033 A 
ATOM      7  C   UNL     1       4.346  -4.455  -2.159  0.00  0.00    +0.008 A 
BRANCH   5   8
ATOM      8  N   UNL     1       6.693  -7.133  -0.986  0.00  0.00    +0.056 N 
ATOM      9  O   UNL     1       6.931  -8.296  -1.216  0.00  0.00    -0.126 OA
ATOM     10  O   UNL     1       7.332  -6.540  -0.148  0.00  0.00    -0.126 OA
ENDBRANCH   5   8
ENDBRANCH   1   2
BRANCH   1  11
ATOM     11  C   UNL     1       1.791  -5.412  -4.746  0.00  0.00    +0.239 C 
ATOM     12  O   UNL     1       0.605  -5.606  -4.587  0.00  0.00    -0.273 OA
ATOM     13  N   UNL     1       2.460  -6.078  -5.708  0.00  0.00    -0.294 N 
ATOM     14  H   UNL     1       3.409  -5.922  -5.835  0.00  0.00    +0.150 HD
BRANCH  13  15
ATOM     15  C   UNL     1       1.755  -7.037  -6.561  0.00  0.00    +0.278 C 
BRANCH  15  16
ATOM     16  S   UNL     1       1.238  -6.216  -8.094  0.00  0.00    +0.013 S 
ATOM     17  O   UNL     1       0.607  -7.150  -8.960  0.00  0.00    -0.168 OA
ATOM     18  O   UNL     1       0.621  -4.971  -7.798  0.00  0.00    -0.168 OA
BRANCH  16  19
ATOM     19  C   UNL     1       2.741  -5.791  -8.909  0.00  0.00    +0.090 A 
ATOM     20  C   UNL     1       3.340  -4.571  -8.662  0.00  0.00    +0.027 A 
ATOM     21  C   UNL     1       4.519  -4.237  -9.301  0.00  0.00    +0.005 A 
ATOM     22  C   UNL     1       5.099  -5.124 -10.188  0.00  0.00    -0.050 A 
ATOM     23  C   UNL     1       4.500  -6.346 -10.435  0.00  0.00    +0.005 A 
ATOM     24  C   UNL     1       3.324  -6.681  -9.792  0.00  0.00    +0.027 A 
ATOM     25  C   UNL     1       6.384  -4.760 -10.886  0.00  0.00    +0.044 C 
ENDBRANCH  16  19
ENDBRANCH  15  16
ENDBRANCH  13  15
ENDBRANCH   1  11
BRANCH   1  28
ATOM     26  C   UNL     1       1.331  -2.505  -2.949  0.00  0.00    +0.217 C 
ATOM     27  O   UNL     1       1.804  -1.822  -3.833  0.00  0.00    -0.276 OA
ATOM     28  N   UNL     1       1.574  -3.830  -2.918  0.00  0.00    -0.283 N 
BRANCH  28  29
ATOM     29  C   UNL     1       0.895  -4.677  -1.934  0.00  0.00    +0.077 C 
ATOM     30  C   UNL     1       1.489  -6.086  -1.977  0.00  0.00    +0.022 C 
ATOM     31  C   UNL     1       0.779  -6.970  -0.949  0.00  0.00    +0.002 C 
ATOM     32  C   UNL     1      -0.714  -7.036  -1.276  0.00  0.00    +0.000 C 
ATOM     33  C   UNL     1      -1.308  -5.626  -1.233  0.00  0.00    +0.002 C 
ATOM     34  C   UNL     1      -0.599  -4.742  -2.261  0.00  0.00    +0.022 C 
ENDBRANCH  28  29
BRANCH  26  35
ATOM     35  C   UNL     1       0.471  -1.872  -1.886  0.00  0.00    +0.096 C 
BRANCH  35  36
ATOM     36  C   UNL     1       0.492  -0.351  -2.052  0.00  0.00    +0.009 C 
BRANCH  36  38
ATOM     37  C   UNL     1      -0.359   1.813  -1.139  0.00  0.00    +0.004 C 
ATOM     38  C   UNL     1      -0.381   0.292  -0.973  0.00  0.00    -0.003 C 
ENDBRANCH  36  38
ENDBRANCH  35  36
ENDBRANCH  26  35
ENDBRANCH   1  28
TORSDOF 11
