REMARK  Name = ZINC36493791
REMARK  13 active torsions:
REMARK  status: ('A' for Active; 'I' for Inactive)
REMARK    1  A    between atoms: C_1  and  C_2
REMARK    2  A    between atoms: C_2  and  C_3
REMARK    3  A    between atoms: C_2  and  C_4
REMARK    4  A    between atoms: C_2  and  N_5
REMARK    5  A    between atoms: C_6  and  C_8
REMARK    6  A    between atoms: C_8  and  C_10
REMARK    7  A    between atoms: C_8  and  N_17
REMARK    8  A    between atoms: C_14  and  O_16
REMARK    9  A    between atoms: N_17  and  C_18
REMARK   10  A    between atoms: C_18  and  C_19
REMARK   11  A    between atoms: C_24  and  C_26
REMARK   12  A    between atoms: C_26  and  C_34
REMARK   13  A    between atoms: C_27  and  C_28
REMARK                            x       y       z     vdW  Elec       q    Type
REMARK                         _______ _______ _______ _____ _____    ______ ____
ROOT
ATOM      1  N   UNL     1       4.453   0.086  -3.156  0.00  0.00    -0.275 N 
ATOM      2  C   UNL     1       3.755   1.133  -3.641  0.00  0.00    +0.248 C 
ATOM      3  O   UNL     1       3.891   2.236  -3.147  0.00  0.00    -0.270 OA
ENDROOT
BRANCH   2   4
ATOM      4  C   UNL     1       2.829   0.940  -4.768  0.00  0.00    +0.045 C 
ATOM      5  C   UNL     1       2.994   1.655  -5.913  0.00  0.00    +0.021 C 
BRANCH   5   6
ATOM      6  C   UNL     1       1.984   1.580  -6.978  0.00  0.00    -0.024 A 
ATOM      7  C   UNL     1       0.632   1.420  -6.655  0.00  0.00    +0.008 A 
ATOM      8  C   UNL     1      -0.309   1.351  -7.660  0.00  0.00    +0.001 A 
ATOM      9  C   UNL     1       0.081   1.440  -8.986  0.00  0.00    +0.000 A 
ATOM     10  C   UNL     1       1.416   1.598  -9.314  0.00  0.00    +0.001 A 
ATOM     11  C   UNL     1       2.369   1.675  -8.320  0.00  0.00    +0.008 A 
ENDBRANCH   5   6
BRANCH   4  12
ATOM     12  C   UNL     1       1.718  -0.032  -4.656  0.00  0.00    -0.013 A 
ATOM     13  C   UNL     1       0.771   0.101  -3.640  0.00  0.00    +0.008 A 
ATOM     14  C   UNL     1      -0.262  -0.808  -3.541  0.00  0.00    +0.001 A 
ATOM     15  C   UNL     1      -0.361  -1.849  -4.446  0.00  0.00    +0.000 A 
ATOM     16  C   UNL     1       0.575  -1.986  -5.456  0.00  0.00    +0.001 A 
ATOM     17  C   UNL     1       1.609  -1.081  -5.570  0.00  0.00    +0.008 A 
ENDBRANCH   4  12
ENDBRANCH   2   4
BRANCH   1  18
ATOM     18  C   UNL     1       4.203  -1.262  -3.671  0.00  0.00    +0.193 C 
BRANCH  18  19
ATOM     19  C   UNL     1       5.411  -1.740  -4.434  0.00  0.00    -0.015 A 
ATOM     20  C   UNL     1       6.675  -1.589  -3.893  0.00  0.00    +0.006 A 
ATOM     21  C   UNL     1       7.785  -2.026  -4.591  0.00  0.00    +0.004 A 
ATOM     22  C   UNL     1       7.635  -2.616  -5.831  0.00  0.00    +0.045 A 
ATOM     23  C   UNL     1       6.369  -2.770  -6.376  0.00  0.00    +0.117 A 
ATOM     24  C   UNL     1       5.255  -2.335  -5.671  0.00  0.00    +0.051 A 
BRANCH  23  25
ATOM     25  O   UNL     1       6.218  -3.350  -7.596  0.00  0.00    -0.507 OA
ATOM     26  H   UNL     1       6.105  -4.309  -7.564  0.00  0.00    +0.292 HD
ENDBRANCH  23  25
ENDBRANCH  18  19
BRANCH  18  28
ATOM     27  N   UNL     1       3.676  -3.499  -2.755  0.00  0.00    -0.309 N 
ATOM     28  C   UNL     1       3.934  -2.197  -2.520  0.00  0.00    +0.239 C 
ATOM     29  O   UNL     1       3.949  -1.778  -1.382  0.00  0.00    -0.273 OA
ATOM     30  H   UNL     1       3.664  -3.834  -3.665  0.00  0.00    +0.149 HD
BRANCH  27  32
ATOM     31  C   UNL     1       2.188  -3.923  -0.861  0.00  0.00    +0.031 C 
ATOM     32  C   UNL     1       3.414  -4.408  -1.636  0.00  0.00    +0.026 C 
ATOM     33  C   UNL     1       4.628  -4.434  -0.706  0.00  0.00    +0.031 C 
ATOM     34  C   UNL     1       3.154  -5.817  -2.174  0.00  0.00    +0.031 C 
ENDBRANCH  27  32
ENDBRANCH  18  28
ENDBRANCH   1  18
BRANCH   1  35
ATOM     35  C   UNL     1       5.461   0.298  -2.114  0.00  0.00    +0.183 C 
BRANCH  35  36
ATOM     36  C   UNL     1       6.646   1.020  -2.701  0.00  0.00    +0.122 A 
ATOM     37  C   UNL     1       6.854   2.349  -2.665  0.00  0.00    +0.046 A 
ATOM     38  C   UNL     1       8.078   2.590  -3.330  0.00  0.00    +0.041 A 
ATOM     39  C   UNL     1       8.545   1.395  -3.733  0.00  0.00    +0.195 A 
ATOM     40  O   UNL     1       7.676   0.447  -3.344  0.00  0.00    -0.466 OA
ENDBRANCH  35  36
ENDBRANCH   1  35
TORSDOF 10
