REMARK  Name = ZINC38774160
REMARK  5 active torsions:
REMARK  status: ('A' for Active; 'I' for Inactive)
REMARK    1  A    between atoms: C_6  and  N_7
REMARK    2  A    between atoms: N_16  and  C_19
REMARK    3  A    between atoms: C_19  and  C_20
REMARK    4  A    between atoms: C_20  and  N_21
REMARK    5  A    between atoms: C_22  and  C_24
REMARK                            x       y       z     vdW  Elec       q    Type
REMARK                         _______ _______ _______ _____ _____    ______ ____
ROOT
ATOM      1  C   UNL     1      -0.017   1.383   0.010  0.00  0.00    +0.035 A 
ATOM      2  C   UNL     1       1.142   2.115   0.003  0.00  0.00    +0.031 A 
ATOM      3  C   UNL     1       2.402   1.473  -0.013  0.00  0.00    +0.080 A 
ATOM      4  C   UNL     1       2.382   0.060  -0.020  0.00  0.00    +0.043 A 
ATOM      5  C   UNL     1       1.217  -0.665  -0.014  0.00  0.00    +0.050 A 
ATOM      6  C   UNL     1       0.002  -0.004   0.002  0.00  0.00    +0.127 A 
ATOM      7  S   UNL     1       4.113  -0.343  -0.038  0.00  0.00    -0.052 S 
ATOM      8  C   UNL     1       4.734   1.333  -0.035  0.00  0.00    +0.162 A 
ATOM      9  N   UNL     1       3.628   2.042  -0.021  0.00  0.00    -0.225 NA
ATOM     10  N   UNL     1       6.042   1.771  -0.044  0.00  0.00    -0.313 N 
ATOM     11  C   UNL     1       7.160   0.815  -0.066  0.00  0.00    +0.088 C 
ATOM     12  C   UNL     1       8.143   1.192   1.048  0.00  0.00    -0.059 C 
ATOM     13  N   UNL     1       8.543   2.596   0.891  0.00  0.00    +0.383 N 
ATOM     14  C   UNL     1       7.380   3.472   1.078  0.00  0.00    -0.059 C 
ATOM     15  C   UNL     1       6.359   3.208  -0.040  0.00  0.00    +0.088 C 
ATOM     16  H   UNL     1       8.922   2.735  -0.034  0.00  0.00    -0.082 HD
ENDROOT
BRANCH   6  17
ATOM     17  N   UNL     1      -1.265  -0.769   0.011  0.00  0.00    +0.056 N 
ATOM     18  O   UNL     1      -2.324  -0.185   0.024  0.00  0.00    -0.126 OA
ATOM     19  O   UNL     1      -1.241  -1.978   0.004  0.00  0.00    -0.126 OA
ENDBRANCH   6  17
BRANCH  13  20
ATOM     20  C   UNL     1       9.568   2.926   1.890  0.00  0.00    -0.060 C 
BRANCH  20  21
ATOM     21  C   UNL     1      10.076   4.349   1.650  0.00  0.00    +0.086 C 
BRANCH  21  22
ATOM     22  N   UNL     1      11.098   4.678   2.647  0.00  0.00    -0.313 N 
ATOM     23  C   UNL     1      11.691   5.888   2.630  0.00  0.00    +0.251 C 
ATOM     24  O   UNL     1      11.378   6.707   1.786  0.00  0.00    -0.270 OA
ATOM     25  H   UNL     1      11.347   4.024   3.319  0.00  0.00    +0.149 HD
BRANCH  23  26
ATOM     26  C   UNL     1      12.713   6.216   3.627  0.00  0.00    +0.075 A 
ATOM     27  C   UNL     1      13.432   7.391   3.786  0.00  0.00    +0.022 A 
ATOM     28  C   UNL     1      14.333   7.404   4.824  0.00  0.00    +0.024 A 
ATOM     29  C   UNL     1      14.456   6.299   5.603  0.00  0.00    +0.056 A 
ATOM     30  S   UNL     1      13.350   5.213   4.956  0.00  0.00    -0.077 S 
ATOM     31 BR   UNL     1      15.605   6.044   7.083  0.00  0.00    -0.043 Br
ENDBRANCH  23  26
ENDBRANCH  21  22
ENDBRANCH  20  21
ENDBRANCH  13  20
TORSDOF 5
