REMARK  Name = ZINC03056956
REMARK  9 active torsions:
REMARK  status: ('A' for Active; 'I' for Inactive)
REMARK    1  A    between atoms: C_1  and  O_2
REMARK    2  A    between atoms: O_2  and  C_3
REMARK    3  A    between atoms: C_6  and  S_9
REMARK    4  A    between atoms: S_9  and  N_12
REMARK    5  A    between atoms: N_12  and  C_13
REMARK    6  A    between atoms: N_21  and  S_22
REMARK    7  A    between atoms: S_22  and  C_25
REMARK    8  A    between atoms: C_28  and  O_31
REMARK    9  A    between atoms: O_31  and  C_32
REMARK                            x       y       z     vdW  Elec       q    Type
REMARK                         _______ _______ _______ _____ _____    ______ ____
ROOT
ATOM      1  C   UNL     1      -0.882  -0.167   2.442  0.00  0.00    +0.049 A 
ATOM      2  C   UNL     1      -1.560   1.050   2.381  0.00  0.00    +0.026 A 
ATOM      3  C   UNL     1      -2.566   1.338   3.276  0.00  0.00    +0.030 A 
ATOM      4  C   UNL     1      -2.905   0.415   4.261  0.00  0.00    +0.073 A 
ATOM      5  C   UNL     1      -2.221  -0.810   4.328  0.00  0.00    +0.007 A 
ATOM      6  C   UNL     1      -1.206  -1.096   3.412  0.00  0.00    +0.034 A 
ATOM      7  C   UNL     1      -2.809  -1.544   5.454  0.00  0.00    -0.017 A 
ATOM      8  C   UNL     1      -3.765  -0.764   5.980  0.00  0.00    +0.047 A 
ATOM      9  N   UNL     1      -3.836   0.415   5.277  0.00  0.00    -0.215 N 
ATOM     10  C   UNL     1      -4.420  -1.462   7.157  0.00  0.00    +0.056 C 
ATOM     11  C   UNL     1      -4.030  -2.949   7.008  0.00  0.00    +0.011 C 
ATOM     12  C   UNL     1      -2.711  -2.851   6.209  0.00  0.00    +0.038 C 
ENDROOT
BRANCH   9  13
ATOM     13  S   UNL     1      -4.885   1.654   5.604  0.00  0.00    +0.084 S 
ATOM     14  O   UNL     1      -5.246   1.530   6.973  0.00  0.00    -0.148 OA
ATOM     15  O   UNL     1      -4.297   2.834   5.075  0.00  0.00    -0.148 OA
BRANCH  13  16
ATOM     16  C   UNL     1      -6.348   1.357   4.668  0.00  0.00    +0.111 A 
ATOM     17  C   UNL     1      -6.468   1.873   3.391  0.00  0.00    +0.032 A 
ATOM     18  C   UNL     1      -7.612   1.638   2.654  0.00  0.00    +0.047 A 
ATOM     19  C   UNL     1      -8.646   0.892   3.200  0.00  0.00    +0.120 A 
ATOM     20  C   UNL     1      -8.527   0.380   4.483  0.00  0.00    +0.047 A 
ATOM     21  C   UNL     1      -7.378   0.614   5.215  0.00  0.00    +0.032 A 
BRANCH  19  22
ATOM     22  O   UNL     1      -9.775   0.663   2.478  0.00  0.00    -0.495 OA
ATOM     23  C   UNL     1      -9.828   1.220   1.163  0.00  0.00    +0.277 C 
ENDBRANCH  19  22
ENDBRANCH  13  16
ENDBRANCH   9  13
BRANCH   1  24
ATOM     24  N   UNL     1       0.134  -0.446   1.521  0.00  0.00    -0.216 N 
ATOM     25  H   UNL     1       0.996  -0.007   1.601  0.00  0.00    +0.174 HD
BRANCH  24  26
ATOM     26  S   UNL     1      -0.134  -1.525   0.293  0.00  0.00    +0.072 S 
ATOM     27  O   UNL     1      -0.667  -2.698   0.893  0.00  0.00    -0.150 OA
ATOM     28  O   UNL     1       1.047  -1.542  -0.497  0.00  0.00    -0.150 OA
BRANCH  26  32
ATOM     29  C   UNL     1      -3.411   0.199  -2.313  0.00  0.00    +0.120 A 
ATOM     30  C   UNL     1      -2.092   0.578  -2.514  0.00  0.00    +0.047 A 
ATOM     31  C   UNL     1      -1.094   0.051  -1.718  0.00  0.00    +0.032 A 
ATOM     32  C   UNL     1      -1.409  -0.854  -0.721  0.00  0.00    +0.109 A 
ATOM     33  C   UNL     1      -2.722  -1.238  -0.522  0.00  0.00    +0.032 A 
ATOM     34  C   UNL     1      -3.725  -0.709  -1.312  0.00  0.00    +0.047 A 
BRANCH  29  36
ATOM     35  C   UNL     1      -5.730   0.281  -2.832  0.00  0.00    +0.277 C 
ATOM     36  O   UNL     1      -4.395   0.717  -3.095  0.00  0.00    -0.495 OA
ENDBRANCH  29  36
ENDBRANCH  26  32
ENDBRANCH  24  26
ENDBRANCH   1  24
TORSDOF 7
