REMARK  Name = ZINC13063711
REMARK  15 active torsions:
REMARK  status: ('A' for Active; 'I' for Inactive)
REMARK    1  A    between atoms: C_1  and  C_2
REMARK    2  A    between atoms: C_2  and  C_3
REMARK    3  A    between atoms: C_10  and  C_15
REMARK    4  A    between atoms: C_15  and  N_71
REMARK    5  A    between atoms: C_16  and  C_17
REMARK    6  A    between atoms: C_16  and  N_71
REMARK    7  A    between atoms: C_20  and  C_23
REMARK    8  A    between atoms: C_24  and  C_26
REMARK    9  A    between atoms: C_24  and  C_28
REMARK   10  A    between atoms: C_24  and  N_71
REMARK   11  A    between atoms: C_26  and  C_27
REMARK   12  A    between atoms: N_32  and  C_33
REMARK   13  A    between atoms: C_33  and  C_34
REMARK   14  A    between atoms: C_33  and  C_35
REMARK   15  A    between atoms: C_33  and  C_36
REMARK                            x       y       z     vdW  Elec       q    Type
REMARK                         _______ _______ _______ _____ _____    ______ ____
ROOT
ATOM      1  N   UNL     1      -1.902   4.827   0.837  0.00  0.00    +0.392 N 
ATOM      2  H   UNL     1      -1.458   5.653   1.256  0.00  0.00    -0.080 HD
ENDROOT
BRANCH   1   3
ATOM      3  C   UNL     1      -1.474   4.717  -0.574  0.00  0.00    -0.036 C 
BRANCH   3  11
ATOM      4  C   UNL     1       4.495   3.146  -1.015  0.00  0.00    -0.047 A 
ATOM      5  C   UNL     1       5.001   4.438  -0.947  0.00  0.00    +0.005 A 
ATOM      6  C   UNL     1       4.156   5.519  -0.820  0.00  0.00    +0.026 A 
ATOM      7  C   UNL     1       2.781   5.316  -0.759  0.00  0.00    +0.049 A 
ATOM      8  C   UNL     1       2.272   4.006  -0.829  0.00  0.00    -0.001 A 
ATOM      9  C   UNL     1       3.148   2.924  -0.958  0.00  0.00    +0.013 A 
ATOM     10  C   UNL     1       0.823   3.803  -0.758  0.00  0.00    +0.017 A 
ATOM     11  C   UNL     1       0.022   4.890  -0.641  0.00  0.00    +0.001 A 
ATOM     12  C   UNL     1       0.583   6.184  -0.575  0.00  0.00    +0.251 A 
ATOM     13  O   UNL     1      -0.155   7.147  -0.464  0.00  0.00    -0.268 OA
ATOM     14  N   UNL     1       1.912   6.379  -0.633  0.00  0.00    -0.322 N 
ATOM     15  H   UNL     1       2.265   7.282  -0.585  0.00  0.00    +0.169 HD
BRANCH   4  17
ATOM     16  C   UNL     1       5.680   1.692  -2.637  0.00  0.00    +0.009 C 
ATOM     17  C   UNL     1       5.439   1.980  -1.154  0.00  0.00    +0.032 C 
ENDBRANCH   4  17
ENDBRANCH   3  11
ENDBRANCH   1   3
BRANCH   1  18
ATOM     18  C   UNL     1      -3.370   4.984   0.908  0.00  0.00    -0.042 C 
BRANCH  18  19
ATOM     19  C   UNL     1      -3.734   5.504   2.275  0.00  0.00    -0.064 A 
ATOM     20  C   UNL     1      -4.360   4.675   3.186  0.00  0.00    +0.002 A 
ATOM     21  C   UNL     1      -4.691   5.151   4.441  0.00  0.00    +0.003 A 
ATOM     22  C   UNL     1      -4.404   6.460   4.781  0.00  0.00    -0.050 A 
ATOM     23  C   UNL     1      -3.782   7.291   3.868  0.00  0.00    +0.003 A 
ATOM     24  C   UNL     1      -3.448   6.813   2.615  0.00  0.00    +0.002 A 
ATOM     25  C   UNL     1      -4.769   6.981   6.147  0.00  0.00    +0.044 C 
ENDBRANCH  18  19
ENDBRANCH   1  18
BRANCH   1  26
ATOM     26  C   UNL     1      -1.485   3.624   1.587  0.00  0.00    +0.003 C 
BRANCH  26  27
ATOM     27  C   UNL     1      -1.269   4.008   3.028  0.00  0.00    +0.139 A 
ATOM     28  N   UNL     1      -1.937   4.908   3.707  0.00  0.00    -0.115 NA
ATOM     29  N   UNL     1      -1.457   4.943   4.902  0.00  0.00    -0.023 NA
ATOM     30  N   UNL     1      -0.499   4.089   5.003  0.00  0.00    -0.043 NA
ATOM     31  N   UNL     1      -0.356   3.488   3.870  0.00  0.00    -0.226 N 
BRANCH  31  32
ATOM     32  C   UNL     1       0.619   2.440   3.558  0.00  0.00    +0.059 C 
ATOM     33  C   UNL     1       1.616   2.963   2.522  0.00  0.00    +0.036 C 
ATOM     34  C   UNL     1       1.367   2.043   4.832  0.00  0.00    +0.036 C 
ATOM     35  C   UNL     1      -0.109   1.219   2.993  0.00  0.00    +0.036 C 
ENDBRANCH  31  32
ENDBRANCH  26  27
BRANCH  26  36
ATOM     36  C   UNL     1      -2.564   2.542   1.503  0.00  0.00    -0.011 C 
ATOM     37  C   UNL     1      -2.680   2.049   0.059  0.00  0.00    +0.002 C 
ENDBRANCH  26  36
ENDBRANCH   1  26
TORSDOF 9
