REMARK  Name = ZINC20080448
REMARK  8 active torsions:
REMARK  status: ('A' for Active; 'I' for Inactive)
REMARK    1  A    between atoms: C_1  and  C_2
REMARK    2  A    between atoms: C_2  and  O_3
REMARK    3  A    between atoms: O_3  and  C_4
REMARK    4  A    between atoms: C_11  and  C_16
REMARK    5  A    between atoms: C_16  and  C_18
REMARK    6  A    between atoms: C_16  and  N_29
REMARK    7  A    between atoms: N_22  and  C_23
REMARK    8  A    between atoms: N_32  and  C_35
REMARK                            x       y       z     vdW  Elec       q    Type
REMARK                         _______ _______ _______ _____ _____    ______ ____
ROOT
ATOM      1  C   UNL     1      -0.013   1.086   0.008  0.00  0.00    +0.162 C 
ENDROOT
BRANCH   1   9
ATOM      2  C   UNL     1      -3.173   1.183   5.340  0.00  0.00    +0.121 A 
ATOM      3  C   UNL     1      -3.288   2.569   5.420  0.00  0.00    +0.047 A 
ATOM      4  C   UNL     1      -2.749   3.376   4.444  0.00  0.00    +0.030 A 
ATOM      5  C   UNL     1      -2.081   2.808   3.364  0.00  0.00    +0.049 A 
ATOM      6  C   UNL     1      -1.962   1.408   3.278  0.00  0.00    +0.002 A 
ATOM      7  C   UNL     1      -2.515   0.599   4.277  0.00  0.00    +0.055 A 
ATOM      8  C   UNL     1      -1.263   0.823   2.133  0.00  0.00    +0.021 A 
ATOM      9  C   UNL     1      -0.743   1.655   1.197  0.00  0.00    +0.042 A 
ATOM     10  C   UNL     1      -0.889   3.053   1.329  0.00  0.00    +0.254 A 
ATOM     11  O   UNL     1      -0.418   3.783   0.473  0.00  0.00    -0.268 OA
ATOM     12  N   UNL     1      -1.534   3.599   2.374  0.00  0.00    -0.322 N 
ATOM     13  H   UNL     1      -1.622   4.694   2.434  0.00  0.00    +0.169 HD
BRANCH   2  14
ATOM     14  O   UNL     1      -3.712   0.402   6.314  0.00  0.00    -0.492 OA
BRANCH  14  16
ATOM     15  C   UNL     1      -4.915   0.034   8.377  0.00  0.00    +0.048 C 
ATOM     16  C   UNL     1      -4.379   1.070   7.386  0.00  0.00    +0.225 C 
ENDBRANCH  14  16
ENDBRANCH   2  14
ENDBRANCH   1   9
BRANCH   1  17
ATOM     17  N   UNL     1       1.318   1.700  -0.089  0.00  0.00    -0.292 NA
ATOM     18  C   UNL     1       2.036   1.216  -1.277  0.00  0.00    +0.067 C 
ATOM     19  C   UNL     1       3.382   1.937  -1.385  0.00  0.00    -0.063 C 
ATOM     20  N   UNL     1       4.164   1.694  -0.165  0.00  0.00    +0.383 N 
ATOM     21  C   UNL     1       3.446   2.178   1.022  0.00  0.00    -0.063 C 
ATOM     22  C   UNL     1       2.101   1.457   1.131  0.00  0.00    +0.067 C 
ATOM     23  H   UNL     1       4.301   0.607  -0.060  0.00  0.00    -0.081 HD
BRANCH  20  24
ATOM     24  C   UNL     1       5.495   2.308  -0.262  0.00  0.00    -0.068 C 
ATOM     25  C   UNL     1       5.347   3.814  -0.487  0.00  0.00    -0.015 C 
ATOM     26  C   UNL     1       6.733   4.453  -0.589  0.00  0.00    -0.002 C 
ATOM     27  C   UNL     1       7.496   3.835  -1.762  0.00  0.00    -0.000 C 
ATOM     28  C   UNL     1       7.644   2.329  -1.537  0.00  0.00    -0.002 C 
ATOM     29  C   UNL     1       6.258   1.689  -1.436  0.00  0.00    -0.015 C 
ENDBRANCH  20  24
ENDBRANCH   1  17
BRANCH   1  30
ATOM     30  C   UNL     1      -0.793   1.377  -1.248  0.00  0.00    +0.173 A 
ATOM     31  N   UNL     1      -0.884   2.531  -1.863  0.00  0.00    -0.111 NA
ATOM     32  N   UNL     1      -1.639   2.373  -2.895  0.00  0.00    -0.023 NA
ATOM     33  N   UNL     1      -2.032   1.149  -2.954  0.00  0.00    -0.044 NA
ATOM     34  N   UNL     1      -1.527   0.501  -1.959  0.00  0.00    -0.224 N 
BRANCH  34  35
ATOM     35  C   UNL     1      -1.720  -0.920  -1.658  0.00  0.00    +0.111 C 
ATOM     36  C   UNL     1      -1.202  -1.763  -2.825  0.00  0.00    +0.027 C 
ATOM     37  C   UNL     1      -1.403  -3.247  -2.510  0.00  0.00    +0.002 C 
ATOM     38  C   UNL     1      -2.893  -3.526  -2.300  0.00  0.00    +0.000 C 
ATOM     39  C   UNL     1      -3.410  -2.683  -1.133  0.00  0.00    +0.002 C 
ATOM     40  C   UNL     1      -3.209  -1.199  -1.448  0.00  0.00    +0.027 C 
ENDBRANCH  34  35
ENDBRANCH   1  30
TORSDOF 7
