REMARK  Name = ZINC34887565
REMARK  7 active torsions:
REMARK  status: ('A' for Active; 'I' for Inactive)
REMARK    1  A    between atoms: C_1  and  C_2
REMARK    2  A    between atoms: C_2  and  O_3
REMARK    3  A    between atoms: O_3  and  C_4
REMARK    4  A    between atoms: C_14  and  C_16
REMARK    5  A    between atoms: C_16  and  N_17
REMARK    6  A    between atoms: N_20  and  S_23
REMARK    7  A    between atoms: S_23  and  C_26
REMARK                            x       y       z     vdW  Elec       q    Type
REMARK                         _______ _______ _______ _____ _____    ______ ____
ROOT
ATOM      1  C   UNL     1      -3.422 -10.161  -0.025  0.00  0.00    +0.181 C 
ENDROOT
BRANCH   1  12
ATOM      2  C   UNL     1      -1.498  -1.849   0.006  0.00  0.00    +0.122 A 
ATOM      3  C   UNL     1      -0.389  -2.689  -0.003  0.00  0.00    +0.048 A 
ATOM      4  C   UNL     1      -0.525  -4.053  -0.009  0.00  0.00    +0.032 A 
ATOM      5  C   UNL     1      -1.806  -4.653  -0.006  0.00  0.00    +0.081 A 
ATOM      6  C   UNL     1      -2.910  -3.771   0.003  0.00  0.00    +0.044 A 
ATOM      7  C   UNL     1      -2.769  -2.405   0.016  0.00  0.00    +0.063 A 
ATOM      8  S   UNL     1      -4.289  -4.891   0.004  0.00  0.00    -0.052 S 
ATOM      9  C   UNL     1      -3.345  -6.409  -0.007  0.00  0.00    +0.165 A 
ATOM     10  N   UNL     1      -2.109  -5.970  -0.011  0.00  0.00    -0.225 NA
ATOM     11  N   UNL     1      -3.803  -7.717  -0.012  0.00  0.00    -0.264 N 
ATOM     12  C   UNL     1      -2.924  -8.739  -0.021  0.00  0.00    +0.233 C 
ATOM     13  O   UNL     1      -1.733  -8.513  -0.025  0.00  0.00    -0.274 OA
ATOM     14  H   UNL     1      -4.756  -7.897  -0.008  0.00  0.00    +0.157 HD
BRANCH   2  15
ATOM     15  O   UNL     1      -1.339  -0.499   0.012  0.00  0.00    -0.492 OA
BRANCH  15  17
ATOM     16  C   UNL     1      -0.019   1.526   0.010  0.00  0.00    +0.048 C 
ATOM     17  C   UNL     1       0.002  -0.004   0.002  0.00  0.00    +0.225 C 
ENDBRANCH  15  17
ENDBRANCH   2  15
ENDBRANCH   1  12
BRANCH   1  18
ATOM     18  N   UNL     1      -2.277 -11.081  -0.035  0.00  0.00    -0.291 NA
ATOM     19  C   UNL     1      -1.519 -10.964  -1.288  0.00  0.00    +0.102 C 
ATOM     20  C   UNL     1      -0.238 -11.800  -1.187  0.00  0.00    +0.125 C 
ATOM     21  N   UNL     1      -0.606 -13.173  -0.807  0.00  0.00    -0.174 NA
ATOM     22  C   UNL     1      -1.479 -13.362   0.361  0.00  0.00    +0.125 C 
ATOM     23  C   UNL     1      -2.711 -12.465   0.198  0.00  0.00    +0.102 C 
BRANCH  21  24
ATOM     24  S   UNL     1      -0.050 -14.471  -1.672  0.00  0.00    +0.061 S 
ATOM     25  O   UNL     1      -0.969 -15.532  -1.448  0.00  0.00    -0.153 OA
ATOM     26  O   UNL     1       0.256 -13.991  -2.974  0.00  0.00    -0.153 OA
BRANCH  24  27
ATOM     27  C   UNL     1       1.477 -14.966  -0.946  0.00  0.00    +0.108 A 
ATOM     28  C   UNL     1       2.665 -14.415  -1.391  0.00  0.00    +0.029 A 
ATOM     29  C   UNL     1       3.864 -14.802  -0.823  0.00  0.00    +0.005 A 
ATOM     30  C   UNL     1       3.877 -15.741   0.192  0.00  0.00    +0.038 A 
ATOM     31  C   UNL     1       2.689 -16.293   0.638  0.00  0.00    +0.125 A 
ATOM     32  C   UNL     1       1.488 -15.900   0.072  0.00  0.00    +0.066 A 
ATOM     33  F   UNL     1       2.700 -17.211   1.629  0.00  0.00    -0.205 F 
ENDBRANCH  24  27
ENDBRANCH  21  24
ENDBRANCH   1  18
TORSDOF 6
