REMARK  Name = ZINC64710477
REMARK  8 active torsions:
REMARK  status: ('A' for Active; 'I' for Inactive)
REMARK    1  A    between atoms: C_1  and  C_2
REMARK    2  A    between atoms: C_3  and  C_20
REMARK    3  A    between atoms: C_6  and  C_8
REMARK    4  A    between atoms: C_11  and  S_13
REMARK    5  A    between atoms: S_13  and  N_16
REMARK    6  A    between atoms: N_16  and  C_17
REMARK    7  A    between atoms: C_17  and  C_18
REMARK    8  A    between atoms: C_17  and  C_19
REMARK                            x       y       z     vdW  Elec       q    Type
REMARK                         _______ _______ _______ _____ _____    ______ ____
ROOT
ATOM      1  C   UNL     1       1.272  -0.734   2.015  0.00  0.00    +0.138 A 
ATOM      2  C   UNL     1       1.349  -0.030   3.158  0.00  0.00    +0.049 A 
ATOM      3  C   UNL     1       2.695  -0.092   3.587  0.00  0.00    +0.071 A 
ATOM      4  C   UNL     1       3.359  -0.831   2.680  0.00  0.00    +0.258 A 
ATOM      5  O   UNL     1       2.491  -1.222   1.733  0.00  0.00    -0.439 OA
ENDROOT
BRANCH   1  11
ATOM      6  C   UNL     1      -0.018   1.503   0.010  0.00  0.00    +0.043 C 
ATOM      7  C   UNL     1       0.002  -0.004   0.002  0.00  0.00    -0.017 C 
ATOM      8  C   UNL     1       0.009  -0.821  -1.054  0.00  0.00    +0.062 C 
ATOM      9  N   UNL     1       0.028  -2.114  -0.661  0.00  0.00    -0.158 NA
ATOM     10  N   UNL     1       0.035  -2.277   0.562  0.00  0.00    -0.172 NA
ATOM     11  C   UNL     1       0.026  -0.946   1.193  0.00  0.00    +0.221 C 
ATOM     12  C   UNL     1      -0.003  -0.363  -2.490  0.00  0.00    +0.067 C 
ENDBRANCH   1  11
BRANCH   4  13
ATOM     13  S   UNL     1       5.076  -1.225   2.729  0.00  0.00    +0.092 S 
ATOM     14  O   UNL     1       5.468  -1.503   1.392  0.00  0.00    -0.150 OA
ATOM     15  O   UNL     1       5.701  -0.217   3.512  0.00  0.00    -0.150 OA
BRANCH  13  16
ATOM     16  N   UNL     1       5.229  -2.642   3.572  0.00  0.00    -0.185 NA
ATOM     17  H   UNL     1       5.697  -2.653   4.422  0.00  0.00    +0.148 HD
BRANCH  16  18
ATOM     18  C   UNL     1       4.658  -3.879   3.035  0.00  0.00    +0.070 C 
ATOM     19  C   UNL     1       5.734  -4.646   2.265  0.00  0.00    +0.025 C 
ATOM     20  C   UNL     1       4.141  -4.744   4.186  0.00  0.00    +0.025 C 
ENDBRANCH  16  18
ENDBRANCH  13  16
ENDBRANCH   4  13
TORSDOF 4
