REMARK  Name = ZINC36372164
REMARK  13 active torsions:
REMARK  status: ('A' for Active; 'I' for Inactive)
REMARK    1  A    between atoms: C_1  and  C_2
REMARK    2  A    between atoms: C_2  and  C_4
REMARK    3  A    between atoms: C_2  and  C_38
REMARK    4  A    between atoms: C_10  and  C_37
REMARK    5  A    between atoms: C_11  and  O_33
REMARK    6  A    between atoms: C_22  and  C_32
REMARK    7  A    between atoms: C_25  and  O_28
REMARK    8  A    between atoms: O_28  and  C_29
REMARK    9  A    between atoms: C_29  and  C_31
REMARK   10  A    between atoms: O_33  and  C_34
REMARK   11  A    between atoms: C_34  and  C_36
REMARK   12  A    between atoms: C_38  and  O_40
REMARK   13  A    between atoms: O_40  and  C_41
REMARK                            x       y       z     vdW  Elec       q    Type
REMARK                         _______ _______ _______ _____ _____    ______ ____
ROOT
ATOM      1  C   UNL     1       0.868  -0.564   1.176  0.00  0.00    +0.012 C 
ATOM      2  C   UNL     1       1.163  -2.083   1.065  0.00  0.00    +0.005 C 
ATOM      3  C   UNL     1       2.698  -2.246   1.269  0.00  0.00    +0.005 C 
ATOM      4  C   UNL     1       3.068  -0.917   1.949  0.00  0.00    +0.002 C 
ATOM      5  C   UNL     1       2.269   0.086   1.091  0.00  0.00    +0.012 C 
ATOM      6  C   UNL     1       2.364   1.474   1.666  0.00  0.00    +0.183 C 
ATOM      7  C   UNL     1       3.807   1.842   2.032  0.00  0.00    +0.049 C 
ATOM      8  C   UNL     1       4.822   0.825   1.548  0.00  0.00    +0.002 C 
ATOM      9  C   UNL     1       4.519  -0.579   2.066  0.00  0.00    -0.003 C 
ATOM     10  C   UNL     1       5.441  -1.576   1.366  0.00  0.00    +0.004 C 
ATOM     11  C   UNL     1       6.894  -1.222   1.711  0.00  0.00    +0.004 C 
ATOM     12  C   UNL     1       6.934   0.012   2.607  0.00  0.00    -0.001 C 
ATOM     13  C   UNL     1       6.254   1.207   1.944  0.00  0.00    -0.026 C 
ATOM     14  C   UNL     1       6.244   2.385   2.916  0.00  0.00    +0.011 C 
ATOM     15  C   UNL     1       7.671   2.750   3.324  0.00  0.00    +0.045 C 
ATOM     16  C   UNL     1       8.386   1.550   3.937  0.00  0.00    +0.177 C 
ATOM     17  C   UNL     1       8.376   0.362   2.974  0.00  0.00    +0.048 C 
ATOM     18  C   UNL     1       6.999   1.607   0.666  0.00  0.00    +0.012 C 
ATOM     19  C   UNL     1       2.667   0.065  -0.384  0.00  0.00    +0.015 C 
ENDROOT
BRANCH   1  21
ATOM     20  C   UNL     1      -0.308   1.387   0.160  0.00  0.00    +0.019 C 
ATOM     21  C   UNL     1       0.007  -0.102   0.005  0.00  0.00    +0.098 C 
BRANCH  21  22
ATOM     22  C   UNL     1      -1.279  -0.888  -0.014  0.00  0.00    +0.310 C 
ATOM     23  O   UNL     1      -1.483  -1.732   0.826  0.00  0.00    -0.251 OA
BRANCH  22  24
ATOM     24  O   UNL     1      -2.197  -0.650  -0.964  0.00  0.00    -0.468 OA
ATOM     25  C   UNL     1      -3.392  -1.432  -0.921  0.00  0.00    +0.280 C 
ENDBRANCH  22  24
ENDBRANCH  21  22
ENDBRANCH   1  21
BRANCH  16  26
ATOM     26  O   UNL     1       7.747   1.181   5.160  0.00  0.00    -0.462 OA
BRANCH  26  27
ATOM     27  C   UNL     1       8.198   1.763   6.283  0.00  0.00    +0.304 C 
ATOM     28  O   UNL     1       9.106   2.558   6.229  0.00  0.00    -0.251 OA
ATOM     29  C   UNL     1       7.573   1.423   7.611  0.00  0.00    +0.136 C 
ENDBRANCH  26  27
ENDBRANCH  16  26
BRANCH   6  30
ATOM     30  O   UNL     1       1.857   2.430   0.721  0.00  0.00    -0.461 OA
BRANCH  30  31
ATOM     31  C   UNL     1       1.298   3.543   1.221  0.00  0.00    +0.304 C 
ATOM     32  O   UNL     1       1.238   3.704   2.417  0.00  0.00    -0.251 OA
ATOM     33  C   UNL     1       0.744   4.591   0.291  0.00  0.00    +0.136 C 
ENDBRANCH  30  31
ENDBRANCH   6  30
TORSDOF 7
