REMARK  Name = ZINC63236958
REMARK  9 active torsions:
REMARK  status: ('A' for Active; 'I' for Inactive)
REMARK    1  A    between atoms: C_7  and  C_10
REMARK    2  A    between atoms: C_13  and  S_22
REMARK    3  A    between atoms: N_14  and  C_15
REMARK    4  A    between atoms: C_15  and  C_16
REMARK    5  A    between atoms: S_22  and  C_23
REMARK    6  A    between atoms: C_23  and  C_24
REMARK    7  A    between atoms: N_26  and  C_27
REMARK    8  A    between atoms: C_31  and  S_33
REMARK    9  A    between atoms: S_33  and  N_36
REMARK                            x       y       z     vdW  Elec       q    Type
REMARK                         _______ _______ _______ _____ _____    ______ ____
ROOT
ATOM      1  C   UNL     1       0.575  -3.261  -0.042  0.00  0.00    +0.163 A 
ATOM      2  N   UNL     1      -0.749  -3.258  -0.091  0.00  0.00    -0.129 NA
ATOM      3  N   UNL     1      -1.179  -4.454  -0.283  0.00  0.00    -0.122 NA
ATOM      4  C   UNL     1      -0.160  -5.296  -0.368  0.00  0.00    +0.192 A 
ATOM      5  N   UNL     1       0.983  -4.570  -0.225  0.00  0.00    -0.300 N 
ENDROOT
BRANCH   1  12
ATOM      6  C   UNL     1      -0.323   1.174   0.284  0.00  0.00    +0.001 A 
ATOM      7  C   UNL     1       0.813   1.962   0.481  0.00  0.00    +0.002 A 
ATOM      8  C   UNL     1       2.054   1.421   0.561  0.00  0.00    +0.026 A 
ATOM      9  C   UNL     1       2.219   0.016   0.446  0.00  0.00    +0.043 A 
ATOM     10  N   UNL     1       3.298  -0.741   0.488  0.00  0.00    -0.380 N 
ATOM     11  C   UNL     1       2.911  -2.144   0.314  0.00  0.00    +0.152 C 
ATOM     12  C   UNL     1       1.407  -2.146   0.153  0.00  0.00    +0.025 C 
ATOM     13  C   UNL     1       1.018  -0.809   0.239  0.00  0.00    +0.006 A 
ATOM     14  C   UNL     1      -0.241  -0.176   0.165  0.00  0.00    +0.010 A 
ATOM     15  H   UNL     1       4.204  -0.420   0.615  0.00  0.00    +0.160 HD
ENDBRANCH   1  12
BRANCH   5  16
ATOM     16  C   UNL     1       2.359  -5.072  -0.255  0.00  0.00    +0.157 C 
BRANCH  16  17
ATOM     17  C   UNL     1       2.927  -4.919  -1.667  0.00  0.00    +0.138 C 
ATOM     18  C   UNL     1       4.375  -5.467  -1.727  0.00  0.00    +0.035 C 
ATOM     19  C   UNL     1       4.495  -5.817  -3.236  0.00  0.00    +0.031 C 
ATOM     20  C   UNL     1       3.062  -6.276  -3.581  0.00  0.00    +0.160 C 
ATOM     21  O   UNL     1       2.180  -5.723  -2.594  0.00  0.00    -0.375 OA
ENDBRANCH  16  17
ENDBRANCH   5  16
BRANCH   4  22
ATOM     22  S   UNL     1      -0.264  -7.036  -0.627  0.00  0.00    -0.077 S 
BRANCH  22  23
ATOM     23  C   UNL     1      -2.045  -7.356  -0.742  0.00  0.00    +0.173 C 
BRANCH  23  24
ATOM     24  C   UNL     1      -2.277  -8.829  -0.967  0.00  0.00    +0.227 C 
ATOM     25  O   UNL     1      -1.334  -9.587  -1.042  0.00  0.00    -0.275 OA
ATOM     26  N   UNL     1      -3.534  -9.303  -1.085  0.00  0.00    -0.285 N 
ATOM     27  H   UNL     1      -4.290  -8.708  -0.961  0.00  0.00    +0.155 HD
BRANCH  26  28
ATOM     28  C   UNL     1      -3.747 -10.652  -1.386  0.00  0.00    +0.035 A 
ATOM     29  C   UNL     1      -4.814 -11.025  -2.192  0.00  0.00    +0.023 A 
ATOM     30  C   UNL     1      -5.022 -12.358  -2.487  0.00  0.00    +0.004 A 
ATOM     31  C   UNL     1      -4.169 -13.321  -1.980  0.00  0.00    +0.028 A 
ATOM     32  C   UNL     1      -3.105 -12.953  -1.177  0.00  0.00    +0.107 A 
ATOM     33  C   UNL     1      -2.888 -11.621  -0.883  0.00  0.00    +0.051 A 
BRANCH  32  34
ATOM     34  S   UNL     1      -2.021 -14.184  -0.533  0.00  0.00    +0.056 S 
ATOM     35  O   UNL     1      -1.428 -13.633   0.634  0.00  0.00    -0.153 OA
ATOM     36  O   UNL     1      -2.755 -15.401  -0.512  0.00  0.00    -0.153 OA
BRANCH  34  37
ATOM     37  N   UNL     1      -0.801 -14.387  -1.635  0.00  0.00    -0.204 NA
ATOM     38  H   UNL     1      -0.793 -13.863  -2.451  0.00  0.00    +0.144 HD
ATOM     39  H   UNL     1      -0.095 -15.028  -1.463  0.00  0.00    +0.144 HD
ENDBRANCH  34  37
ENDBRANCH  32  34
ENDBRANCH  26  28
ENDBRANCH  23  24
ENDBRANCH  22  23
ENDBRANCH   4  22
TORSDOF 9
