REMARK  Name = ZINC38855183
REMARK  10 active torsions:
REMARK  status: ('A' for Active; 'I' for Inactive)
REMARK    1  A    between atoms: C_1  and  C_2
REMARK    2  A    between atoms: N_8  and  S_29
REMARK    3  A    between atoms: C_10  and  C_13
REMARK    4  A    between atoms: N_15  and  C_16
REMARK    5  A    between atoms: C_21  and  C_22
REMARK    6  A    between atoms: N_24  and  C_25
REMARK    7  A    between atoms: C_25  and  C_26
REMARK    8  A    between atoms: C_26  and  C_27
REMARK    9  A    between atoms: C_26  and  C_28
REMARK   10  A    between atoms: S_29  and  C_32
REMARK                            x       y       z     vdW  Elec       q    Type
REMARK                         _______ _______ _______ _____ _____    ______ ____
ROOT
ATOM      1  C   UNL     1       0.200  -6.292   1.004  0.00  0.00    +0.260 C 
ATOM      2  O   UNL     1      -0.408  -6.708   0.040  0.00  0.00    -0.271 OA
ATOM      3  N   UNL     1       0.614  -7.146   1.960  0.00  0.00    -0.282 N 
ATOM      4  H   UNL     1       1.168  -6.826   2.689  0.00  0.00    +0.155 HD
ENDROOT
BRANCH   1  14
ATOM      5  C   UNL     1      -0.060   1.503   0.026  0.00  0.00    +0.044 C 
ATOM      6  C   UNL     1      -0.029  -0.004   0.015  0.00  0.00    -0.048 A 
ATOM      7  C   UNL     1      -0.009  -0.684  -1.188  0.00  0.00    +0.007 A 
ATOM      8  C   UNL     1       0.018  -2.067  -1.207  0.00  0.00    +0.048 A 
ATOM      9  C   UNL     1       0.026  -2.777  -0.016  0.00  0.00    +0.144 A 
ATOM     10  C   UNL     1       0.009  -2.089   1.194  0.00  0.00    +0.093 A 
ATOM     11  C   UNL     1      -0.015  -0.703   1.207  0.00  0.00    +0.031 A 
ATOM     12  N   UNL     1       0.025  -2.804   2.402  0.00  0.00    -0.200 N 
ATOM     13  C   UNL     1      -0.254  -4.249   2.346  0.00  0.00    +0.185 C 
ATOM     14  C   UNL     1       0.492  -4.819   1.131  0.00  0.00    +0.278 C 
ATOM     15  O   UNL     1       0.049  -4.136  -0.044  0.00  0.00    -0.476 OA
BRANCH  12  16
ATOM     16  S   UNL     1       0.347  -2.049   3.840  0.00  0.00    +0.043 S 
ATOM     17  O   UNL     1       0.876  -3.069   4.675  0.00  0.00    -0.155 OA
ATOM     18  O   UNL     1       1.134  -0.919   3.489  0.00  0.00    -0.155 OA
ATOM     19  C   UNL     1      -1.273  -1.514   4.458  0.00  0.00    +0.218 C 
ENDBRANCH  12  16
ENDBRANCH   1  14
BRANCH   3  20
ATOM     20  C   UNL     1       0.245  -8.488   1.902  0.00  0.00    +0.046 A 
ATOM     21  C   UNL     1      -0.910  -8.866   1.231  0.00  0.00    +0.024 A 
ATOM     22  C   UNL     1      -1.273 -10.196   1.175  0.00  0.00    +0.002 A 
ATOM     23  C   UNL     1      -0.491 -11.163   1.786  0.00  0.00    +0.001 A 
ATOM     24  C   UNL     1       0.659 -10.807   2.456  0.00  0.00    +0.015 A 
ATOM     25  C   UNL     1       1.042  -9.465   2.517  0.00  0.00    +0.058 A 
BRANCH  25  26
ATOM     26  C   UNL     1       2.276  -9.077   3.228  0.00  0.00    +0.246 C 
ATOM     27  O   UNL     1       2.557  -7.902   3.360  0.00  0.00    -0.270 OA
ATOM     28  N   UNL     1       3.090 -10.026   3.731  0.00  0.00    -0.311 N 
ATOM     29  H   UNL     1       2.866 -10.963   3.625  0.00  0.00    +0.149 HD
BRANCH  28  30
ATOM     30  C   UNL     1       4.315  -9.641   4.436  0.00  0.00    +0.107 C 
BRANCH  30  31
ATOM     31  C   UNL     1       5.052 -10.898   4.902  0.00  0.00    -0.000 C 
ATOM     32  C   UNL     1       5.521 -11.695   3.683  0.00  0.00    +0.009 C 
ATOM     33  C   UNL     1       6.263 -10.496   5.746  0.00  0.00    +0.009 C 
ENDBRANCH  30  31
ENDBRANCH  28  30
ENDBRANCH  25  26
ENDBRANCH   3  20
TORSDOF 6
