REMARK  Name = ZINC09298185
REMARK  8 active torsions:
REMARK  status: ('A' for Active; 'I' for Inactive)
REMARK    1  A    between atoms: C_1  and  C_2
REMARK    2  A    between atoms: C_9  and  N_18
REMARK    3  A    between atoms: C_10  and  C_11
REMARK    4  A    between atoms: C_14  and  O_16
REMARK    5  A    between atoms: O_16  and  C_17
REMARK    6  A    between atoms: C_19  and  C_21
REMARK    7  A    between atoms: C_21  and  O_22
REMARK    8  A    between atoms: O_22  and  C_23
REMARK                            x       y       z     vdW  Elec       q    Type
REMARK                         _______ _______ _______ _____ _____    ______ ____
ROOT
ATOM      1  C   UNL     1      -0.734   1.582   1.262  0.00  0.00    +0.008 C 
ATOM      2  C   UNL     1      -0.013   1.086   0.008  0.00  0.00    -0.009 C 
ATOM      3  C   UNL     1      -0.738   1.596  -1.241  0.00  0.00    +0.008 C 
ATOM      4  C   UNL     1      -0.177   0.907  -2.486  0.00  0.00    +0.037 C 
ATOM      5  C   UNL     1       1.339   1.061  -2.490  0.00  0.00    -0.023 A 
ATOM      6  C   UNL     1       2.009   1.379  -1.361  0.00  0.00    -0.004 A 
ATOM      7  S   UNL     1       3.710   1.446  -1.848  0.00  0.00    -0.077 S 
ATOM      8  C   UNL     1       3.537   1.057  -3.527  0.00  0.00    +0.085 A 
ATOM      9  C   UNL     1       2.166   0.884  -3.672  0.00  0.00    +0.069 A 
ATOM     10  C   UNL     1       1.427   1.620  -0.003  0.00  0.00    +0.046 C 
ENDROOT
BRANCH   9  11
ATOM     11  C   UNL     1       1.577   0.536  -4.967  0.00  0.00    +0.255 C 
ATOM     12  O   UNL     1       1.436  -0.632  -5.277  0.00  0.00    -0.270 OA
ATOM     13  N   UNL     1       1.189   1.510  -5.815  0.00  0.00    -0.217 N 
ATOM     14  C   UNL     1       0.647   1.190  -7.006  0.00  0.00    +0.407 C 
ATOM     15  O   UNL     1       0.507   0.024  -7.316  0.00  0.00    -0.226 OA
ATOM     16  H   UNL     1       1.301   2.441  -5.567  0.00  0.00    +0.161 HD
BRANCH  14  17
ATOM     17  O   UNL     1       0.260   2.162  -7.853  0.00  0.00    -0.453 OA
ATOM     18  C   UNL     1      -0.316   1.744  -9.118  0.00  0.00    +0.282 C 
ENDBRANCH  14  17
ENDBRANCH   9  11
BRANCH   8  19
ATOM     19  N   UNL     1       4.525   0.945  -4.492  0.00  0.00    -0.277 N 
ATOM     20  C   UNL     1       5.816   1.151  -4.162  0.00  0.00    +0.255 C 
ATOM     21  O   UNL     1       6.112   1.433  -3.021  0.00  0.00    -0.272 OA
ATOM     22  H   UNL     1       4.288   0.719  -5.405  0.00  0.00    +0.155 HD
BRANCH  20  23
ATOM     23  C   UNL     1       6.891   1.029  -5.211  0.00  0.00    +0.324 C 
BRANCH  23  24
ATOM     24  O   UNL     1       8.165   1.291  -4.620  0.00  0.00    -0.483 OA
BRANCH  24  25
ATOM     25  C   UNL     1       9.250   1.222  -5.436  0.00  0.00    +0.121 A 
ATOM     26  C   UNL     1       9.091   0.903  -6.777  0.00  0.00    +0.047 A 
ATOM     27  C   UNL     1      10.194   0.838  -7.606  0.00  0.00    +0.023 A 
ATOM     28  C   UNL     1      11.458   1.080  -7.097  0.00  0.00    +0.041 A 
ATOM     29  C   UNL     1      11.619   1.393  -5.759  0.00  0.00    +0.023 A 
ATOM     30  C   UNL     1      10.518   1.464  -4.928  0.00  0.00    +0.047 A 
ATOM     31 CL   UNL     1      12.843   0.992  -8.140  0.00  0.00    -0.084 Cl
ENDBRANCH  24  25
ENDBRANCH  23  24
ENDBRANCH  20  23
ENDBRANCH   8  19
TORSDOF 6
