REMARK  Name = ZINC04010656
REMARK  3 active torsions:
REMARK  status: ('A' for Active; 'I' for Inactive)
REMARK    1  A    between atoms: C_3  and  C_6
REMARK    2  A    between atoms: C_7  and  C_8
REMARK    3  A    between atoms: C_8  and  C_10
REMARK                            x       y       z     vdW  Elec       q    Type
REMARK                         _______ _______ _______ _____ _____    ______ ____
ROOT
ATOM      1  C   UNL     1      -0.013   1.076   0.008  0.00  0.00    +0.050 C 
ATOM      2  C   UNL     1       1.153   1.770   0.001  0.00  0.00    +0.055 C 
ENDROOT
BRANCH   1   5
ATOM      3  C   UNL     1      -3.426   2.246   0.031  0.00  0.00    +0.042 A 
ATOM      4  C   UNL     1      -2.502   1.191   0.015  0.00  0.00    +0.049 A 
ATOM      5  C   UNL     1      -1.248   1.767   0.018  0.00  0.00    +0.128 A 
ATOM      6  O   UNL     1      -1.409   3.106   0.025  0.00  0.00    -0.464 OA
ATOM      7  C   UNL     1      -2.718   3.398   0.033  0.00  0.00    +0.195 A 
ENDBRANCH   1   5
BRANCH   2   8
ATOM      8  C   UNL     1       2.389   1.079  -0.015  0.00  0.00    +0.193 C 
ATOM      9  O   UNL     1       2.406  -0.141  -0.022  0.00  0.00    -0.287 OA
BRANCH   8  10
ATOM     10  C   UNL     1       3.650   1.830  -0.023  0.00  0.00    +0.059 A 
ATOM     11  C   UNL     1       4.952   1.353  -0.038  0.00  0.00    +0.019 A 
ATOM     12  C   UNL     1       5.960   2.285  -0.043  0.00  0.00    +0.008 A 
ATOM     13  C   UNL     1       5.641   3.606  -0.033  0.00  0.00    +0.046 A 
ATOM     14  S   UNL     1       3.908   3.595  -0.024  0.00  0.00    -0.093 S 
ENDBRANCH   8  10
ENDBRANCH   2   8
TORSDOF 3
