REMARK  Name = ZINC05057007
REMARK  6 active torsions:
REMARK  status: ('A' for Active; 'I' for Inactive)
REMARK    1  A    between atoms: C_1  and  C_2
REMARK    2  A    between atoms: C_6  and  N_8
REMARK    3  A    between atoms: N_13  and  C_16
REMARK    4  A    between atoms: C_16  and  C_17
REMARK    5  A    between atoms: N_19  and  C_20
REMARK    6  A    between atoms: C_20  and  C_21
REMARK                            x       y       z     vdW  Elec       q    Type
REMARK                         _______ _______ _______ _____ _____    ______ ____
ROOT
ATOM      1  N   UNL     1      -1.201  -0.723   0.009  0.00  0.00    -0.194 N 
ATOM      2  C   UNL     1      -2.355  -0.374   0.650  0.00  0.00    +0.190 A 
ATOM      3  C   UNL     1      -3.276  -1.392   0.369  0.00  0.00    +0.196 A 
ATOM      4  C   UNL     1      -4.620  -1.274   0.939  0.00  0.00    +0.284 A 
ATOM      5  O   UNL     1      -5.470  -2.123   0.735  0.00  0.00    -0.265 OA
ATOM      6  N   UNL     1      -4.884  -0.187   1.701  0.00  0.00    -0.288 N 
ATOM      7  C   UNL     1      -3.926   0.748   1.917  0.00  0.00    +0.205 A 
ATOM      8  N   UNL     1      -2.727   0.659   1.418  0.00  0.00    -0.216 NA
ATOM      9  N   UNL     1      -2.669  -2.299  -0.409  0.00  0.00    -0.122 NA
ATOM     10  N   UNL     1      -1.456  -1.937  -0.645  0.00  0.00    -0.058 NA
ENDROOT
BRANCH   1  16
ATOM     11  C   UNL     1       3.717  -0.700  -0.038  0.00  0.00    +0.044 C 
ATOM     12  C   UNL     1       2.399   0.032  -0.021  0.00  0.00    -0.048 A 
ATOM     13  C   UNL     1       2.377   1.415  -0.013  0.00  0.00    +0.003 A 
ATOM     14  C   UNL     1       1.171   2.090   0.002  0.00  0.00    +0.002 A 
ATOM     15  C   UNL     1      -0.017   1.384   0.010  0.00  0.00    +0.028 A 
ATOM     16  C   UNL     1       0.002  -0.004   0.002  0.00  0.00    +0.070 A 
ATOM     17  C   UNL     1       1.216  -0.679  -0.013  0.00  0.00    +0.031 A 
ENDBRANCH   1  16
BRANCH   6  18
ATOM     18  C   UNL     1      -6.213  -0.019   2.296  0.00  0.00    +0.222 C 
BRANCH  18  19
ATOM     19  C   UNL     1      -7.096   0.744   1.343  0.00  0.00    +0.233 C 
ATOM     20  O   UNL     1      -6.660   1.112   0.273  0.00  0.00    -0.274 OA
ATOM     21  N   UNL     1      -8.372   1.018   1.681  0.00  0.00    -0.310 N 
ATOM     22  H   UNL     1      -8.721   0.724   2.537  0.00  0.00    +0.149 HD
BRANCH  21  23
ATOM     23  C   UNL     1      -9.232   1.760   0.755  0.00  0.00    +0.141 C 
BRANCH  23  24
ATOM     24  C   UNL     1     -10.598   1.933   1.367  0.00  0.00    -0.012 A 
ATOM     25  C   UNL     1     -11.636   1.105   0.984  0.00  0.00    +0.006 A 
ATOM     26  C   UNL     1     -12.889   1.260   1.548  0.00  0.00    +0.000 A 
ATOM     27  C   UNL     1     -13.106   2.250   2.488  0.00  0.00    +0.001 A 
ATOM     28  C   UNL     1     -12.070   3.081   2.868  0.00  0.00    +0.020 A 
ATOM     29  C   UNL     1     -10.815   2.923   2.308  0.00  0.00    +0.046 A 
ATOM     30 CL   UNL     1      -9.513   3.968   2.784  0.00  0.00    -0.083 Cl
ENDBRANCH  23  24
ENDBRANCH  21  23
ENDBRANCH  18  19
ENDBRANCH   6  18
TORSDOF 5
