REMARK  Name = ZINC11454606
REMARK  6 active torsions:
REMARK  status: ('A' for Active; 'I' for Inactive)
REMARK    1  A    between atoms: C_1  and  C_2
REMARK    2  A    between atoms: C_9  and  C_11
REMARK    3  A    between atoms: N_14  and  C_17
REMARK    4  A    between atoms: C_20  and  S_26
REMARK    5  A    between atoms: C_22  and  N_23
REMARK    6  A    between atoms: S_26  and  N_29
REMARK                            x       y       z     vdW  Elec       q    Type
REMARK                         _______ _______ _______ _____ _____    ______ ____
ROOT
ATOM      1  C   UNL     1      -0.137   1.261  -0.285  0.00  0.00    +0.060 A 
ATOM      2  C   UNL     1       0.917   1.691  -1.081  0.00  0.00    +0.027 A 
ATOM      3  C   UNL     1       2.095   0.972  -1.111  0.00  0.00    +0.030 A 
ATOM      4  C   UNL     1       2.227  -0.175  -0.349  0.00  0.00    +0.108 A 
ATOM      5  C   UNL     1       1.180  -0.605   0.445  0.00  0.00    +0.063 A 
ATOM      6  C   UNL     1      -0.001   0.110   0.480  0.00  0.00    +0.149 A 
ENDROOT
BRANCH   1  10
ATOM      7  C   UNL     1      -3.164   4.104  -0.952  0.00  0.00    +0.078 C 
ATOM      8  C   UNL     1      -3.353   2.667  -1.448  0.00  0.00    +0.031 C 
ATOM      9  C   UNL     1      -1.987   1.988  -1.560  0.00  0.00    +0.106 C 
ATOM     10  N   UNL     1      -1.328   1.989  -0.248  0.00  0.00    -0.328 N 
ATOM     11  C   UNL     1      -1.094   3.359   0.227  0.00  0.00    +0.106 C 
ATOM     12  C   UNL     1      -2.434   4.079   0.393  0.00  0.00    +0.031 C 
BRANCH   7  20
ATOM     13  C   UNL     1      -7.164   8.749  -1.501  0.00  0.00    +0.039 C 
ATOM     14  C   UNL     1      -5.893   7.911  -1.652  0.00  0.00    +0.132 C 
ATOM     15  C   UNL     1      -5.906   6.773  -0.631  0.00  0.00    +0.139 C 
ATOM     16  N   UNL     1      -4.598   6.099  -0.664  0.00  0.00    -0.297 N 
ATOM     17  C   UNL     1      -3.388   6.931  -0.570  0.00  0.00    +0.136 C 
ATOM     18  C   UNL     1      -3.498   8.062  -1.599  0.00  0.00    +0.179 C 
ATOM     19  O   UNL     1      -4.748   8.736  -1.426  0.00  0.00    -0.374 OA
ATOM     20  C   UNL     1      -4.511   4.759  -0.782  0.00  0.00    +0.219 C 
ATOM     21  O   UNL     1      -5.516   4.081  -0.751  0.00  0.00    -0.275 OA
ENDBRANCH   7  20
ENDBRANCH   1  10
BRANCH   6  22
ATOM     22  N   UNL     1      -1.121  -0.351   1.330  0.00  0.00    +0.058 N 
ATOM     23  O   UNL     1      -0.969  -1.303   2.075  0.00  0.00    -0.126 OA
ATOM     24  O   UNL     1      -2.195   0.221   1.286  0.00  0.00    -0.126 OA
ENDBRANCH   6  22
BRANCH   4  25
ATOM     25  S   UNL     1       3.732  -1.090  -0.390  0.00  0.00    +0.061 S 
ATOM     26  O   UNL     1       3.410  -2.421  -0.010  0.00  0.00    -0.153 OA
ATOM     27  O   UNL     1       4.361  -0.782  -1.627  0.00  0.00    -0.153 OA
BRANCH  25  28
ATOM     28  N   UNL     1       4.708  -0.481   0.801  0.00  0.00    -0.172 NA
ATOM     29  C   UNL     1       5.641   0.623   0.525  0.00  0.00    +0.137 C 
ATOM     30  C   UNL     1       5.428   1.708   1.593  0.00  0.00    +0.177 C 
ATOM     31  O   UNL     1       5.516   1.113   2.890  0.00  0.00    -0.377 OA
ATOM     32  C   UNL     1       4.511   0.130   3.152  0.00  0.00    +0.177 C 
ATOM     33  C   UNL     1       4.673  -1.032   2.165  0.00  0.00    +0.137 C 
ENDBRANCH  25  28
ENDBRANCH   4  25
TORSDOF 5
