REMARK  Name = ZINC36584053
REMARK  15 active torsions:
REMARK  status: ('A' for Active; 'I' for Inactive)
REMARK    1  A    between atoms: C_1  and  C_2
REMARK    2  A    between atoms: C_5  and  S_8
REMARK    3  A    between atoms: S_8  and  C_11
REMARK    4  A    between atoms: C_11  and  N_12
REMARK    5  A    between atoms: C_13  and  C_15
REMARK    6  A    between atoms: C_15  and  C_17
REMARK    7  A    between atoms: C_15  and  N_25
REMARK    8  A    between atoms: C_20  and  C_24
REMARK    9  A    between atoms: C_22  and  C_23
REMARK   10  A    between atoms: N_25  and  C_35
REMARK   11  A    between atoms: C_26  and  C_28
REMARK   12  A    between atoms: C_33  and  O_34
REMARK   13  A    between atoms: C_35  and  C_36
REMARK   14  A    between atoms: C_35  and  C_37
REMARK   15  A    between atoms: C_35  and  C_38
REMARK                            x       y       z     vdW  Elec       q    Type
REMARK                         _______ _______ _______ _____ _____    ______ ____
ROOT
ATOM      1  C   UNL     1       1.938  -7.035   2.911  0.00  0.00    +0.193 C 
ENDROOT
BRANCH   1   2
ATOM      2  C   UNL     1       1.217  -5.719   3.059  0.00  0.00    -0.015 A 
ATOM      3  C   UNL     1      -0.165  -5.681   3.038  0.00  0.00    +0.006 A 
ATOM      4  C   UNL     1      -0.825  -4.475   3.174  0.00  0.00    +0.004 A 
ATOM      5  C   UNL     1      -0.104  -3.306   3.330  0.00  0.00    -0.050 A 
ATOM      6  C   UNL     1       1.277  -3.344   3.351  0.00  0.00    +0.007 A 
ATOM      7  C   UNL     1       1.938  -4.551   3.220  0.00  0.00    -0.045 A 
ATOM      8  C   UNL     1       3.444  -4.593   3.248  0.00  0.00    +0.044 C 
ATOM      9  C   UNL     1      -0.824  -1.990   3.477  0.00  0.00    +0.044 C 
ENDBRANCH   1   2
BRANCH   1  11
ATOM     10  N   UNL     1       1.211  -7.715   0.647  0.00  0.00    -0.294 N 
ATOM     11  C   UNL     1       1.164  -7.929   1.977  0.00  0.00    +0.239 C 
ATOM     12  O   UNL     1       0.499  -8.840   2.422  0.00  0.00    -0.273 OA
ATOM     13  H   UNL     1       1.703  -6.958   0.294  0.00  0.00    +0.150 HD
BRANCH  10  14
ATOM     14  C   UNL     1       0.518  -8.628  -0.266  0.00  0.00    +0.278 C 
BRANCH  14  15
ATOM     15  S   UNL     1      -1.125  -7.964  -0.654  0.00  0.00    +0.013 S 
ATOM     16  O   UNL     1      -1.780  -7.550   0.537  0.00  0.00    -0.168 OA
ATOM     17  O   UNL     1      -1.785  -8.806  -1.589  0.00  0.00    -0.168 OA
BRANCH  15  22
ATOM     18  C   UNL     1      -0.058  -2.852  -3.677  0.00  0.00    +0.044 C 
ATOM     19  C   UNL     1      -0.324  -4.128  -2.922  0.00  0.00    -0.050 A 
ATOM     20  C   UNL     1      -0.448  -5.323  -3.607  0.00  0.00    +0.005 A 
ATOM     21  C   UNL     1      -0.693  -6.494  -2.914  0.00  0.00    +0.027 A 
ATOM     22  C   UNL     1      -0.812  -6.471  -1.537  0.00  0.00    +0.090 A 
ATOM     23  C   UNL     1      -0.688  -5.277  -0.853  0.00  0.00    +0.027 A 
ATOM     24  C   UNL     1      -0.439  -4.106  -1.545  0.00  0.00    +0.005 A 
ENDBRANCH  15  22
ENDBRANCH  14  15
ENDBRANCH  10  14
ENDBRANCH   1  11
BRANCH   1  25
ATOM     25  N   UNL     1       2.051  -7.679   4.222  0.00  0.00    -0.277 N 
ATOM     26  C   UNL     1       2.310  -8.999   4.303  0.00  0.00    +0.251 C 
ATOM     27  O   UNL     1       2.352  -9.544   5.389  0.00  0.00    -0.270 OA
BRANCH  26  28
ATOM     28  C   UNL     1       2.543  -9.783   3.075  0.00  0.00    +0.078 A 
ATOM     29  C   UNL     1       2.961  -9.146   1.904  0.00  0.00    +0.017 A 
ATOM     30  C   UNL     1       3.177  -9.883   0.760  0.00  0.00    +0.001 A 
ATOM     31  C   UNL     1       2.981 -11.255   0.765  0.00  0.00    +0.004 A 
ATOM     32  C   UNL     1       2.568 -11.897   1.916  0.00  0.00    +0.046 A 
ATOM     33  C   UNL     1       2.351 -11.171   3.078  0.00  0.00    +0.129 A 
BRANCH  33  34
ATOM     34  O   UNL     1       1.950 -11.801   4.210  0.00  0.00    -0.506 OA
ATOM     35  H   UNL     1       0.990 -11.867   4.304  0.00  0.00    +0.292 HD
ENDBRANCH  33  34
ENDBRANCH  26  28
BRANCH  25  36
ATOM     36  C   UNL     1       1.883  -6.889   5.444  0.00  0.00    +0.030 C 
ATOM     37  C   UNL     1       0.674  -5.964   5.290  0.00  0.00    +0.031 C 
ATOM     38  C   UNL     1       1.660  -7.827   6.631  0.00  0.00    +0.031 C 
ATOM     39  C   UNL     1       3.139  -6.050   5.685  0.00  0.00    +0.031 C 
ENDBRANCH  25  36
ENDBRANCH   1  25
TORSDOF 9
